MODEL 1
REMARK VINA RESULT:      -7.3      0.000      0.000
REMARK  Name = 
REMARK  10 active torsions:
REMARK  status: ('A' for Active; 'I' for Inactive)
REMARK    1  A    between atoms: C_1  and  N_2
REMARK    2  A    between atoms: N_2  and  C_3
REMARK    3  A    between atoms: N_2  and  C_4
REMARK    4  A    between atoms: C_7  and  N_8
REMARK    5  A    between atoms: C_9  and  C_11
REMARK    6  A    between atoms: C_11  and  N_12
REMARK    7  A    between atoms: C_24  and  C_25
REMARK    8  A    between atoms: C_25  and  C_26
REMARK    9  A    between atoms: C_25  and  C_27
REMARK   10  A    between atoms: C_25  and  C_28
REMARK                            x       y       z     vdW  Elec       q    Type
REMARK                         _______ _______ _______ _____ _____    ______ ____
ROOT
ATOM      1  N   UNL     1       0.044  10.706  21.992  0.00  0.00    +0.000 N 
ATOM      2  N   UNL     1       0.731  11.150  20.877  0.00  0.00    +0.000 NA
ATOM      3  N   UNL     1       0.397  12.224  20.315  0.00  0.00    +0.000 NA
ATOM      4  C   UNL     1      -0.633  12.939  20.818  0.00  0.00    +0.000 A 
ATOM      5  S   UNL     1      -1.180  14.390  20.110  0.00  0.00    +0.000 S 
ATOM      6  C   UNL     1      -2.487  14.482  21.198  0.00  0.00    +0.000 A 
ATOM      7  C   UNL     1      -2.434  13.520  22.191  0.00  0.00    +0.000 A 
ATOM      8  C   UNL     1      -1.390  12.590  21.911  0.00  0.00    +0.000 A 
ATOM      9  C   UNL     1      -1.062  11.339  22.543  0.00  0.00    +0.000 A 
ATOM     10  O   UNL     1      -1.719  10.861  23.463  0.00  0.00    +0.000 OA
ATOM     11  C   UNL     1      -3.490  13.397  23.255  0.00  0.00    +0.000 C 
ATOM     12  C   UNL     1      -4.609  14.439  23.084  0.00  0.00    +0.000 C 
ATOM     13  C   UNL     1      -4.930  14.820  21.607  0.00  0.00    +0.000 C 
ATOM     14  C   UNL     1      -3.624  15.434  21.007  0.00  0.00    +0.000 C 
ENDROOT
BRANCH  13  15
ATOM     15  C   UNL     1      -5.633  13.701  20.714  0.00  0.00    +0.000 C 
ATOM     16  C   UNL     1      -6.379  12.667  21.587  0.00  0.00    +0.000 C 
ATOM     17  C   UNL     1      -6.688  14.358  19.792  0.00  0.00    +0.000 C 
ATOM     18  C   UNL     1      -4.696  12.889  19.803  0.00  0.00    +0.000 C 
ENDBRANCH  13  15
BRANCH   1  19
ATOM     19  C   UNL     1       0.561   9.510  22.628  0.00  0.00    +0.000 C 
BRANCH  19  21
ATOM     20  N   UNL     1       1.796   7.950  21.179  0.00  0.00    +0.000 N 
ATOM     21  C   UNL     1       0.557   8.304  21.704  0.00  0.00    +0.000 C 
ATOM     22  O   UNL     1      -0.522   7.777  21.434  0.00  0.00    +0.000 OA
ATOM     23  H   UNL     1       2.598   8.513  21.434  0.00  0.00    +0.000 HD
BRANCH  20  27
ATOM     24  C   UNL     1       2.563   4.774  18.406  0.00  0.00    +0.000 A 
ATOM     25  C   UNL     1       2.064   4.525  19.685  0.00  0.00    +0.000 A 
ATOM     26  C   UNL     1       1.814   5.549  20.601  0.00  0.00    +0.000 A 
ATOM     27  C   UNL     1       2.024   6.885  20.269  0.00  0.00    +0.000 A 
ATOM     28  C   UNL     1       2.477   7.172  18.981  0.00  0.00    +0.000 A 
ATOM     29  C   UNL     1       2.742   6.129  18.071  0.00  0.00    +0.000 A 
BRANCH  24  31
ATOM     30  C   UNL     1       2.428   2.375  17.847  0.00  0.00    +0.000 C 
ATOM     31  N   UNL     1       2.849   3.735  17.512  0.00  0.00    +0.000 N 
ATOM     32  C   UNL     1       4.057   3.862  16.702  0.00  0.00    +0.000 C 
ENDBRANCH  24  31
ENDBRANCH  20  27
ENDBRANCH  19  21
ENDBRANCH   1  19
TORSDOF 5
ENDMDL
MODEL 2
REMARK VINA RESULT:      -7.0      2.414      3.530
REMARK  Name = 
REMARK  10 active torsions:
REMARK  status: ('A' for Active; 'I' for Inactive)
REMARK    1  A    between atoms: C_1  and  N_2
REMARK    2  A    between atoms: N_2  and  C_3
REMARK    3  A    between atoms: N_2  and  C_4
REMARK    4  A    between atoms: C_7  and  N_8
REMARK    5  A    between atoms: C_9  and  C_11
REMARK    6  A    between atoms: C_11  and  N_12
REMARK    7  A    between atoms: C_24  and  C_25
REMARK    8  A    between atoms: C_25  and  C_26
REMARK    9  A    between atoms: C_25  and  C_27
REMARK   10  A    between atoms: C_25  and  C_28
REMARK                            x       y       z     vdW  Elec       q    Type
REMARK                         _______ _______ _______ _____ _____    ______ ____
ROOT
ATOM      1  N   UNL     1      -1.242  12.866  19.154  0.00  0.00    +0.000 N 
ATOM      2  N   UNL     1      -0.143  13.699  19.037  0.00  0.00    +0.000 NA
ATOM      3  N   UNL     1       0.247  14.373  20.025  0.00  0.00    +0.000 NA
ATOM      4  C   UNL     1      -0.414  14.267  21.198  0.00  0.00    +0.000 A 
ATOM      5  S   UNL     1       0.019  15.161  22.583  0.00  0.00    +0.000 S 
ATOM      6  C   UNL     1      -1.334  14.579  23.439  0.00  0.00    +0.000 A 
ATOM      7  C   UNL     1      -2.026  13.597  22.753  0.00  0.00    +0.000 A 
ATOM      8  C   UNL     1      -1.519  13.482  21.425  0.00  0.00    +0.000 A 
ATOM      9  C   UNL     1      -2.018  12.738  20.298  0.00  0.00    +0.000 A 
ATOM     10  O   UNL     1      -3.052  12.079  20.335  0.00  0.00    +0.000 OA
ATOM     11  C   UNL     1      -3.265  12.946  23.305  0.00  0.00    +0.000 C 
ATOM     12  C   UNL     1      -3.655  13.514  24.680  0.00  0.00    +0.000 C 
ATOM     13  C   UNL     1      -3.325  15.025  24.883  0.00  0.00    +0.000 C 
ATOM     14  C   UNL     1      -1.776  15.170  24.739  0.00  0.00    +0.000 C 
ENDROOT
BRANCH  13  15
ATOM     15  C   UNL     1      -4.191  16.068  24.042  0.00  0.00    +0.000 C 
ATOM     16  C   UNL     1      -5.354  15.370  23.301  0.00  0.00    +0.000 C 
ATOM     17  C   UNL     1      -4.823  17.108  24.997  0.00  0.00    +0.000 C 
ATOM     18  C   UNL     1      -3.422  16.862  22.972  0.00  0.00    +0.000 C 
ENDBRANCH  13  15
BRANCH   1  19
ATOM     19  C   UNL     1      -1.558  12.058  17.993  0.00  0.00    +0.000 C 
BRANCH  19  21
ATOM     20  N   UNL     1       0.298  10.616  18.723  0.00  0.00    +0.000 N 
ATOM     21  C   UNL     1      -0.912  10.684  18.039  0.00  0.00    +0.000 C 
ATOM     22  O   UNL     1      -1.450   9.764  17.425  0.00  0.00    +0.000 OA
ATOM     23  H   UNL     1       0.663  11.468  19.128  0.00  0.00    +0.000 HD
BRANCH  20  27
ATOM     24  C   UNL     1       2.634   7.053  19.189  0.00  0.00    +0.000 A 
ATOM     25  C   UNL     1       2.607   7.759  17.986  0.00  0.00    +0.000 A 
ATOM     26  C   UNL     1       1.847   8.919  17.818  0.00  0.00    +0.000 A 
ATOM     27  C   UNL     1       1.094   9.449  18.862  0.00  0.00    +0.000 A 
ATOM     28  C   UNL     1       1.137   8.794  20.093  0.00  0.00    +0.000 A 
ATOM     29  C   UNL     1       1.894   7.615  20.246  0.00  0.00    +0.000 A 
BRANCH  24  31
ATOM     30  C   UNL     1       4.266   5.457  18.255  0.00  0.00    +0.000 C 
ATOM     31  N   UNL     1       3.367   5.869  19.332  0.00  0.00    +0.000 N 
ATOM     32  C   UNL     1       2.764   4.799  20.121  0.00  0.00    +0.000 C 
ENDBRANCH  24  31
ENDBRANCH  20  27
ENDBRANCH  19  21
ENDBRANCH   1  19
TORSDOF 5
ENDMDL
MODEL 3
REMARK VINA RESULT:      -6.9      6.986     10.536
REMARK  Name = 
REMARK  10 active torsions:
REMARK  status: ('A' for Active; 'I' for Inactive)
REMARK    1  A    between atoms: C_1  and  N_2
REMARK    2  A    between atoms: N_2  and  C_3
REMARK    3  A    between atoms: N_2  and  C_4
REMARK    4  A    between atoms: C_7  and  N_8
REMARK    5  A    between atoms: C_9  and  C_11
REMARK    6  A    between atoms: C_11  and  N_12
REMARK    7  A    between atoms: C_24  and  C_25
REMARK    8  A    between atoms: C_25  and  C_26
REMARK    9  A    between atoms: C_25  and  C_27
REMARK   10  A    between atoms: C_25  and  C_28
REMARK                            x       y       z     vdW  Elec       q    Type
REMARK                         _______ _______ _______ _____ _____    ______ ____
ROOT
ATOM      1  N   UNL     1       5.013  14.526  22.083  0.00  0.00    +0.000 N 
ATOM      2  N   UNL     1       4.827  13.435  22.913  0.00  0.00    +0.000 NA
ATOM      3  N   UNL     1       5.783  12.655  23.155  0.00  0.00    +0.000 NA
ATOM      4  C   UNL     1       6.991  12.901  22.602  0.00  0.00    +0.000 A 
ATOM      5  S   UNL     1       8.339  11.886  22.846  0.00  0.00    +0.000 S 
ATOM      6  C   UNL     1       9.272  12.783  21.738  0.00  0.00    +0.000 A 
ATOM      7  C   UNL     1       8.637  13.932  21.302  0.00  0.00    +0.000 A 
ATOM      8  C   UNL     1       7.286  13.944  21.758  0.00  0.00    +0.000 A 
ATOM      9  C   UNL     1       6.197  14.824  21.424  0.00  0.00    +0.000 A 
ATOM     10  O   UNL     1       6.298  15.733  20.605  0.00  0.00    +0.000 OA
ATOM     11  C   UNL     1       9.262  14.873  20.308  0.00  0.00    +0.000 C 
ATOM     12  C   UNL     1      10.648  14.391  19.846  0.00  0.00    +0.000 C 
ATOM     13  C   UNL     1      10.812  12.843  19.770  0.00  0.00    +0.000 C 
ATOM     14  C   UNL     1      10.586  12.295  21.217  0.00  0.00    +0.000 C 
ENDROOT
BRANCH  13  15
ATOM     15  C   UNL     1      10.004  12.090  18.620  0.00  0.00    +0.000 C 
ATOM     16  C   UNL     1       8.938  13.010  17.984  0.00  0.00    +0.000 C 
ATOM     17  C   UNL     1      10.974  11.674  17.488  0.00  0.00    +0.000 C 
ATOM     18  C   UNL     1       9.259  10.815  19.053  0.00  0.00    +0.000 C 
ENDBRANCH  13  15
BRANCH   1  19
ATOM     19  C   UNL     1       3.881  15.420  21.939  0.00  0.00    +0.000 C 
BRANCH  19  21
ATOM     20  N   UNL     1       2.608  14.066  20.326  0.00  0.00    +0.000 N 
ATOM     21  C   UNL     1       2.600  14.694  21.568  0.00  0.00    +0.000 C 
ATOM     22  O   UNL     1       1.643  14.766  22.337  0.00  0.00    +0.000 OA
ATOM     23  H   UNL     1       3.445  14.142  19.761  0.00  0.00    +0.000 HD
BRANCH  20  27
ATOM     24  C   UNL     1      -0.690  11.993  18.539  0.00  0.00    +0.000 A 
ATOM     25  C   UNL     1       0.306  11.316  19.244  0.00  0.00    +0.000 A 
ATOM     26  C   UNL     1       1.389  11.977  19.827  0.00  0.00    +0.000 A 
ATOM     27  C   UNL     1       1.514  13.362  19.759  0.00  0.00    +0.000 A 
ATOM     28  C   UNL     1       0.510  14.074  19.102  0.00  0.00    +0.000 A 
ATOM     29  C   UNL     1      -0.569  13.395  18.502  0.00  0.00    +0.000 A 
BRANCH  24  31
ATOM     30  C   UNL     1      -3.121  11.662  18.289  0.00  0.00    +0.000 C 
ATOM     31  N   UNL     1      -1.748  11.315  17.923  0.00  0.00    +0.000 N 
ATOM     32  C   UNL     1      -1.512   9.932  17.519  0.00  0.00    +0.000 C 
ENDBRANCH  24  31
ENDBRANCH  20  27
ENDBRANCH  19  21
ENDBRANCH   1  19
TORSDOF 5
ENDMDL
MODEL 4
REMARK VINA RESULT:      -6.9      2.407      3.255
REMARK  Name = 
REMARK  10 active torsions:
REMARK  status: ('A' for Active; 'I' for Inactive)
REMARK    1  A    between atoms: C_1  and  N_2
REMARK    2  A    between atoms: N_2  and  C_3
REMARK    3  A    between atoms: N_2  and  C_4
REMARK    4  A    between atoms: C_7  and  N_8
REMARK    5  A    between atoms: C_9  and  C_11
REMARK    6  A    between atoms: C_11  and  N_12
REMARK    7  A    between atoms: C_24  and  C_25
REMARK    8  A    between atoms: C_25  and  C_26
REMARK    9  A    between atoms: C_25  and  C_27
REMARK   10  A    between atoms: C_25  and  C_28
REMARK                            x       y       z     vdW  Elec       q    Type
REMARK                         _______ _______ _______ _____ _____    ______ ____
ROOT
ATOM      1  N   UNL     1       0.299  10.575  18.536  0.00  0.00    +0.000 N 
ATOM      2  N   UNL     1      -0.783   9.842  18.083  0.00  0.00    +0.000 NA
ATOM      3  N   UNL     1      -1.953  10.265  18.265  0.00  0.00    +0.000 NA
ATOM      4  C   UNL     1      -2.137  11.443  18.898  0.00  0.00    +0.000 A 
ATOM      5  S   UNL     1      -3.684  12.086  19.218  0.00  0.00    +0.000 S 
ATOM      6  C   UNL     1      -3.016  13.371  20.114  0.00  0.00    +0.000 A 
ATOM      7  C   UNL     1      -1.635  13.417  20.047  0.00  0.00    +0.000 A 
ATOM      8  C   UNL     1      -1.141  12.248  19.397  0.00  0.00    +0.000 A 
ATOM      9  C   UNL     1       0.207  11.763  19.248  0.00  0.00    +0.000 A 
ATOM     10  O   UNL     1       1.180  12.330  19.734  0.00  0.00    +0.000 OA
ATOM     11  C   UNL     1      -0.824  14.456  20.772  0.00  0.00    +0.000 C 
ATOM     12  C   UNL     1      -1.709  15.418  21.585  0.00  0.00    +0.000 C 
ATOM     13  C   UNL     1      -2.999  14.777  22.182  0.00  0.00    +0.000 C 
ATOM     14  C   UNL     1      -3.849  14.269  20.972  0.00  0.00    +0.000 C 
ENDROOT
BRANCH  13  15
ATOM     15  C   UNL     1      -2.797  13.727  23.365  0.00  0.00    +0.000 C 
ATOM     16  C   UNL     1      -2.952  14.398  24.748  0.00  0.00    +0.000 C 
ATOM     17  C   UNL     1      -3.879  12.625  23.274  0.00  0.00    +0.000 C 
ATOM     18  C   UNL     1      -1.437  13.007  23.393  0.00  0.00    +0.000 C 
ENDBRANCH  13  15
BRANCH   1  19
ATOM     19  C   UNL     1       1.610  10.057  18.197  0.00  0.00    +0.000 C 
BRANCH  19  21
ATOM     20  N   UNL     1       2.404   7.744  17.916  0.00  0.00    +0.000 N 
ATOM     21  C   UNL     1       1.873   8.685  18.793  0.00  0.00    +0.000 C 
ATOM     22  O   UNL     1       1.542   8.481  19.960  0.00  0.00    +0.000 OA
ATOM     23  H   UNL     1       2.568   8.028  16.958  0.00  0.00    +0.000 HD
BRANCH  20  27
ATOM     24  C   UNL     1       3.305   3.693  18.986  0.00  0.00    +0.000 A 
ATOM     25  C   UNL     1       2.186   4.016  18.217  0.00  0.00    +0.000 A 
ATOM     26  C   UNL     1       1.877   5.332  17.864  0.00  0.00    +0.000 A 
ATOM     27  C   UNL     1       2.695   6.394  18.242  0.00  0.00    +0.000 A 
ATOM     28  C   UNL     1       3.847   6.100  18.971  0.00  0.00    +0.000 A 
ATOM     29  C   UNL     1       4.140   4.771  19.336  0.00  0.00    +0.000 A 
BRANCH  24  31
ATOM     30  C   UNL     1       4.540   2.135  20.446  0.00  0.00    +0.000 C 
ATOM     31  N   UNL     1       3.581   2.375  19.368  0.00  0.00    +0.000 N 
ATOM     32  C   UNL     1       3.491   1.347  18.335  0.00  0.00    +0.000 C 
ENDBRANCH  24  31
ENDBRANCH  20  27
ENDBRANCH  19  21
ENDBRANCH   1  19
TORSDOF 5
ENDMDL
MODEL 5
REMARK VINA RESULT:      -6.9      1.933      2.751
REMARK  Name = 
REMARK  10 active torsions:
REMARK  status: ('A' for Active; 'I' for Inactive)
REMARK    1  A    between atoms: C_1  and  N_2
REMARK    2  A    between atoms: N_2  and  C_3
REMARK    3  A    between atoms: N_2  and  C_4
REMARK    4  A    between atoms: C_7  and  N_8
REMARK    5  A    between atoms: C_9  and  C_11
REMARK    6  A    between atoms: C_11  and  N_12
REMARK    7  A    between atoms: C_24  and  C_25
REMARK    8  A    between atoms: C_25  and  C_26
REMARK    9  A    between atoms: C_25  and  C_27
REMARK   10  A    between atoms: C_25  and  C_28
REMARK                            x       y       z     vdW  Elec       q    Type
REMARK                         _______ _______ _______ _____ _____    ______ ____
ROOT
ATOM      1  N   UNL     1      -0.076  11.691  20.333  0.00  0.00    +0.000 N 
ATOM      2  N   UNL     1       0.387  11.438  21.612  0.00  0.00    +0.000 NA
ATOM      3  N   UNL     1      -0.380  11.574  22.599  0.00  0.00    +0.000 NA
ATOM      4  C   UNL     1      -1.657  11.960  22.394  0.00  0.00    +0.000 A 
ATOM      5  S   UNL     1      -2.763  12.200  23.669  0.00  0.00    +0.000 S 
ATOM      6  C   UNL     1      -3.946  12.789  22.593  0.00  0.00    +0.000 A 
ATOM      7  C   UNL     1      -3.581  12.662  21.265  0.00  0.00    +0.000 A 
ATOM      8  C   UNL     1      -2.220  12.246  21.173  0.00  0.00    +0.000 A 
ATOM      9  C   UNL     1      -1.350  12.148  20.030  0.00  0.00    +0.000 A 
ATOM     10  O   UNL     1      -1.695  12.471  18.897  0.00  0.00    +0.000 OA
ATOM     11  C   UNL     1      -4.460  13.129  20.137  0.00  0.00    +0.000 C 
ATOM     12  C   UNL     1      -5.767  13.761  20.644  0.00  0.00    +0.000 C 
ATOM     13  C   UNL     1      -5.645  14.524  21.998  0.00  0.00    +0.000 C 
ATOM     14  C   UNL     1      -5.187  13.477  23.065  0.00  0.00    +0.000 C 
ENDROOT
BRANCH  13  15
ATOM     15  C   UNL     1      -4.819  15.888  21.981  0.00  0.00    +0.000 C 
ATOM     16  C   UNL     1      -5.731  17.105  22.258  0.00  0.00    +0.000 C 
ATOM     17  C   UNL     1      -3.748  15.863  23.097  0.00  0.00    +0.000 C 
ATOM     18  C   UNL     1      -4.080  16.204  20.668  0.00  0.00    +0.000 C 
ENDBRANCH  13  15
BRANCH   1  19
ATOM     19  C   UNL     1       0.850  11.415  19.251  0.00  0.00    +0.000 C 
BRANCH  19  21
ATOM     20  N   UNL     1       1.703   9.163  19.758  0.00  0.00    +0.000 N 
ATOM     21  C   UNL     1       0.926   9.938  18.903  0.00  0.00    +0.000 C 
ATOM     22  O   UNL     1       0.368   9.550  17.878  0.00  0.00    +0.000 OA
ATOM     23  H   UNL     1       2.163   9.625  20.532  0.00  0.00    +0.000 HD
BRANCH  20  27
ATOM     24  C   UNL     1       2.516   4.983  19.266  0.00  0.00    +0.000 A 
ATOM     25  C   UNL     1       1.883   5.477  20.408  0.00  0.00    +0.000 A 
ATOM     26  C   UNL     1       1.615   6.837  20.584  0.00  0.00    +0.000 A 
ATOM     27  C   UNL     1       1.945   7.772  19.607  0.00  0.00    +0.000 A 
ATOM     28  C   UNL     1       2.535   7.305  18.432  0.00  0.00    +0.000 A 
ATOM     29  C   UNL     1       2.816   5.934  18.272  0.00  0.00    +0.000 A 
BRANCH  24  31
ATOM     30  C   UNL     1       4.122   3.134  19.557  0.00  0.00    +0.000 C 
ATOM     31  N   UNL     1       2.815   3.624  19.120  0.00  0.00    +0.000 N 
ATOM     32  C   UNL     1       2.197   2.919  18.001  0.00  0.00    +0.000 C 
ENDBRANCH  24  31
ENDBRANCH  20  27
ENDBRANCH  19  21
ENDBRANCH   1  19
TORSDOF 5
ENDMDL
MODEL 6
REMARK VINA RESULT:      -6.9      2.444      3.304
REMARK  Name = 
REMARK  10 active torsions:
REMARK  status: ('A' for Active; 'I' for Inactive)
REMARK    1  A    between atoms: C_1  and  N_2
REMARK    2  A    between atoms: N_2  and  C_3
REMARK    3  A    between atoms: N_2  and  C_4
REMARK    4  A    between atoms: C_7  and  N_8
REMARK    5  A    between atoms: C_9  and  C_11
REMARK    6  A    between atoms: C_11  and  N_12
REMARK    7  A    between atoms: C_24  and  C_25
REMARK    8  A    between atoms: C_25  and  C_26
REMARK    9  A    between atoms: C_25  and  C_27
REMARK   10  A    between atoms: C_25  and  C_28
REMARK                            x       y       z     vdW  Elec       q    Type
REMARK                         _______ _______ _______ _____ _____    ______ ____
ROOT
ATOM      1  N   UNL     1       0.330  10.769  18.510  0.00  0.00    +0.000 N 
ATOM      2  N   UNL     1      -0.735   9.983  18.109  0.00  0.00    +0.000 NA
ATOM      3  N   UNL     1      -1.915  10.357  18.329  0.00  0.00    +0.000 NA
ATOM      4  C   UNL     1      -2.128  11.536  18.952  0.00  0.00    +0.000 A 
ATOM      5  S   UNL     1      -3.688  12.115  19.321  0.00  0.00    +0.000 S 
ATOM      6  C   UNL     1      -3.045  13.442  20.173  0.00  0.00    +0.000 A 
ATOM      7  C   UNL     1      -1.670  13.547  20.054  0.00  0.00    +0.000 A 
ATOM      8  C   UNL     1      -1.150  12.391  19.402  0.00  0.00    +0.000 A 
ATOM      9  C   UNL     1       0.211  11.963  19.209  0.00  0.00    +0.000 A 
ATOM     10  O   UNL     1       1.176  12.580  19.650  0.00  0.00    +0.000 OA
ATOM     11  C   UNL     1      -0.880  14.632  20.733  0.00  0.00    +0.000 C 
ATOM     12  C   UNL     1      -1.775  15.566  21.565  0.00  0.00    +0.000 C 
ATOM     13  C   UNL     1      -3.013  14.879  22.219  0.00  0.00    +0.000 C 
ATOM     14  C   UNL     1      -3.884  14.316  21.049  0.00  0.00    +0.000 C 
ENDROOT
BRANCH  13  15
ATOM     15  C   UNL     1      -2.722  13.858  23.408  0.00  0.00    +0.000 C 
ATOM     16  C   UNL     1      -1.205  13.638  23.606  0.00  0.00    +0.000 C 
ATOM     17  C   UNL     1      -3.271  14.433  24.735  0.00  0.00    +0.000 C 
ATOM     18  C   UNL     1      -3.335  12.456  23.248  0.00  0.00    +0.000 C 
ENDBRANCH  13  15
BRANCH   1  19
ATOM     19  C   UNL     1       1.649  10.303  18.129  0.00  0.00    +0.000 C 
BRANCH  19  21
ATOM     20  N   UNL     1       2.571   8.056  17.734  0.00  0.00    +0.000 N 
ATOM     21  C   UNL     1       1.951   8.907  18.645  0.00  0.00    +0.000 C 
ATOM     22  O   UNL     1       1.576   8.607  19.777  0.00  0.00    +0.000 OA
ATOM     23  H   UNL     1       2.766   8.413  16.808  0.00  0.00    +0.000 HD
BRANCH  20  27
ATOM     24  C   UNL     1       3.667   3.994  18.548  0.00  0.00    +0.000 A 
ATOM     25  C   UNL     1       2.334   4.375  18.390  0.00  0.00    +0.000 A 
ATOM     26  C   UNL     1       1.962   5.695  18.129  0.00  0.00    +0.000 A 
ATOM     27  C   UNL     1       2.914   6.701  17.984  0.00  0.00    +0.000 A 
ATOM     28  C   UNL     1       4.258   6.345  18.089  0.00  0.00    +0.000 A 
ATOM     29  C   UNL     1       4.622   5.012  18.369  0.00  0.00    +0.000 A 
BRANCH  24  31
ATOM     30  C   UNL     1       3.451   1.585  18.061  0.00  0.00    +0.000 C 
ATOM     31  N   UNL     1       4.025   2.674  18.851  0.00  0.00    +0.000 N 
ATOM     32  C   UNL     1       4.348   2.370  20.241  0.00  0.00    +0.000 C 
ENDBRANCH  24  31
ENDBRANCH  20  27
ENDBRANCH  19  21
ENDBRANCH   1  19
TORSDOF 5
ENDMDL
MODEL 7
REMARK VINA RESULT:      -6.8      1.960      2.963
REMARK  Name = 
REMARK  10 active torsions:
REMARK  status: ('A' for Active; 'I' for Inactive)
REMARK    1  A    between atoms: C_1  and  N_2
REMARK    2  A    between atoms: N_2  and  C_3
REMARK    3  A    between atoms: N_2  and  C_4
REMARK    4  A    between atoms: C_7  and  N_8
REMARK    5  A    between atoms: C_9  and  C_11
REMARK    6  A    between atoms: C_11  and  N_12
REMARK    7  A    between atoms: C_24  and  C_25
REMARK    8  A    between atoms: C_25  and  C_26
REMARK    9  A    between atoms: C_25  and  C_27
REMARK   10  A    between atoms: C_25  and  C_28
REMARK                            x       y       z     vdW  Elec       q    Type
REMARK                         _______ _______ _______ _____ _____    ______ ____
ROOT
ATOM      1  N   UNL     1       0.502  11.209  19.967  0.00  0.00    +0.000 N 
ATOM      2  N   UNL     1       0.959  10.835  21.218  0.00  0.00    +0.000 NA
ATOM      3  N   UNL     1       0.228  10.989  22.230  0.00  0.00    +0.000 NA
ATOM      4  C   UNL     1      -1.007  11.514  22.077  0.00  0.00    +0.000 A 
ATOM      5  S   UNL     1      -2.059  11.789  23.390  0.00  0.00    +0.000 S 
ATOM      6  C   UNL     1      -3.194  12.558  22.379  0.00  0.00    +0.000 A 
ATOM      7  C   UNL     1      -2.867  12.475  21.037  0.00  0.00    +0.000 A 
ATOM      8  C   UNL     1      -1.558  11.929  20.889  0.00  0.00    +0.000 A 
ATOM      9  C   UNL     1      -0.724  11.812  19.721  0.00  0.00    +0.000 A 
ATOM     10  O   UNL     1      -1.053  12.235  18.618  0.00  0.00    +0.000 OA
ATOM     11  C   UNL     1      -3.713  13.095  19.959  0.00  0.00    +0.000 C 
ATOM     12  C   UNL     1      -4.939  13.826  20.533  0.00  0.00    +0.000 C 
ATOM     13  C   UNL     1      -4.715  14.490  21.926  0.00  0.00    +0.000 C 
ATOM     14  C   UNL     1      -4.349  13.339  22.919  0.00  0.00    +0.000 C 
ENDROOT
BRANCH  13  15
ATOM     15  C   UNL     1      -3.754  15.762  21.968  0.00  0.00    +0.000 C 
ATOM     16  C   UNL     1      -4.550  17.065  22.206  0.00  0.00    +0.000 C 
ATOM     17  C   UNL     1      -2.756  15.621  23.141  0.00  0.00    +0.000 C 
ATOM     18  C   UNL     1      -2.913  16.004  20.702  0.00  0.00    +0.000 C 
ENDBRANCH  13  15
BRANCH   1  19
ATOM     19  C   UNL     1       1.375  10.906  18.850  0.00  0.00    +0.000 C 
BRANCH  19  21
ATOM     20  N   UNL     1       2.089   8.621  19.422  0.00  0.00    +0.000 N 
ATOM     21  C   UNL     1       1.408   9.426  18.513  0.00  0.00    +0.000 C 
ATOM     22  O   UNL     1       0.905   9.055  17.453  0.00  0.00    +0.000 OA
ATOM     23  H   UNL     1       2.516   9.068  20.224  0.00  0.00    +0.000 HD
BRANCH  20  27
ATOM     24  C   UNL     1       2.573   4.378  19.060  0.00  0.00    +0.000 A 
ATOM     25  C   UNL     1       3.077   5.258  18.100  0.00  0.00    +0.000 A 
ATOM     26  C   UNL     1       2.922   6.642  18.202  0.00  0.00    +0.000 A 
ATOM     27  C   UNL     1       2.278   7.221  19.292  0.00  0.00    +0.000 A 
ATOM     28  C   UNL     1       1.805   6.372  20.294  0.00  0.00    +0.000 A 
ATOM     29  C   UNL     1       1.951   4.976  20.172  0.00  0.00    +0.000 A 
BRANCH  24  31
ATOM     30  C   UNL     1       3.568   2.455  17.878  0.00  0.00    +0.000 C 
ATOM     31  N   UNL     1       2.698   2.991  18.925  0.00  0.00    +0.000 N 
ATOM     32  C   UNL     1       1.544   2.176  19.293  0.00  0.00    +0.000 C 
ENDBRANCH  24  31
ENDBRANCH  20  27
ENDBRANCH  19  21
ENDBRANCH   1  19
TORSDOF 5
ENDMDL
MODEL 8
REMARK VINA RESULT:      -6.8      0.757      1.283
REMARK  Name = 
REMARK  10 active torsions:
REMARK  status: ('A' for Active; 'I' for Inactive)
REMARK    1  A    between atoms: C_1  and  N_2
REMARK    2  A    between atoms: N_2  and  C_3
REMARK    3  A    between atoms: N_2  and  C_4
REMARK    4  A    between atoms: C_7  and  N_8
REMARK    5  A    between atoms: C_9  and  C_11
REMARK    6  A    between atoms: C_11  and  N_12
REMARK    7  A    between atoms: C_24  and  C_25
REMARK    8  A    between atoms: C_25  and  C_26
REMARK    9  A    between atoms: C_25  and  C_27
REMARK   10  A    between atoms: C_25  and  C_28
REMARK                            x       y       z     vdW  Elec       q    Type
REMARK                         _______ _______ _______ _____ _____    ______ ____
ROOT
ATOM      1  N   UNL     1      -0.465  10.966  22.392  0.00  0.00    +0.000 N 
ATOM      2  N   UNL     1       0.285  11.559  21.392  0.00  0.00    +0.000 NA
ATOM      3  N   UNL     1      -0.078  12.656  20.896  0.00  0.00    +0.000 NA
ATOM      4  C   UNL     1      -1.199  13.250  21.359  0.00  0.00    +0.000 A 
ATOM      5  S   UNL     1      -1.788  14.722  20.732  0.00  0.00    +0.000 S 
ATOM      6  C   UNL     1      -3.191  14.623  21.692  0.00  0.00    +0.000 A 
ATOM      7  C   UNL     1      -3.155  13.577  22.598  0.00  0.00    +0.000 A 
ATOM      8  C   UNL     1      -2.023  12.749  22.339  0.00  0.00    +0.000 A 
ATOM      9  C   UNL     1      -1.660  11.469  22.887  0.00  0.00    +0.000 A 
ATOM     10  O   UNL     1      -2.359  10.863  23.694  0.00  0.00    +0.000 OA
ATOM     11  C   UNL     1      -4.290  13.284  23.540  0.00  0.00    +0.000 C 
ATOM     12  C   UNL     1      -5.465  14.260  23.354  0.00  0.00    +0.000 C 
ATOM     13  C   UNL     1      -5.680  14.756  21.892  0.00  0.00    +0.000 C 
ATOM     14  C   UNL     1      -4.375  15.510  21.477  0.00  0.00    +0.000 C 
ENDROOT
BRANCH  13  15
ATOM     15  C   UNL     1      -6.214  13.683  20.841  0.00  0.00    +0.000 C 
ATOM     16  C   UNL     1      -7.623  14.050  20.323  0.00  0.00    +0.000 C 
ATOM     17  C   UNL     1      -5.276  13.647  19.611  0.00  0.00    +0.000 C 
ATOM     18  C   UNL     1      -6.317  12.237  21.359  0.00  0.00    +0.000 C 
ENDBRANCH  13  15
BRANCH   1  19
ATOM     19  C   UNL     1       0.082   9.753  22.967  0.00  0.00    +0.000 C 
BRANCH  19  21
ATOM     20  N   UNL     1       1.496   8.412  21.464  0.00  0.00    +0.000 N 
ATOM     21  C   UNL     1       0.212   8.628  21.954  0.00  0.00    +0.000 C 
ATOM     22  O   UNL     1      -0.809   8.045  21.593  0.00  0.00    +0.000 OA
ATOM     23  H   UNL     1       2.240   9.011  21.800  0.00  0.00    +0.000 HD
BRANCH  20  27
ATOM     24  C   UNL     1       2.482   5.436  18.541  0.00  0.00    +0.000 A 
ATOM     25  C   UNL     1       2.539   6.799  18.247  0.00  0.00    +0.000 A 
ATOM     26  C   UNL     1       2.216   7.780  19.187  0.00  0.00    +0.000 A 
ATOM     27  C   UNL     1       1.846   7.444  20.487  0.00  0.00    +0.000 A 
ATOM     28  C   UNL     1       1.826   6.091  20.828  0.00  0.00    +0.000 A 
ATOM     29  C   UNL     1       2.137   5.109  19.866  0.00  0.00    +0.000 A 
BRANCH  24  31
ATOM     30  C   UNL     1       2.074   3.176  17.641  0.00  0.00    +0.000 C 
ATOM     31  N   UNL     1       2.768   4.462  17.578  0.00  0.00    +0.000 N 
ATOM     32  C   UNL     1       4.118   4.446  17.023  0.00  0.00    +0.000 C 
ENDBRANCH  24  31
ENDBRANCH  20  27
ENDBRANCH  19  21
ENDBRANCH   1  19
TORSDOF 5
ENDMDL
MODEL 9
REMARK VINA RESULT:      -6.8      2.376      4.092
REMARK  Name = 
REMARK  10 active torsions:
REMARK  status: ('A' for Active; 'I' for Inactive)
REMARK    1  A    between atoms: C_1  and  N_2
REMARK    2  A    between atoms: N_2  and  C_3
REMARK    3  A    between atoms: N_2  and  C_4
REMARK    4  A    between atoms: C_7  and  N_8
REMARK    5  A    between atoms: C_9  and  C_11
REMARK    6  A    between atoms: C_11  and  N_12
REMARK    7  A    between atoms: C_24  and  C_25
REMARK    8  A    between atoms: C_25  and  C_26
REMARK    9  A    between atoms: C_25  and  C_27
REMARK   10  A    between atoms: C_25  and  C_28
REMARK                            x       y       z     vdW  Elec       q    Type
REMARK                         _______ _______ _______ _____ _____    ______ ____
ROOT
ATOM      1  N   UNL     1      -0.488  10.839  22.537  0.00  0.00    +0.000 N 
ATOM      2  N   UNL     1      -1.745  11.189  22.999  0.00  0.00    +0.000 NA
ATOM      3  N   UNL     1      -2.323  12.209  22.547  0.00  0.00    +0.000 NA
ATOM      4  C   UNL     1      -1.708  12.951  21.601  0.00  0.00    +0.000 A 
ATOM      5  S   UNL     1      -2.397  14.367  20.948  0.00  0.00    +0.000 S 
ATOM      6  C   UNL     1      -0.984  14.699  20.057  0.00  0.00    +0.000 A 
ATOM      7  C   UNL     1      -0.053  13.678  20.118  0.00  0.00    +0.000 A 
ATOM      8  C   UNL     1      -0.461  12.705  21.077  0.00  0.00    +0.000 A 
ATOM      9  C   UNL     1       0.246  11.572  21.615  0.00  0.00    +0.000 A 
ATOM     10  O   UNL     1       1.403  11.298  21.310  0.00  0.00    +0.000 OA
ATOM     11  C   UNL     1       1.279  13.755  19.422  0.00  0.00    +0.000 C 
ATOM     12  C   UNL     1       1.465  15.086  18.674  0.00  0.00    +0.000 C 
ATOM     13  C   UNL     1       0.784  16.317  19.345  0.00  0.00    +0.000 C 
ATOM     14  C   UNL     1      -0.749  16.016  19.387  0.00  0.00    +0.000 C 
ENDROOT
BRANCH  13  15
ATOM     15  C   UNL     1       1.418  16.830  20.715  0.00  0.00    +0.000 C 
ATOM     16  C   UNL     1       2.146  18.181  20.531  0.00  0.00    +0.000 C 
ATOM     17  C   UNL     1       0.296  17.059  21.755  0.00  0.00    +0.000 C 
ATOM     18  C   UNL     1       2.440  15.884  21.371  0.00  0.00    +0.000 C 
ENDBRANCH  13  15
BRANCH   1  19
ATOM     19  C   UNL     1       0.058   9.597  23.046  0.00  0.00    +0.000 C 
BRANCH  19  21
ATOM     20  N   UNL     1       1.503   8.255  21.573  0.00  0.00    +0.000 N 
ATOM     21  C   UNL     1       0.198   8.532  21.972  0.00  0.00    +0.000 C 
ATOM     22  O   UNL     1      -0.825   8.049  21.489  0.00  0.00    +0.000 OA
ATOM     23  H   UNL     1       2.253   8.776  22.009  0.00  0.00    +0.000 HD
BRANCH  20  27
ATOM     24  C   UNL     1       2.540   5.400  18.549  0.00  0.00    +0.000 A 
ATOM     25  C   UNL     1       2.572   6.773  18.302  0.00  0.00    +0.000 A 
ATOM     26  C   UNL     1       2.232   7.715  19.276  0.00  0.00    +0.000 A 
ATOM     27  C   UNL     1       1.869   7.327  20.563  0.00  0.00    +0.000 A 
ATOM     28  C   UNL     1       1.874   5.964  20.857  0.00  0.00    +0.000 A 
ATOM     29  C   UNL     1       2.202   5.021  19.862  0.00  0.00    +0.000 A 
BRANCH  24  31
ATOM     30  C   UNL     1       2.227   3.140  17.613  0.00  0.00    +0.000 C 
ATOM     31  N   UNL     1       2.843   4.465  17.553  0.00  0.00    +0.000 N 
ATOM     32  C   UNL     1       4.168   4.540  16.945  0.00  0.00    +0.000 C 
ENDBRANCH  24  31
ENDBRANCH  20  27
ENDBRANCH  19  21
ENDBRANCH   1  19
TORSDOF 5
ENDMDL
