MODEL 1
REMARK VINA RESULT:      -7.7      0.000      0.000
REMARK  Name = 
REMARK  11 active torsions:
REMARK  status: ('A' for Active; 'I' for Inactive)
REMARK    1  A    between atoms: C_1  and  C_2
REMARK    2  A    between atoms: C_2  and  C_3
REMARK    3  A    between atoms: C_3  and  C_4
REMARK    4  A    between atoms: C_4  and  O_5
REMARK    5  A    between atoms: O_5  and  N_6
REMARK    6  A    between atoms: C_7  and  C_8
REMARK    7  A    between atoms: C_7  and  C_9
REMARK    8  A    between atoms: C_10  and  C_11
REMARK    9  A    between atoms: C_12  and  C_13
REMARK   10  A    between atoms: C_17  and  C_18
REMARK   11  A    between atoms: C_17  and  C_19
REMARK                            x       y       z     vdW  Elec       q    Type
REMARK                         _______ _______ _______ _____ _____    ______ ____
ROOT
ATOM      1  C   UNL     1       5.189   5.648  17.374  0.00  0.00    +0.000 C 
ATOM      2  C   UNL     1       4.560   5.253  18.490  0.00  0.00    +0.000 C 
ENDROOT
BRANCH   2   3
ATOM      3  C   UNL     1       3.075   4.956  18.518  0.00  0.00    +0.000 C 
ATOM      4  C   UNL     1       2.417   5.906  19.504  0.00  0.00    +0.000 C 
ATOM      5  C   UNL     1       2.367   7.359  19.109  0.00  0.00    +0.000 C 
ATOM      6  C   UNL     1       1.936   5.489  20.695  0.00  0.00    +0.000 C 
ATOM      7  C   UNL     1       2.011   4.069  21.174  0.00  0.00    +0.000 C 
ATOM      8  C   UNL     1       2.945   3.186  20.338  0.00  0.00    +0.000 C 
ATOM      9  C   UNL     1       2.800   3.440  18.819  0.00  0.00    +0.000 C 
ATOM     10  C   UNL     1       1.374   3.056  18.356  0.00  0.00    +0.000 C 
ATOM     11  C   UNL     1       3.777   2.525  18.043  0.00  0.00    +0.000 C 
ENDBRANCH   2   3
BRANCH   1  13
ATOM     12  N   UNL     1       7.341   5.949  16.190  0.00  0.00    +0.000 NA
ATOM     13  C   UNL     1       6.660   5.888  17.299  0.00  0.00    +0.000 C 
ATOM     14  C   UNL     1       7.428   6.007  18.597  0.00  0.00    +0.000 C 
BRANCH  12  15
ATOM     15  O   UNL     1       6.499   5.808  15.077  0.00  0.00    +0.000 OA
BRANCH  15  16
ATOM     16  C   UNL     1       6.948   4.714  14.280  0.00  0.00    +0.000 C 
BRANCH  16  17
ATOM     17  C   UNL     1       5.707   3.989  13.766  0.00  0.00    +0.000 C 
BRANCH  17  19
ATOM     18  C   UNL     1       4.639   3.194  11.633  0.00  0.00    +0.000 C 
ATOM     19  C   UNL     1       5.941   3.339  12.405  0.00  0.00    +0.000 C 
ENDBRANCH  17  19
ENDBRANCH  16  17
ENDBRANCH  15  16
ENDBRANCH  12  15
ENDBRANCH   1  13
TORSDOF 6
ENDMDL
MODEL 2
REMARK VINA RESULT:      -7.3      0.976      1.090
REMARK  Name = 
REMARK  11 active torsions:
REMARK  status: ('A' for Active; 'I' for Inactive)
REMARK    1  A    between atoms: C_1  and  C_2
REMARK    2  A    between atoms: C_2  and  C_3
REMARK    3  A    between atoms: C_3  and  C_4
REMARK    4  A    between atoms: C_4  and  O_5
REMARK    5  A    between atoms: O_5  and  N_6
REMARK    6  A    between atoms: C_7  and  C_8
REMARK    7  A    between atoms: C_7  and  C_9
REMARK    8  A    between atoms: C_10  and  C_11
REMARK    9  A    between atoms: C_12  and  C_13
REMARK   10  A    between atoms: C_17  and  C_18
REMARK   11  A    between atoms: C_17  and  C_19
REMARK                            x       y       z     vdW  Elec       q    Type
REMARK                         _______ _______ _______ _____ _____    ______ ____
ROOT
ATOM      1  C   UNL     1       4.911   5.146  16.696  0.00  0.00    +0.000 C 
ATOM      2  C   UNL     1       4.433   4.660  17.849  0.00  0.00    +0.000 C 
ENDROOT
BRANCH   2   3
ATOM      3  C   UNL     1       2.948   4.503  18.107  0.00  0.00    +0.000 C 
ATOM      4  C   UNL     1       2.475   5.702  18.910  0.00  0.00    +0.000 C 
ATOM      5  C   UNL     1       2.459   7.028  18.196  0.00  0.00    +0.000 C 
ATOM      6  C   UNL     1       2.123   5.604  20.210  0.00  0.00    +0.000 C 
ATOM      7  C   UNL     1       2.175   4.327  20.995  0.00  0.00    +0.000 C 
ATOM      8  C   UNL     1       2.945   3.203  20.292  0.00  0.00    +0.000 C 
ATOM      9  C   UNL     1       2.626   3.121  18.780  0.00  0.00    +0.000 C 
ATOM     10  C   UNL     1       1.134   2.766  18.577  0.00  0.00    +0.000 C 
ATOM     11  C   UNL     1       3.445   1.977  18.137  0.00  0.00    +0.000 C 
ENDBRANCH   2   3
BRANCH   1  13
ATOM     12  N   UNL     1       6.984   4.548  15.485  0.00  0.00    +0.000 NA
ATOM     13  C   UNL     1       6.367   5.255  16.388  0.00  0.00    +0.000 C 
ATOM     14  C   UNL     1       7.201   6.203  17.222  0.00  0.00    +0.000 C 
BRANCH  12  15
ATOM     15  O   UNL     1       6.088   3.708  14.808  0.00  0.00    +0.000 OA
BRANCH  15  16
ATOM     16  C   UNL     1       6.371   3.743  13.410  0.00  0.00    +0.000 C 
BRANCH  16  17
ATOM     17  C   UNL     1       5.044   3.950  12.685  0.00  0.00    +0.000 C 
BRANCH  17  19
ATOM     18  C   UNL     1       3.547   3.216  10.803  0.00  0.00    +0.000 C 
ATOM     19  C   UNL     1       4.855   2.965  11.536  0.00  0.00    +0.000 C 
ENDBRANCH  17  19
ENDBRANCH  16  17
ENDBRANCH  15  16
ENDBRANCH  12  15
ENDBRANCH   1  13
TORSDOF 6
ENDMDL
MODEL 3
REMARK VINA RESULT:      -7.2      0.997      1.130
REMARK  Name = 
REMARK  11 active torsions:
REMARK  status: ('A' for Active; 'I' for Inactive)
REMARK    1  A    between atoms: C_1  and  C_2
REMARK    2  A    between atoms: C_2  and  C_3
REMARK    3  A    between atoms: C_3  and  C_4
REMARK    4  A    between atoms: C_4  and  O_5
REMARK    5  A    between atoms: O_5  and  N_6
REMARK    6  A    between atoms: C_7  and  C_8
REMARK    7  A    between atoms: C_7  and  C_9
REMARK    8  A    between atoms: C_10  and  C_11
REMARK    9  A    between atoms: C_12  and  C_13
REMARK   10  A    between atoms: C_17  and  C_18
REMARK   11  A    between atoms: C_17  and  C_19
REMARK                            x       y       z     vdW  Elec       q    Type
REMARK                         _______ _______ _______ _____ _____    ______ ____
ROOT
ATOM      1  C   UNL     1       5.335   6.539  16.931  0.00  0.00    +0.000 C 
ATOM      2  C   UNL     1       4.698   5.954  17.954  0.00  0.00    +0.000 C 
ENDROOT
BRANCH   2   3
ATOM      3  C   UNL     1       3.196   5.751  17.961  0.00  0.00    +0.000 C 
ATOM      4  C   UNL     1       2.565   6.885  18.749  0.00  0.00    +0.000 C 
ATOM      5  C   UNL     1       2.622   8.254  18.123  0.00  0.00    +0.000 C 
ATOM      6  C   UNL     1       2.016   6.697  19.968  0.00  0.00    +0.000 C 
ATOM      7  C   UNL     1       1.982   5.373  20.673  0.00  0.00    +0.000 C 
ATOM      8  C   UNL     1       2.888   4.313  20.035  0.00  0.00    +0.000 C 
ATOM      9  C   UNL     1       2.814   4.322  18.490  0.00  0.00    +0.000 C 
ATOM     10  C   UNL     1       1.385   3.950  18.030  0.00  0.00    +0.000 C 
ATOM     11  C   UNL     1       3.758   3.239  17.919  0.00  0.00    +0.000 C 
ENDBRANCH   2   3
BRANCH   1  13
ATOM     12  N   UNL     1       7.631   5.819  16.357  0.00  0.00    +0.000 NA
ATOM     13  C   UNL     1       6.817   6.699  16.866  0.00  0.00    +0.000 C 
ATOM     14  C   UNL     1       7.427   7.935  17.489  0.00  0.00    +0.000 C 
BRANCH  12  15
ATOM     15  O   UNL     1       6.924   4.726  15.835  0.00  0.00    +0.000 OA
BRANCH  15  16
ATOM     16  C   UNL     1       6.938   4.792  14.409  0.00  0.00    +0.000 C 
BRANCH  16  17
ATOM     17  C   UNL     1       6.171   3.577  13.893  0.00  0.00    +0.000 C 
BRANCH  17  19
ATOM     18  C   UNL     1       5.824   2.435  11.680  0.00  0.00    +0.000 C 
ATOM     19  C   UNL     1       5.730   3.747  12.442  0.00  0.00    +0.000 C 
ENDBRANCH  17  19
ENDBRANCH  16  17
ENDBRANCH  15  16
ENDBRANCH  12  15
ENDBRANCH   1  13
TORSDOF 6
ENDMDL
MODEL 4
REMARK VINA RESULT:      -7.1      1.613      3.810
REMARK  Name = 
REMARK  11 active torsions:
REMARK  status: ('A' for Active; 'I' for Inactive)
REMARK    1  A    between atoms: C_1  and  C_2
REMARK    2  A    between atoms: C_2  and  C_3
REMARK    3  A    between atoms: C_3  and  C_4
REMARK    4  A    between atoms: C_4  and  O_5
REMARK    5  A    between atoms: O_5  and  N_6
REMARK    6  A    between atoms: C_7  and  C_8
REMARK    7  A    between atoms: C_7  and  C_9
REMARK    8  A    between atoms: C_10  and  C_11
REMARK    9  A    between atoms: C_12  and  C_13
REMARK   10  A    between atoms: C_17  and  C_18
REMARK   11  A    between atoms: C_17  and  C_19
REMARK                            x       y       z     vdW  Elec       q    Type
REMARK                         _______ _______ _______ _____ _____    ______ ____
ROOT
ATOM      1  C   UNL     1       4.834   5.305  16.159  0.00  0.00    +0.000 C 
ATOM      2  C   UNL     1       4.328   4.508  17.109  0.00  0.00    +0.000 C 
ENDROOT
BRANCH   2   3
ATOM      3  C   UNL     1       2.939   4.711  17.679  0.00  0.00    +0.000 C 
ATOM      4  C   UNL     1       2.968   5.934  18.580  0.00  0.00    +0.000 C 
ATOM      5  C   UNL     1       3.150   7.267  17.902  0.00  0.00    +0.000 C 
ATOM      6  C   UNL     1       2.878   5.841  19.924  0.00  0.00    +0.000 C 
ATOM      7  C   UNL     1       2.758   4.541  20.664  0.00  0.00    +0.000 C 
ATOM      8  C   UNL     1       3.049   3.311  19.798  0.00  0.00    +0.000 C 
ATOM      9  C   UNL     1       2.416   3.413  18.390  0.00  0.00    +0.000 C 
ATOM     10  C   UNL     1       0.874   3.457  18.510  0.00  0.00    +0.000 C 
ATOM     11  C   UNL     1       2.760   2.146  17.573  0.00  0.00    +0.000 C 
ENDBRANCH   2   3
BRANCH   1  13
ATOM     12  N   UNL     1       7.220   5.832  15.769  0.00  0.00    +0.000 NA
ATOM     13  C   UNL     1       6.173   5.095  15.533  0.00  0.00    +0.000 C 
ATOM     14  C   UNL     1       6.312   3.992  14.506  0.00  0.00    +0.000 C 
BRANCH  12  15
ATOM     15  O   UNL     1       6.934   6.817  16.726  0.00  0.00    +0.000 OA
BRANCH  15  16
ATOM     16  C   UNL     1       7.423   6.396  17.998  0.00  0.00    +0.000 C 
BRANCH  16  17
ATOM     17  C   UNL     1       8.225   7.556  18.582  0.00  0.00    +0.000 C 
BRANCH  17  19
ATOM     18  C   UNL     1       8.847   9.984  18.384  0.00  0.00    +0.000 C 
ATOM     19  C   UNL     1       8.026   8.848  17.795  0.00  0.00    +0.000 C 
ENDBRANCH  17  19
ENDBRANCH  16  17
ENDBRANCH  15  16
ENDBRANCH  12  15
ENDBRANCH   1  13
TORSDOF 6
ENDMDL
MODEL 5
REMARK VINA RESULT:      -7.1      1.058      2.566
REMARK  Name = 
REMARK  11 active torsions:
REMARK  status: ('A' for Active; 'I' for Inactive)
REMARK    1  A    between atoms: C_1  and  C_2
REMARK    2  A    between atoms: C_2  and  C_3
REMARK    3  A    between atoms: C_3  and  C_4
REMARK    4  A    between atoms: C_4  and  O_5
REMARK    5  A    between atoms: O_5  and  N_6
REMARK    6  A    between atoms: C_7  and  C_8
REMARK    7  A    between atoms: C_7  and  C_9
REMARK    8  A    between atoms: C_10  and  C_11
REMARK    9  A    between atoms: C_12  and  C_13
REMARK   10  A    between atoms: C_17  and  C_18
REMARK   11  A    between atoms: C_17  and  C_19
REMARK                            x       y       z     vdW  Elec       q    Type
REMARK                         _______ _______ _______ _____ _____    ______ ____
ROOT
ATOM      1  C   UNL     1       5.432   4.723  18.045  0.00  0.00    +0.000 C 
ATOM      2  C   UNL     1       4.987   4.953  19.287  0.00  0.00    +0.000 C 
ENDROOT
BRANCH   2   3
ATOM      3  C   UNL     1       3.683   4.375  19.799  0.00  0.00    +0.000 C 
ATOM      4  C   UNL     1       3.598   2.925  19.356  0.00  0.00    +0.000 C 
ATOM      5  C   UNL     1       4.561   1.964  20.004  0.00  0.00    +0.000 C 
ATOM      6  C   UNL     1       2.737   2.512  18.401  0.00  0.00    +0.000 C 
ATOM      7  C   UNL     1       1.796   3.428  17.675  0.00  0.00    +0.000 C 
ATOM      8  C   UNL     1       2.100   4.916  17.885  0.00  0.00    +0.000 C 
ATOM      9  C   UNL     1       2.456   5.247  19.354  0.00  0.00    +0.000 C 
ATOM     10  C   UNL     1       1.240   4.959  20.266  0.00  0.00    +0.000 C 
ATOM     11  C   UNL     1       2.760   6.757  19.487  0.00  0.00    +0.000 C 
ENDBRANCH   2   3
BRANCH   1  13
ATOM     12  N   UNL     1       7.261   4.887  16.386  0.00  0.00    +0.000 NA
ATOM     13  C   UNL     1       6.739   5.225  17.531  0.00  0.00    +0.000 C 
ATOM     14  C   UNL     1       7.549   6.140  18.424  0.00  0.00    +0.000 C 
BRANCH  12  15
ATOM     15  O   UNL     1       6.405   4.028  15.681  0.00  0.00    +0.000 OA
BRANCH  15  16
ATOM     16  C   UNL     1       6.711   4.093  14.290  0.00  0.00    +0.000 C 
BRANCH  16  17
ATOM     17  C   UNL     1       5.400   3.920  13.529  0.00  0.00    +0.000 C 
BRANCH  17  19
ATOM     18  C   UNL     1       4.312   3.244  11.365  0.00  0.00    +0.000 C 
ATOM     19  C   UNL     1       5.605   3.268  12.165  0.00  0.00    +0.000 C 
ENDBRANCH  17  19
ENDBRANCH  16  17
ENDBRANCH  15  16
ENDBRANCH  12  15
ENDBRANCH   1  13
TORSDOF 6
ENDMDL
MODEL 6
REMARK VINA RESULT:      -7.0      2.222      4.786
REMARK  Name = 
REMARK  11 active torsions:
REMARK  status: ('A' for Active; 'I' for Inactive)
REMARK    1  A    between atoms: C_1  and  C_2
REMARK    2  A    between atoms: C_2  and  C_3
REMARK    3  A    between atoms: C_3  and  C_4
REMARK    4  A    between atoms: C_4  and  O_5
REMARK    5  A    between atoms: O_5  and  N_6
REMARK    6  A    between atoms: C_7  and  C_8
REMARK    7  A    between atoms: C_7  and  C_9
REMARK    8  A    between atoms: C_10  and  C_11
REMARK    9  A    between atoms: C_12  and  C_13
REMARK   10  A    between atoms: C_17  and  C_18
REMARK   11  A    between atoms: C_17  and  C_19
REMARK                            x       y       z     vdW  Elec       q    Type
REMARK                         _______ _______ _______ _____ _____    ______ ____
ROOT
ATOM      1  C   UNL     1       5.647   5.175  17.858  0.00  0.00    +0.000 C 
ATOM      2  C   UNL     1       4.584   4.359  17.884  0.00  0.00    +0.000 C 
ENDROOT
BRANCH   2   3
ATOM      3  C   UNL     1       3.663   4.270  19.084  0.00  0.00    +0.000 C 
ATOM      4  C   UNL     1       3.463   2.803  19.423  0.00  0.00    +0.000 C 
ATOM      5  C   UNL     1       4.657   2.071  19.978  0.00  0.00    +0.000 C 
ATOM      6  C   UNL     1       2.293   2.166  19.204  0.00  0.00    +0.000 C 
ATOM      7  C   UNL     1       1.087   2.821  18.597  0.00  0.00    +0.000 C 
ATOM      8  C   UNL     1       1.380   4.187  17.967  0.00  0.00    +0.000 C 
ATOM      9  C   UNL     1       2.324   5.052  18.837  0.00  0.00    +0.000 C 
ATOM     10  C   UNL     1       1.641   5.377  20.187  0.00  0.00    +0.000 C 
ATOM     11  C   UNL     1       2.582   6.405  18.135  0.00  0.00    +0.000 C 
ENDBRANCH   2   3
BRANCH   1  13
ATOM     12  N   UNL     1       7.132   6.441  16.338  0.00  0.00    +0.000 NA
ATOM     13  C   UNL     1       6.536   5.332  16.670  0.00  0.00    +0.000 C 
ATOM     14  C   UNL     1       6.711   4.142  15.751  0.00  0.00    +0.000 C 
BRANCH  12  15
ATOM     15  O   UNL     1       6.866   7.452  17.272  0.00  0.00    +0.000 OA
BRANCH  15  16
ATOM     16  C   UNL     1       8.088   7.868  17.880  0.00  0.00    +0.000 C 
BRANCH  16  17
ATOM     17  C   UNL     1       8.108   9.394  17.857  0.00  0.00    +0.000 C 
BRANCH  17  19
ATOM     18  C   UNL     1       9.870  11.121  18.343  0.00  0.00    +0.000 C 
ATOM     19  C   UNL     1       9.047   9.974  18.910  0.00  0.00    +0.000 C 
ENDBRANCH  17  19
ENDBRANCH  16  17
ENDBRANCH  15  16
ENDBRANCH  12  15
ENDBRANCH   1  13
TORSDOF 6
ENDMDL
MODEL 7
REMARK VINA RESULT:      -6.9      1.590      3.293
REMARK  Name = 
REMARK  11 active torsions:
REMARK  status: ('A' for Active; 'I' for Inactive)
REMARK    1  A    between atoms: C_1  and  C_2
REMARK    2  A    between atoms: C_2  and  C_3
REMARK    3  A    between atoms: C_3  and  C_4
REMARK    4  A    between atoms: C_4  and  O_5
REMARK    5  A    between atoms: O_5  and  N_6
REMARK    6  A    between atoms: C_7  and  C_8
REMARK    7  A    between atoms: C_7  and  C_9
REMARK    8  A    between atoms: C_10  and  C_11
REMARK    9  A    between atoms: C_12  and  C_13
REMARK   10  A    between atoms: C_17  and  C_18
REMARK   11  A    between atoms: C_17  and  C_19
REMARK                            x       y       z     vdW  Elec       q    Type
REMARK                         _______ _______ _______ _____ _____    ______ ____
ROOT
ATOM      1  C   UNL     1       4.322   4.799  16.332  0.00  0.00    +0.000 C 
ATOM      2  C   UNL     1       4.028   4.382  17.571  0.00  0.00    +0.000 C 
ENDROOT
BRANCH   2   3
ATOM      3  C   UNL     1       2.602   4.290  18.075  0.00  0.00    +0.000 C 
ATOM      4  C   UNL     1       2.332   5.493  18.963  0.00  0.00    +0.000 C 
ATOM      5  C   UNL     1       2.262   6.833  18.278  0.00  0.00    +0.000 C 
ATOM      6  C   UNL     1       2.202   5.386  20.303  0.00  0.00    +0.000 C 
ATOM      7  C   UNL     1       2.322   4.091  21.051  0.00  0.00    +0.000 C 
ATOM      8  C   UNL     1       2.905   2.947  20.213  0.00  0.00    +0.000 C 
ATOM      9  C   UNL     1       2.330   2.912  18.777  0.00  0.00    +0.000 C 
ATOM     10  C   UNL     1       0.810   2.631  18.826  0.00  0.00    +0.000 C 
ATOM     11  C   UNL     1       2.969   1.744  17.990  0.00  0.00    +0.000 C 
ENDBRANCH   2   3
BRANCH   1  13
ATOM     12  N   UNL     1       6.406   5.931  15.629  0.00  0.00    +0.000 NA
ATOM     13  C   UNL     1       5.709   4.842  15.784  0.00  0.00    +0.000 C 
ATOM     14  C   UNL     1       6.329   3.543  15.317  0.00  0.00    +0.000 C 
BRANCH  12  15
ATOM     15  O   UNL     1       5.698   7.049  16.091  0.00  0.00    +0.000 OA
BRANCH  15  16
ATOM     16  C   UNL     1       6.039   7.295  17.454  0.00  0.00    +0.000 C 
BRANCH  16  17
ATOM     17  C   UNL     1       7.561   7.245  17.556  0.00  0.00    +0.000 C 
BRANCH  17  19
ATOM     18  C   UNL     1       6.898   5.572  19.312  0.00  0.00    +0.000 C 
ATOM     19  C   UNL     1       8.033   6.405  18.739  0.00  0.00    +0.000 C 
ENDBRANCH  17  19
ENDBRANCH  16  17
ENDBRANCH  15  16
ENDBRANCH  12  15
ENDBRANCH   1  13
TORSDOF 6
ENDMDL
MODEL 8
REMARK VINA RESULT:      -6.8      1.676      3.201
REMARK  Name = 
REMARK  11 active torsions:
REMARK  status: ('A' for Active; 'I' for Inactive)
REMARK    1  A    between atoms: C_1  and  C_2
REMARK    2  A    between atoms: C_2  and  C_3
REMARK    3  A    between atoms: C_3  and  C_4
REMARK    4  A    between atoms: C_4  and  O_5
REMARK    5  A    between atoms: O_5  and  N_6
REMARK    6  A    between atoms: C_7  and  C_8
REMARK    7  A    between atoms: C_7  and  C_9
REMARK    8  A    between atoms: C_10  and  C_11
REMARK    9  A    between atoms: C_12  and  C_13
REMARK   10  A    between atoms: C_17  and  C_18
REMARK   11  A    between atoms: C_17  and  C_19
REMARK                            x       y       z     vdW  Elec       q    Type
REMARK                         _______ _______ _______ _____ _____    ______ ____
ROOT
ATOM      1  C   UNL     1       5.787   4.315  18.705  0.00  0.00    +0.000 C 
ATOM      2  C   UNL     1       4.882   4.929  19.478  0.00  0.00    +0.000 C 
ENDROOT
BRANCH   2   3
ATOM      3  C   UNL     1       3.615   4.240  19.943  0.00  0.00    +0.000 C 
ATOM      4  C   UNL     1       3.669   2.790  19.492  0.00  0.00    +0.000 C 
ATOM      5  C   UNL     1       4.687   1.911  20.170  0.00  0.00    +0.000 C 
ATOM      6  C   UNL     1       2.879   2.312  18.506  0.00  0.00    +0.000 C 
ATOM      7  C   UNL     1       1.890   3.149  17.750  0.00  0.00    +0.000 C 
ATOM      8  C   UNL     1       2.059   4.656  17.976  0.00  0.00    +0.000 C 
ATOM      9  C   UNL     1       2.334   5.007  19.457  0.00  0.00    +0.000 C 
ATOM     10  C   UNL     1       1.116   4.611  20.326  0.00  0.00    +0.000 C 
ATOM     11  C   UNL     1       2.503   6.537  19.606  0.00  0.00    +0.000 C 
ENDBRANCH   2   3
BRANCH   1  13
ATOM     12  N   UNL     1       7.649   4.742  17.133  0.00  0.00    +0.000 NA
ATOM     13  C   UNL     1       7.073   4.945  18.282  0.00  0.00    +0.000 C 
ATOM     14  C   UNL     1       7.791   5.830  19.277  0.00  0.00    +0.000 C 
BRANCH  12  15
ATOM     15  O   UNL     1       6.876   3.893  16.328  0.00  0.00    +0.000 OA
BRANCH  15  16
ATOM     16  C   UNL     1       6.664   4.508  15.058  0.00  0.00    +0.000 C 
BRANCH  16  17
ATOM     17  C   UNL     1       5.256   5.098  15.070  0.00  0.00    +0.000 C 
BRANCH  17  19
ATOM     18  C   UNL     1       4.563   6.968  16.601  0.00  0.00    +0.000 C 
ATOM     19  C   UNL     1       5.264   6.606  15.301  0.00  0.00    +0.000 C 
ENDBRANCH  17  19
ENDBRANCH  16  17
ENDBRANCH  15  16
ENDBRANCH  12  15
ENDBRANCH   1  13
TORSDOF 6
ENDMDL
MODEL 9
REMARK VINA RESULT:      -6.7      1.042      1.235
REMARK  Name = 
REMARK  11 active torsions:
REMARK  status: ('A' for Active; 'I' for Inactive)
REMARK    1  A    between atoms: C_1  and  C_2
REMARK    2  A    between atoms: C_2  and  C_3
REMARK    3  A    between atoms: C_3  and  C_4
REMARK    4  A    between atoms: C_4  and  O_5
REMARK    5  A    between atoms: O_5  and  N_6
REMARK    6  A    between atoms: C_7  and  C_8
REMARK    7  A    between atoms: C_7  and  C_9
REMARK    8  A    between atoms: C_10  and  C_11
REMARK    9  A    between atoms: C_12  and  C_13
REMARK   10  A    between atoms: C_17  and  C_18
REMARK   11  A    between atoms: C_17  and  C_19
REMARK                            x       y       z     vdW  Elec       q    Type
REMARK                         _______ _______ _______ _____ _____    ______ ____
ROOT
ATOM      1  C   UNL     1       5.567   5.006  18.119  0.00  0.00    +0.000 C 
ATOM      2  C   UNL     1       4.642   5.723  17.466  0.00  0.00    +0.000 C 
ENDROOT
BRANCH   2   3
ATOM      3  C   UNL     1       3.158   5.543  17.713  0.00  0.00    +0.000 C 
ATOM      4  C   UNL     1       2.688   6.660  18.629  0.00  0.00    +0.000 C 
ATOM      5  C   UNL     1       2.672   8.049  18.045  0.00  0.00    +0.000 C 
ATOM      6  C   UNL     1       2.341   6.439  19.915  0.00  0.00    +0.000 C 
ATOM      7  C   UNL     1       2.395   5.092  20.574  0.00  0.00    +0.000 C 
ATOM      8  C   UNL     1       3.161   4.040  19.764  0.00  0.00    +0.000 C 
ATOM      9  C   UNL     1       2.837   4.104  18.252  0.00  0.00    +0.000 C 
ATOM     10  C   UNL     1       1.343   3.770  18.021  0.00  0.00    +0.000 C 
ATOM     11  C   UNL     1       3.651   3.025  17.500  0.00  0.00    +0.000 C 
ENDBRANCH   2   3
BRANCH   1  13
ATOM     12  N   UNL     1       7.739   4.679  16.982  0.00  0.00    +0.000 NA
ATOM     13  C   UNL     1       7.036   5.202  17.945  0.00  0.00    +0.000 C 
ATOM     14  C   UNL     1       7.774   6.009  18.990  0.00  0.00    +0.000 C 
BRANCH  12  15
ATOM     15  O   UNL     1       6.923   3.950  16.104  0.00  0.00    +0.000 OA
BRANCH  15  16
ATOM     16  C   UNL     1       6.948   4.563  14.816  0.00  0.00    +0.000 C 
BRANCH  16  17
ATOM     17  C   UNL     1       5.641   4.200  14.117  0.00  0.00    +0.000 C 
BRANCH  17  19
ATOM     18  C   UNL     1       7.122   4.074  12.089  0.00  0.00    +0.000 C 
ATOM     19  C   UNL     1       5.875   3.528  12.768  0.00  0.00    +0.000 C 
ENDBRANCH  17  19
ENDBRANCH  16  17
ENDBRANCH  15  16
ENDBRANCH  12  15
ENDBRANCH   1  13
TORSDOF 6
ENDMDL
