MODEL 1
REMARK VINA RESULT:      -8.5      0.000      0.000
REMARK  Name = 
REMARK  10 active torsions:
REMARK  status: ('A' for Active; 'I' for Inactive)
REMARK    1  A    between atoms: C_1  and  C_2
REMARK    2  A    between atoms: C_2  and  C_3
REMARK    3  A    between atoms: C_8  and  N_9
REMARK    4  A    between atoms: N_12  and  C_13
REMARK    5  A    between atoms: C_13  and  C_14
REMARK    6  A    between atoms: C_14  and  C_15
REMARK    7  A    between atoms: C_15  and  C_16
REMARK    8  A    between atoms: C_16  and  C_18
REMARK    9  A    between atoms: C_21  and  N_22
REMARK   10  A    between atoms: C_23  and  C_25
REMARK                            x       y       z     vdW  Elec       q    Type
REMARK                         _______ _______ _______ _____ _____    ______ ____
ROOT
ATOM      1  C   UNL     1       2.121   6.904  19.671  0.00  0.00    +0.000 C 
ATOM      2  O   UNL     1       2.604   6.939  18.540  0.00  0.00    +0.000 OA
ENDROOT
BRANCH   1   3
ATOM      3  C   UNL     1       1.591   8.153  20.268  0.00  0.00    +0.000 A 
ATOM      4  C   UNL     1       1.230   9.186  19.404  0.00  0.00    +0.000 A 
ATOM      5  C   UNL     1       0.698  10.369  19.915  0.00  0.00    +0.000 A 
ATOM      6  C   UNL     1       0.509  10.531  21.289  0.00  0.00    +0.000 A 
ATOM      7  C   UNL     1       0.903   9.505  22.155  0.00  0.00    +0.000 A 
ATOM      8  C   UNL     1       1.432   8.312  21.647  0.00  0.00    +0.000 A 
BRANCH   6   9
ATOM      9  N   UNL     1      -0.044  11.701  21.851  0.00  0.00    +0.000 N 
ATOM     10  C   UNL     1      -1.081  11.735  22.769  0.00  0.00    +0.000 C 
ATOM     11  O   UNL     1      -1.580  10.762  23.323  0.00  0.00    +0.000 OA
ATOM     12  H   UNL     1       0.378  12.573  21.560  0.00  0.00    +0.000 HD
BRANCH  10  13
ATOM     13  C   UNL     1      -1.647  13.070  23.099  0.00  0.00    +0.000 A 
ATOM     14  C   UNL     1      -2.925  13.092  23.683  0.00  0.00    +0.000 A 
ATOM     15  C   UNL     1      -3.545  14.301  23.997  0.00  0.00    +0.000 A 
ATOM     16  C   UNL     1      -2.885  15.497  23.732  0.00  0.00    +0.000 A 
ATOM     17 CL   UNL     1      -3.650  16.991  24.100  0.00  0.00    +0.000 Cl
ATOM     18  C   UNL     1      -1.607  15.492  23.174  0.00  0.00    +0.000 A 
ATOM     19  C   UNL     1      -0.981  14.280  22.859  0.00  0.00    +0.000 A 
ENDBRANCH  10  13
ENDBRANCH   6   9
ENDBRANCH   1   3
BRANCH   1  20
ATOM     20  C   UNL     1       2.049   5.628  20.482  0.00  0.00    +0.000 C 
BRANCH  20  21
ATOM     21  C   UNL     1       1.545   4.468  19.624  0.00  0.00    +0.000 C 
BRANCH  21  22
ATOM     22  C   UNL     1       1.935   3.092  20.189  0.00  0.00    +0.000 C 
BRANCH  22  26
ATOM     23  N   UNL     1       4.382   3.935  17.679  0.00  0.00    +0.000 N 
ATOM     24  C   UNL     1       2.928   3.997  17.440  0.00  0.00    +0.000 C 
ATOM     25  C   UNL     1       2.261   2.647  17.789  0.00  0.00    +0.000 C 
ATOM     26  N   UNL     1       2.510   2.186  19.175  0.00  0.00    +0.000 NA
ATOM     27  C   UNL     1       3.982   2.090  19.336  0.00  0.00    +0.000 C 
ATOM     28  C   UNL     1       4.777   3.370  18.984  0.00  0.00    +0.000 C 
BRANCH  23  34
ATOM     29  C   UNL     1       6.452   5.070  16.890  0.00  0.00    +0.000 A 
ATOM     30  C   UNL     1       7.366   5.261  15.822  0.00  0.00    +0.000 A 
ATOM     31  C   UNL     1       7.127   4.759  14.550  0.00  0.00    +0.000 A 
ATOM     32  C   UNL     1       5.981   4.025  14.322  0.00  0.00    +0.000 A 
ATOM     33  C   UNL     1       5.106   3.766  15.380  0.00  0.00    +0.000 A 
ATOM     34  C   UNL     1       5.301   4.263  16.692  0.00  0.00    +0.000 A 
BRANCH  29  36
ATOM     35  C   UNL     1       7.589   7.092  17.944  0.00  0.00    +0.000 C 
ATOM     36  C   UNL     1       6.782   5.818  18.171  0.00  0.00    +0.000 C 
ENDBRANCH  29  36
ENDBRANCH  23  34
ENDBRANCH  22  26
ENDBRANCH  21  22
ENDBRANCH  20  21
ENDBRANCH   1  20
TORSDOF 9
ENDMDL
MODEL 2
REMARK VINA RESULT:      -8.5      2.077      2.593
REMARK  Name = 
REMARK  10 active torsions:
REMARK  status: ('A' for Active; 'I' for Inactive)
REMARK    1  A    between atoms: C_1  and  C_2
REMARK    2  A    between atoms: C_2  and  C_3
REMARK    3  A    between atoms: C_8  and  N_9
REMARK    4  A    between atoms: N_12  and  C_13
REMARK    5  A    between atoms: C_13  and  C_14
REMARK    6  A    between atoms: C_14  and  C_15
REMARK    7  A    between atoms: C_15  and  C_16
REMARK    8  A    between atoms: C_16  and  C_18
REMARK    9  A    between atoms: C_21  and  N_22
REMARK   10  A    between atoms: C_23  and  C_25
REMARK                            x       y       z     vdW  Elec       q    Type
REMARK                         _______ _______ _______ _____ _____    ______ ____
ROOT
ATOM      1  C   UNL     1       2.461   6.518  19.965  0.00  0.00    +0.000 C 
ATOM      2  O   UNL     1       3.595   6.352  19.521  0.00  0.00    +0.000 OA
ENDROOT
BRANCH   1   3
ATOM      3  C   UNL     1       1.818   7.847  19.824  0.00  0.00    +0.000 A 
ATOM      4  C   UNL     1       1.277   8.433  20.968  0.00  0.00    +0.000 A 
ATOM      5  C   UNL     1       0.689   9.695  20.893  0.00  0.00    +0.000 A 
ATOM      6  C   UNL     1       0.644  10.390  19.682  0.00  0.00    +0.000 A 
ATOM      7  C   UNL     1       1.158   9.784  18.530  0.00  0.00    +0.000 A 
ATOM      8  C   UNL     1       1.756   8.520  18.601  0.00  0.00    +0.000 A 
BRANCH   6   9
ATOM      9  N   UNL     1       0.077  11.677  19.562  0.00  0.00    +0.000 N 
ATOM     10  C   UNL     1       0.764  12.871  19.710  0.00  0.00    +0.000 C 
ATOM     11  O   UNL     1       1.978  12.988  19.839  0.00  0.00    +0.000 OA
ATOM     12  H   UNL     1      -0.907  11.707  19.329  0.00  0.00    +0.000 HD
BRANCH  10  13
ATOM     13  C   UNL     1      -0.046  14.118  19.732  0.00  0.00    +0.000 A 
ATOM     14  C   UNL     1       0.307  15.120  18.812  0.00  0.00    +0.000 A 
ATOM     15  C   UNL     1      -0.379  16.334  18.781  0.00  0.00    +0.000 A 
ATOM     16  C   UNL     1      -1.426  16.549  19.673  0.00  0.00    +0.000 A 
ATOM     17 CL   UNL     1      -2.265  18.049  19.654  0.00  0.00    +0.000 Cl
ATOM     18  C   UNL     1      -1.804  15.556  20.576  0.00  0.00    +0.000 A 
ATOM     19  C   UNL     1      -1.118  14.336  20.607  0.00  0.00    +0.000 A 
ENDBRANCH  10  13
ENDBRANCH   6   9
ENDBRANCH   1   3
BRANCH   1  20
ATOM     20  C   UNL     1       1.690   5.414  20.655  0.00  0.00    +0.000 C 
BRANCH  20  21
ATOM     21  C   UNL     1       2.477   4.103  20.624  0.00  0.00    +0.000 C 
BRANCH  21  22
ATOM     22  C   UNL     1       1.701   2.955  19.957  0.00  0.00    +0.000 C 
BRANCH  22  26
ATOM     23  N   UNL     1       4.270   3.836  17.587  0.00  0.00    +0.000 N 
ATOM     24  C   UNL     1       2.876   3.553  17.197  0.00  0.00    +0.000 C 
ATOM     25  C   UNL     1       2.428   2.177  17.737  0.00  0.00    +0.000 C 
ATOM     26  N   UNL     1       2.566   2.025  19.205  0.00  0.00    +0.000 NA
ATOM     27  C   UNL     1       3.994   2.264  19.528  0.00  0.00    +0.000 C 
ATOM     28  C   UNL     1       4.581   3.600  19.010  0.00  0.00    +0.000 C 
BRANCH  23  34
ATOM     29  C   UNL     1       6.511   4.719  16.960  0.00  0.00    +0.000 A 
ATOM     30  C   UNL     1       7.452   4.935  15.920  0.00  0.00    +0.000 A 
ATOM     31  C   UNL     1       7.139   4.715  14.586  0.00  0.00    +0.000 A 
ATOM     32  C   UNL     1       5.884   4.241  14.261  0.00  0.00    +0.000 A 
ATOM     33  C   UNL     1       4.970   3.954  15.278  0.00  0.00    +0.000 A 
ATOM     34  C   UNL     1       5.240   4.170  16.652  0.00  0.00    +0.000 A 
BRANCH  29  36
ATOM     35  C   UNL     1       7.710   6.486  18.349  0.00  0.00    +0.000 C 
ATOM     36  C   UNL     1       6.957   5.160  18.343  0.00  0.00    +0.000 C 
ENDBRANCH  29  36
ENDBRANCH  23  34
ENDBRANCH  22  26
ENDBRANCH  21  22
ENDBRANCH  20  21
ENDBRANCH   1  20
TORSDOF 9
ENDMDL
MODEL 3
REMARK VINA RESULT:      -8.4      2.489      3.248
REMARK  Name = 
REMARK  10 active torsions:
REMARK  status: ('A' for Active; 'I' for Inactive)
REMARK    1  A    between atoms: C_1  and  C_2
REMARK    2  A    between atoms: C_2  and  C_3
REMARK    3  A    between atoms: C_8  and  N_9
REMARK    4  A    between atoms: N_12  and  C_13
REMARK    5  A    between atoms: C_13  and  C_14
REMARK    6  A    between atoms: C_14  and  C_15
REMARK    7  A    between atoms: C_15  and  C_16
REMARK    8  A    between atoms: C_16  and  C_18
REMARK    9  A    between atoms: C_21  and  N_22
REMARK   10  A    between atoms: C_23  and  C_25
REMARK                            x       y       z     vdW  Elec       q    Type
REMARK                         _______ _______ _______ _____ _____    ______ ____
ROOT
ATOM      1  C   UNL     1       1.689   4.869  20.816  0.00  0.00    +0.000 C 
ATOM      2  O   UNL     1       2.720   4.459  21.347  0.00  0.00    +0.000 OA
ENDROOT
BRANCH   1   3
ATOM      3  C   UNL     1       1.545   6.319  20.545  0.00  0.00    +0.000 A 
ATOM      4  C   UNL     1       2.211   6.844  19.437  0.00  0.00    +0.000 A 
ATOM      5  C   UNL     1       2.083   8.196  19.122  0.00  0.00    +0.000 A 
ATOM      6  C   UNL     1       1.283   9.037  19.900  0.00  0.00    +0.000 A 
ATOM      7  C   UNL     1       0.643   8.514  21.029  0.00  0.00    +0.000 A 
ATOM      8  C   UNL     1       0.763   7.155  21.346  0.00  0.00    +0.000 A 
BRANCH   6   9
ATOM      9  N   UNL     1       1.107  10.407  19.609  0.00  0.00    +0.000 N 
ATOM     10  C   UNL     1       0.962  11.412  20.551  0.00  0.00    +0.000 C 
ATOM     11  O   UNL     1       1.093  11.284  21.764  0.00  0.00    +0.000 OA
ATOM     12  H   UNL     1       1.109  10.654  18.628  0.00  0.00    +0.000 HD
BRANCH  10  13
ATOM     13  C   UNL     1       0.601  12.763  20.046  0.00  0.00    +0.000 A 
ATOM     14  C   UNL     1       0.029  12.830  18.764  0.00  0.00    +0.000 A 
ATOM     15  C   UNL     1      -0.314  14.058  18.198  0.00  0.00    +0.000 A 
ATOM     16  C   UNL     1      -0.087  15.228  18.918  0.00  0.00    +0.000 A 
ATOM     17 CL   UNL     1      -0.489  16.747  18.220  0.00  0.00    +0.000 Cl
ATOM     18  C   UNL     1       0.458  15.177  20.200  0.00  0.00    +0.000 A 
ATOM     19  C   UNL     1       0.801  13.946  20.771  0.00  0.00    +0.000 A 
ENDBRANCH  10  13
ENDBRANCH   6   9
ENDBRANCH   1   3
BRANCH   1  20
ATOM     20  C   UNL     1       0.554   3.946  20.428  0.00  0.00    +0.000 C 
BRANCH  20  21
ATOM     21  C   UNL     1       0.811   3.319  19.058  0.00  0.00    +0.000 C 
BRANCH  21  22
ATOM     22  C   UNL     1       1.549   1.973  19.145  0.00  0.00    +0.000 C 
BRANCH  22  26
ATOM     23  N   UNL     1       4.461   3.952  18.376  0.00  0.00    +0.000 N 
ATOM     24  C   UNL     1       3.136   4.201  17.777  0.00  0.00    +0.000 C 
ATOM     25  C   UNL     1       2.585   2.916  17.120  0.00  0.00    +0.000 C 
ATOM     26  N   UNL     1       2.498   1.754  18.037  0.00  0.00    +0.000 NA
ATOM     27  C   UNL     1       3.866   1.518  18.560  0.00  0.00    +0.000 C 
ATOM     28  C   UNL     1       4.550   2.742  19.216  0.00  0.00    +0.000 C 
BRANCH  23  34
ATOM     29  C   UNL     1       6.082   4.913  16.749  0.00  0.00    +0.000 A 
ATOM     30  C   UNL     1       7.164   5.806  16.540  0.00  0.00    +0.000 A 
ATOM     31  C   UNL     1       7.806   6.444  17.594  0.00  0.00    +0.000 A 
ATOM     32  C   UNL     1       7.359   6.229  18.881  0.00  0.00    +0.000 A 
ATOM     33  C   UNL     1       6.249   5.409  19.098  0.00  0.00    +0.000 A 
ATOM     34  C   UNL     1       5.566   4.730  18.058  0.00  0.00    +0.000 A 
BRANCH  29  36
ATOM     35  C   UNL     1       6.489   4.381  14.291  0.00  0.00    +0.000 C 
ATOM     36  C   UNL     1       5.598   4.177  15.512  0.00  0.00    +0.000 C 
ENDBRANCH  29  36
ENDBRANCH  23  34
ENDBRANCH  22  26
ENDBRANCH  21  22
ENDBRANCH  20  21
ENDBRANCH   1  20
TORSDOF 9
ENDMDL
MODEL 4
REMARK VINA RESULT:      -8.2      6.165     10.060
REMARK  Name = 
REMARK  10 active torsions:
REMARK  status: ('A' for Active; 'I' for Inactive)
REMARK    1  A    between atoms: C_1  and  C_2
REMARK    2  A    between atoms: C_2  and  C_3
REMARK    3  A    between atoms: C_8  and  N_9
REMARK    4  A    between atoms: N_12  and  C_13
REMARK    5  A    between atoms: C_13  and  C_14
REMARK    6  A    between atoms: C_14  and  C_15
REMARK    7  A    between atoms: C_15  and  C_16
REMARK    8  A    between atoms: C_16  and  C_18
REMARK    9  A    between atoms: C_21  and  N_22
REMARK   10  A    between atoms: C_23  and  C_25
REMARK                            x       y       z     vdW  Elec       q    Type
REMARK                         _______ _______ _______ _____ _____    ______ ____
ROOT
ATOM      1  C   UNL     1       1.595  14.077  18.678  0.00  0.00    +0.000 C 
ATOM      2  O   UNL     1       0.587  14.739  18.915  0.00  0.00    +0.000 OA
ENDROOT
BRANCH   1   3
ATOM      3  C   UNL     1       1.556  12.608  18.871  0.00  0.00    +0.000 A 
ATOM      4  C   UNL     1       2.196  11.809  17.923  0.00  0.00    +0.000 A 
ATOM      5  C   UNL     1       2.213  10.423  18.076  0.00  0.00    +0.000 A 
ATOM      6  C   UNL     1       1.602   9.820  19.179  0.00  0.00    +0.000 A 
ATOM      7  C   UNL     1       0.934  10.623  20.110  0.00  0.00    +0.000 A 
ATOM      8  C   UNL     1       0.920  12.015  19.964  0.00  0.00    +0.000 A 
BRANCH   6   9
ATOM      9  N   UNL     1       1.611   8.424  19.386  0.00  0.00    +0.000 N 
ATOM     10  C   UNL     1       2.444   7.525  18.741  0.00  0.00    +0.000 C 
ATOM     11  O   UNL     1       3.375   7.815  17.998  0.00  0.00    +0.000 OA
ATOM     12  H   UNL     1       0.962   8.077  20.080  0.00  0.00    +0.000 HD
BRANCH  10  13
ATOM     13  C   UNL     1       2.172   6.079  18.958  0.00  0.00    +0.000 A 
ATOM     14  C   UNL     1       2.396   5.220  17.868  0.00  0.00    +0.000 A 
ATOM     15  C   UNL     1       2.140   3.853  17.973  0.00  0.00    +0.000 A 
ATOM     16  C   UNL     1       1.659   3.338  19.173  0.00  0.00    +0.000 A 
ATOM     17 CL   UNL     1       1.323   1.657  19.305  0.00  0.00    +0.000 Cl
ATOM     18  C   UNL     1       1.454   4.173  20.271  0.00  0.00    +0.000 A 
ATOM     19  C   UNL     1       1.713   5.545  20.170  0.00  0.00    +0.000 A 
ENDBRANCH  10  13
ENDBRANCH   6   9
ENDBRANCH   1   3
BRANCH   1  20
ATOM     20  C   UNL     1       2.884  14.707  18.196  0.00  0.00    +0.000 C 
BRANCH  20  21
ATOM     21  C   UNL     1       3.464  15.638  19.261  0.00  0.00    +0.000 C 
BRANCH  21  22
ATOM     22  C   UNL     1       4.779  15.114  19.861  0.00  0.00    +0.000 C 
BRANCH  22  26
ATOM     23  N   UNL     1       8.028  13.975  18.792  0.00  0.00    +0.000 N 
ATOM     24  C   UNL     1       7.686  14.227  20.205  0.00  0.00    +0.000 C 
ATOM     25  C   UNL     1       7.124  15.656  20.383  0.00  0.00    +0.000 C 
ATOM     26  N   UNL     1       5.947  15.955  19.533  0.00  0.00    +0.000 NA
ATOM     27  C   UNL     1       6.367  15.739  18.127  0.00  0.00    +0.000 C 
ATOM     28  C   UNL     1       6.984  14.353  17.820  0.00  0.00    +0.000 C 
BRANCH  23  34
ATOM     29  C   UNL     1      10.426  14.374  18.260  0.00  0.00    +0.000 A 
ATOM     30  C   UNL     1      11.685  13.796  17.951  0.00  0.00    +0.000 A 
ATOM     31  C   UNL     1      11.828  12.438  17.696  0.00  0.00    +0.000 A 
ATOM     32  C   UNL     1      10.721  11.619  17.776  0.00  0.00    +0.000 A 
ATOM     33  C   UNL     1       9.488  12.161  18.149  0.00  0.00    +0.000 A 
ATOM     34  C   UNL     1       9.289  13.539  18.410  0.00  0.00    +0.000 A 
BRANCH  29  36
ATOM     35  C   UNL     1      10.296  16.583  16.998  0.00  0.00    +0.000 C 
ATOM     36  C   UNL     1      10.411  15.890  18.352  0.00  0.00    +0.000 C 
ENDBRANCH  29  36
ENDBRANCH  23  34
ENDBRANCH  22  26
ENDBRANCH  21  22
ENDBRANCH  20  21
ENDBRANCH   1  20
TORSDOF 9
ENDMDL
MODEL 5
REMARK VINA RESULT:      -8.2      1.281      1.338
REMARK  Name = 
REMARK  10 active torsions:
REMARK  status: ('A' for Active; 'I' for Inactive)
REMARK    1  A    between atoms: C_1  and  C_2
REMARK    2  A    between atoms: C_2  and  C_3
REMARK    3  A    between atoms: C_8  and  N_9
REMARK    4  A    between atoms: N_12  and  C_13
REMARK    5  A    between atoms: C_13  and  C_14
REMARK    6  A    between atoms: C_14  and  C_15
REMARK    7  A    between atoms: C_15  and  C_16
REMARK    8  A    between atoms: C_16  and  C_18
REMARK    9  A    between atoms: C_21  and  N_22
REMARK   10  A    between atoms: C_23  and  C_25
REMARK                            x       y       z     vdW  Elec       q    Type
REMARK                         _______ _______ _______ _____ _____    ______ ____
ROOT
ATOM      1  C   UNL     1       2.176   7.043  19.880  0.00  0.00    +0.000 C 
ATOM      2  O   UNL     1       3.081   7.041  19.047  0.00  0.00    +0.000 OA
ENDROOT
BRANCH   1   3
ATOM      3  C   UNL     1       1.409   8.291  20.108  0.00  0.00    +0.000 A 
ATOM      4  C   UNL     1       1.340   9.213  19.064  0.00  0.00    +0.000 A 
ATOM      5  C   UNL     1       0.605  10.387  19.219  0.00  0.00    +0.000 A 
ATOM      6  C   UNL     1      -0.076  10.651  20.410  0.00  0.00    +0.000 A 
ATOM      7  C   UNL     1       0.023   9.739  21.466  0.00  0.00    +0.000 A 
ATOM      8  C   UNL     1       0.754   8.555  21.314  0.00  0.00    +0.000 A 
BRANCH   6   9
ATOM      9  N   UNL     1      -0.848  11.816  20.605  0.00  0.00    +0.000 N 
ATOM     10  C   UNL     1      -0.342  13.067  20.923  0.00  0.00    +0.000 C 
ATOM     11  O   UNL     1       0.844  13.374  20.953  0.00  0.00    +0.000 OA
ATOM     12  H   UNL     1      -1.846  11.711  20.480  0.00  0.00    +0.000 HD
BRANCH  10  13
ATOM     13  C   UNL     1      -1.328  14.124  21.272  0.00  0.00    +0.000 A 
ATOM     14  C   UNL     1      -2.159  13.878  22.378  0.00  0.00    +0.000 A 
ATOM     15  C   UNL     1      -3.132  14.802  22.759  0.00  0.00    +0.000 A 
ATOM     16  C   UNL     1      -3.276  15.981  22.033  0.00  0.00    +0.000 A 
ATOM     17 CL   UNL     1      -4.485  17.116  22.485  0.00  0.00    +0.000 Cl
ATOM     18  C   UNL     1      -2.445  16.250  20.947  0.00  0.00    +0.000 A 
ATOM     19  C   UNL     1      -1.465  15.326  20.564  0.00  0.00    +0.000 A 
ENDBRANCH  10  13
ENDBRANCH   6   9
ENDBRANCH   1   3
BRANCH   1  20
ATOM     20  C   UNL     1       1.815   5.816  20.688  0.00  0.00    +0.000 C 
BRANCH  20  21
ATOM     21  C   UNL     1       1.511   4.632  19.768  0.00  0.00    +0.000 C 
BRANCH  21  22
ATOM     22  C   UNL     1       2.059   3.301  20.307  0.00  0.00    +0.000 C 
BRANCH  22  26
ATOM     23  N   UNL     1       4.401   4.096  17.684  0.00  0.00    +0.000 N 
ATOM     24  C   UNL     1       2.940   4.223  17.527  0.00  0.00    +0.000 C 
ATOM     25  C   UNL     1       2.235   2.896  17.884  0.00  0.00    +0.000 C 
ATOM     26  N   UNL     1       2.539   2.394  19.246  0.00  0.00    +0.000 NA
ATOM     27  C   UNL     1       4.011   2.232  19.324  0.00  0.00    +0.000 C 
ATOM     28  C   UNL     1       4.841   3.485  18.954  0.00  0.00    +0.000 C 
BRANCH  23  34
ATOM     29  C   UNL     1       6.320   5.368  16.739  0.00  0.00    +0.000 A 
ATOM     30  C   UNL     1       7.210   5.533  15.646  0.00  0.00    +0.000 A 
ATOM     31  C   UNL     1       7.043   4.848  14.450  0.00  0.00    +0.000 A 
ATOM     32  C   UNL     1       5.998   3.956  14.328  0.00  0.00    +0.000 A 
ATOM     33  C   UNL     1       5.154   3.728  15.419  0.00  0.00    +0.000 A 
ATOM     34  C   UNL     1       5.279   4.407  16.655  0.00  0.00    +0.000 A 
BRANCH  29  36
ATOM     35  C   UNL     1       7.759   5.941  18.761  0.00  0.00    +0.000 C 
ATOM     36  C   UNL     1       6.546   6.307  17.911  0.00  0.00    +0.000 C 
ENDBRANCH  29  36
ENDBRANCH  23  34
ENDBRANCH  22  26
ENDBRANCH  21  22
ENDBRANCH  20  21
ENDBRANCH   1  20
TORSDOF 9
ENDMDL
MODEL 6
REMARK VINA RESULT:      -8.1      5.088     10.974
REMARK  Name = 
REMARK  10 active torsions:
REMARK  status: ('A' for Active; 'I' for Inactive)
REMARK    1  A    between atoms: C_1  and  C_2
REMARK    2  A    between atoms: C_2  and  C_3
REMARK    3  A    between atoms: C_8  and  N_9
REMARK    4  A    between atoms: N_12  and  C_13
REMARK    5  A    between atoms: C_13  and  C_14
REMARK    6  A    between atoms: C_14  and  C_15
REMARK    7  A    between atoms: C_15  and  C_16
REMARK    8  A    between atoms: C_16  and  C_18
REMARK    9  A    between atoms: C_21  and  N_22
REMARK   10  A    between atoms: C_23  and  C_25
REMARK                            x       y       z     vdW  Elec       q    Type
REMARK                         _______ _______ _______ _____ _____    ______ ____
ROOT
ATOM      1  C   UNL     1      -3.226  15.446  24.810  0.00  0.00    +0.000 C 
ATOM      2  O   UNL     1      -2.571  16.095  25.623  0.00  0.00    +0.000 OA
ENDROOT
BRANCH   1   3
ATOM      3  C   UNL     1      -2.552  14.388  24.021  0.00  0.00    +0.000 A 
ATOM      4  C   UNL     1      -3.184  13.149  23.917  0.00  0.00    +0.000 A 
ATOM      5  C   UNL     1      -2.604  12.132  23.160  0.00  0.00    +0.000 A 
ATOM      6  C   UNL     1      -1.396  12.340  22.492  0.00  0.00    +0.000 A 
ATOM      7  C   UNL     1      -0.748  13.573  22.625  0.00  0.00    +0.000 A 
ATOM      8  C   UNL     1      -1.329  14.601  23.378  0.00  0.00    +0.000 A 
BRANCH   6   9
ATOM      9  N   UNL     1      -0.781  11.347  21.699  0.00  0.00    +0.000 N 
ATOM     10  C   UNL     1      -0.033  10.287  22.183  0.00  0.00    +0.000 C 
ATOM     11  O   UNL     1       0.098   9.981  23.363  0.00  0.00    +0.000 OA
ATOM     12  H   UNL     1      -0.928  11.425  20.701  0.00  0.00    +0.000 HD
BRANCH  10  13
ATOM     13  C   UNL     1       0.686   9.456  21.182  0.00  0.00    +0.000 A 
ATOM     14  C   UNL     1       0.752   9.956  19.870  0.00  0.00    +0.000 A 
ATOM     15  C   UNL     1       1.381   9.229  18.859  0.00  0.00    +0.000 A 
ATOM     16  C   UNL     1       1.952   7.996  19.160  0.00  0.00    +0.000 A 
ATOM     17 CL   UNL     1       2.713   7.085  17.916  0.00  0.00    +0.000 Cl
ATOM     18  C   UNL     1       1.916   7.495  20.461  0.00  0.00    +0.000 A 
ATOM     19  C   UNL     1       1.287   8.224  21.477  0.00  0.00    +0.000 A 
ENDBRANCH  10  13
ENDBRANCH   6   9
ENDBRANCH   1   3
BRANCH   1  20
ATOM     20  C   UNL     1      -4.703  15.686  24.581  0.00  0.00    +0.000 C 
BRANCH  20  21
ATOM     21  C   UNL     1      -5.036  15.630  23.090  0.00  0.00    +0.000 C 
BRANCH  21  22
ATOM     22  C   UNL     1      -6.296  14.801  22.790  0.00  0.00    +0.000 C 
BRANCH  22  26
ATOM     23  N   UNL     1      -4.822  12.785  20.190  0.00  0.00    +0.000 N 
ATOM     24  C   UNL     1      -4.355  14.146  20.518  0.00  0.00    +0.000 C 
ATOM     25  C   UNL     1      -5.529  15.149  20.476  0.00  0.00    +0.000 C 
ATOM     26  N   UNL     1      -6.664  14.794  21.361  0.00  0.00    +0.000 NA
ATOM     27  C   UNL     1      -7.125  13.447  20.947  0.00  0.00    +0.000 C 
ATOM     28  C   UNL     1      -6.033  12.350  20.912  0.00  0.00    +0.000 C 
BRANCH  23  34
ATOM     29  C   UNL     1      -4.948  11.281  18.212  0.00  0.00    +0.000 A 
ATOM     30  C   UNL     1      -4.238  10.624  17.174  0.00  0.00    +0.000 A 
ATOM     31  C   UNL     1      -2.850  10.613  17.124  0.00  0.00    +0.000 A 
ATOM     32  C   UNL     1      -2.139  11.287  18.096  0.00  0.00    +0.000 A 
ATOM     33  C   UNL     1      -2.824  11.999  19.084  0.00  0.00    +0.000 A 
ATOM     34  C   UNL     1      -4.237  12.033  19.182  0.00  0.00    +0.000 A 
BRANCH  29  36
ATOM     35  C   UNL     1      -6.877   9.738  18.838  0.00  0.00    +0.000 C 
ATOM     36  C   UNL     1      -6.452  11.062  18.211  0.00  0.00    +0.000 C 
ENDBRANCH  29  36
ENDBRANCH  23  34
ENDBRANCH  22  26
ENDBRANCH  21  22
ENDBRANCH  20  21
ENDBRANCH   1  20
TORSDOF 9
ENDMDL
MODEL 7
REMARK VINA RESULT:      -8.1      4.148     12.980
REMARK  Name = 
REMARK  10 active torsions:
REMARK  status: ('A' for Active; 'I' for Inactive)
REMARK    1  A    between atoms: C_1  and  C_2
REMARK    2  A    between atoms: C_2  and  C_3
REMARK    3  A    between atoms: C_8  and  N_9
REMARK    4  A    between atoms: N_12  and  C_13
REMARK    5  A    between atoms: C_13  and  C_14
REMARK    6  A    between atoms: C_14  and  C_15
REMARK    7  A    between atoms: C_15  and  C_16
REMARK    8  A    between atoms: C_16  and  C_18
REMARK    9  A    between atoms: C_21  and  N_22
REMARK   10  A    between atoms: C_23  and  C_25
REMARK                            x       y       z     vdW  Elec       q    Type
REMARK                         _______ _______ _______ _____ _____    ______ ____
ROOT
ATOM      1  C   UNL     1       0.977   8.802  21.230  0.00  0.00    +0.000 C 
ATOM      2  O   UNL     1       1.457   8.852  22.361  0.00  0.00    +0.000 OA
ENDROOT
BRANCH   1   3
ATOM      3  C   UNL     1       1.708   8.072  20.167  0.00  0.00    +0.000 A 
ATOM      4  C   UNL     1       2.108   6.763  20.433  0.00  0.00    +0.000 A 
ATOM      5  C   UNL     1       2.772   6.024  19.454  0.00  0.00    +0.000 A 
ATOM      6  C   UNL     1       3.036   6.578  18.199  0.00  0.00    +0.000 A 
ATOM      7  C   UNL     1       2.663   7.903  17.948  0.00  0.00    +0.000 A 
ATOM      8  C   UNL     1       1.989   8.647  18.925  0.00  0.00    +0.000 A 
BRANCH   6   9
ATOM      9  N   UNL     1       3.688   5.863  17.171  0.00  0.00    +0.000 N 
ATOM     10  C   UNL     1       5.058   5.820  16.972  0.00  0.00    +0.000 C 
ATOM     11  O   UNL     1       5.908   6.283  17.726  0.00  0.00    +0.000 OA
ATOM     12  H   UNL     1       3.088   5.332  16.554  0.00  0.00    +0.000 HD
BRANCH  10  13
ATOM     13  C   UNL     1       5.538   5.166  15.726  0.00  0.00    +0.000 A 
ATOM     14  C   UNL     1       6.867   5.421  15.346  0.00  0.00    +0.000 A 
ATOM     15  C   UNL     1       7.392   4.873  14.175  0.00  0.00    +0.000 A 
ATOM     16  C   UNL     1       6.587   4.063  13.380  0.00  0.00    +0.000 A 
ATOM     17 CL   UNL     1       7.221   3.399  11.926  0.00  0.00    +0.000 Cl
ATOM     18  C   UNL     1       5.274   3.781  13.755  0.00  0.00    +0.000 A 
ATOM     19  C   UNL     1       4.745   4.328  14.930  0.00  0.00    +0.000 A 
ENDBRANCH  10  13
ENDBRANCH   6   9
ENDBRANCH   1   3
BRANCH   1  20
ATOM     20  C   UNL     1      -0.339   9.461  20.878  0.00  0.00    +0.000 C 
BRANCH  20  21
ATOM     21  C   UNL     1      -0.122  10.916  20.462  0.00  0.00    +0.000 C 
BRANCH  21  22
ATOM     22  C   UNL     1      -1.252  11.847  20.932  0.00  0.00    +0.000 C 
BRANCH  22  26
ATOM     23  N   UNL     1      -3.186  14.364  22.641  0.00  0.00    +0.000 N 
ATOM     24  C   UNL     1      -1.893  14.646  21.989  0.00  0.00    +0.000 C 
ATOM     25  C   UNL     1      -0.800  13.685  22.508  0.00  0.00    +0.000 C 
ATOM     26  N   UNL     1      -1.128  12.248  22.347  0.00  0.00    +0.000 NA
ATOM     27  C   UNL     1      -2.402  12.016  23.070  0.00  0.00    +0.000 C 
ATOM     28  C   UNL     1      -3.576  12.941  22.666  0.00  0.00    +0.000 C 
BRANCH  23  34
ATOM     29  C   UNL     1      -3.688  15.770  24.632  0.00  0.00    +0.000 A 
ATOM     30  C   UNL     1      -4.433  16.856  25.160  0.00  0.00    +0.000 A 
ATOM     31  C   UNL     1      -5.446  17.474  24.438  0.00  0.00    +0.000 A 
ATOM     32  C   UNL     1      -5.717  17.040  23.156  0.00  0.00    +0.000 A 
ATOM     33  C   UNL     1      -4.945  16.020  22.595  0.00  0.00    +0.000 A 
ATOM     34  C   UNL     1      -3.908  15.354  23.294  0.00  0.00    +0.000 A 
BRANCH  29  36
ATOM     35  C   UNL     1      -1.349  15.750  25.641  0.00  0.00    +0.000 C 
ATOM     36  C   UNL     1      -2.730  15.104  25.605  0.00  0.00    +0.000 C 
ENDBRANCH  29  36
ENDBRANCH  23  34
ENDBRANCH  22  26
ENDBRANCH  21  22
ENDBRANCH  20  21
ENDBRANCH   1  20
TORSDOF 9
ENDMDL
MODEL 8
REMARK VINA RESULT:      -8.0      4.700     10.936
REMARK  Name = 
REMARK  10 active torsions:
REMARK  status: ('A' for Active; 'I' for Inactive)
REMARK    1  A    between atoms: C_1  and  C_2
REMARK    2  A    between atoms: C_2  and  C_3
REMARK    3  A    between atoms: C_8  and  N_9
REMARK    4  A    between atoms: N_12  and  C_13
REMARK    5  A    between atoms: C_13  and  C_14
REMARK    6  A    between atoms: C_14  and  C_15
REMARK    7  A    between atoms: C_15  and  C_16
REMARK    8  A    between atoms: C_16  and  C_18
REMARK    9  A    between atoms: C_21  and  N_22
REMARK   10  A    between atoms: C_23  and  C_25
REMARK                            x       y       z     vdW  Elec       q    Type
REMARK                         _______ _______ _______ _____ _____    ______ ____
ROOT
ATOM      1  C   UNL     1      -0.850  12.086  22.575  0.00  0.00    +0.000 C 
ATOM      2  O   UNL     1      -0.229  13.147  22.575  0.00  0.00    +0.000 OA
ENDROOT
BRANCH   1   3
ATOM      3  C   UNL     1      -0.197  10.868  22.039  0.00  0.00    +0.000 A 
ATOM      4  C   UNL     1       0.384   9.986  22.950  0.00  0.00    +0.000 A 
ATOM      5  C   UNL     1       0.983   8.811  22.497  0.00  0.00    +0.000 A 
ATOM      6  C   UNL     1       1.001   8.498  21.136  0.00  0.00    +0.000 A 
ATOM      7  C   UNL     1       0.446   9.401  20.223  0.00  0.00    +0.000 A 
ATOM      8  C   UNL     1      -0.164  10.579  20.673  0.00  0.00    +0.000 A 
BRANCH   6   9
ATOM      9  N   UNL     1       1.578   7.312  20.634  0.00  0.00    +0.000 N 
ATOM     10  C   UNL     1       2.243   7.196  19.423  0.00  0.00    +0.000 C 
ATOM     11  O   UNL     1       2.539   8.123  18.676  0.00  0.00    +0.000 OA
ATOM     12  H   UNL     1       1.506   6.498  21.230  0.00  0.00    +0.000 HD
BRANCH  10  13
ATOM     13  C   UNL     1       2.615   5.825  18.986  0.00  0.00    +0.000 A 
ATOM     14  C   UNL     1       1.845   4.764  19.495  0.00  0.00    +0.000 A 
ATOM     15  C   UNL     1       2.142   3.443  19.162  0.00  0.00    +0.000 A 
ATOM     16  C   UNL     1       3.213   3.177  18.314  0.00  0.00    +0.000 A 
ATOM     17 CL   UNL     1       3.597   1.550  17.914  0.00  0.00    +0.000 Cl
ATOM     18  C   UNL     1       3.972   4.218  17.782  0.00  0.00    +0.000 A 
ATOM     19  C   UNL     1       3.675   5.546  18.113  0.00  0.00    +0.000 A 
ENDBRANCH  10  13
ENDBRANCH   6   9
ENDBRANCH   1   3
BRANCH   1  20
ATOM     20  C   UNL     1      -2.264  11.974  23.103  0.00  0.00    +0.000 C 
BRANCH  20  21
ATOM     21  C   UNL     1      -2.938  13.346  23.142  0.00  0.00    +0.000 C 
BRANCH  21  22
ATOM     22  C   UNL     1      -4.461  13.270  22.944  0.00  0.00    +0.000 C 
BRANCH  22  26
ATOM     23  N   UNL     1      -4.038  12.062  19.574  0.00  0.00    +0.000 N 
ATOM     24  C   UNL     1      -3.084  12.977  20.228  0.00  0.00    +0.000 C 
ATOM     25  C   UNL     1      -3.813  14.228  20.769  0.00  0.00    +0.000 C 
ATOM     26  N   UNL     1      -4.922  13.927  21.705  0.00  0.00    +0.000 NA
ATOM     27  C   UNL     1      -5.873  13.053  20.975  0.00  0.00    +0.000 C 
ATOM     28  C   UNL     1      -5.261  11.777  20.349  0.00  0.00    +0.000 C 
BRANCH  23  34
ATOM     29  C   UNL     1      -4.818  11.697  17.239  0.00  0.00    +0.000 A 
ATOM     30  C   UNL     1      -4.476  11.287  15.925  0.00  0.00    +0.000 A 
ATOM     31  C   UNL     1      -3.245  10.714  15.629  0.00  0.00    +0.000 A 
ATOM     32  C   UNL     1      -2.314  10.568  16.636  0.00  0.00    +0.000 A 
ATOM     33  C   UNL     1      -2.608  11.033  17.921  0.00  0.00    +0.000 A 
ATOM     34  C   UNL     1      -3.851  11.615  18.274  0.00  0.00    +0.000 A 
BRANCH  29  36
ATOM     35  C   UNL     1      -6.499  13.596  17.000  0.00  0.00    +0.000 C 
ATOM     36  C   UNL     1      -6.255  12.152  17.425  0.00  0.00    +0.000 C 
ENDBRANCH  29  36
ENDBRANCH  23  34
ENDBRANCH  22  26
ENDBRANCH  21  22
ENDBRANCH  20  21
ENDBRANCH   1  20
TORSDOF 9
ENDMDL
MODEL 9
REMARK VINA RESULT:      -8.0      2.849      3.635
REMARK  Name = 
REMARK  10 active torsions:
REMARK  status: ('A' for Active; 'I' for Inactive)
REMARK    1  A    between atoms: C_1  and  C_2
REMARK    2  A    between atoms: C_2  and  C_3
REMARK    3  A    between atoms: C_8  and  N_9
REMARK    4  A    between atoms: N_12  and  C_13
REMARK    5  A    between atoms: C_13  and  C_14
REMARK    6  A    between atoms: C_14  and  C_15
REMARK    7  A    between atoms: C_15  and  C_16
REMARK    8  A    between atoms: C_16  and  C_18
REMARK    9  A    between atoms: C_21  and  N_22
REMARK   10  A    between atoms: C_23  and  C_25
REMARK                            x       y       z     vdW  Elec       q    Type
REMARK                         _______ _______ _______ _____ _____    ______ ____
ROOT
ATOM      1  C   UNL     1       1.750   5.102  20.884  0.00  0.00    +0.000 C 
ATOM      2  O   UNL     1       2.668   4.676  21.583  0.00  0.00    +0.000 OA
ENDROOT
BRANCH   1   3
ATOM      3  C   UNL     1       1.596   6.566  20.708  0.00  0.00    +0.000 A 
ATOM      4  C   UNL     1       2.177   7.152  19.584  0.00  0.00    +0.000 A 
ATOM      5  C   UNL     1       2.034   8.520  19.358  0.00  0.00    +0.000 A 
ATOM      6  C   UNL     1       1.304   9.317  20.244  0.00  0.00    +0.000 A 
ATOM      7  C   UNL     1       0.751   8.731  21.388  0.00  0.00    +0.000 A 
ATOM      8  C   UNL     1       0.885   7.356  21.615  0.00  0.00    +0.000 A 
BRANCH   6   9
ATOM      9  N   UNL     1       1.116  10.702  20.047  0.00  0.00    +0.000 N 
ATOM     10  C   UNL     1       0.397  11.271  19.008  0.00  0.00    +0.000 C 
ATOM     11  O   UNL     1      -0.283  10.664  18.188  0.00  0.00    +0.000 OA
ATOM     12  H   UNL     1       1.531  11.307  20.742  0.00  0.00    +0.000 HD
BRANCH  10  13
ATOM     13  C   UNL     1       0.471  12.750  18.868  0.00  0.00    +0.000 A 
ATOM     14  C   UNL     1       1.737  13.301  18.603  0.00  0.00    +0.000 A 
ATOM     15  C   UNL     1       1.905  14.680  18.486  0.00  0.00    +0.000 A 
ATOM     16  C   UNL     1       0.802  15.517  18.631  0.00  0.00    +0.000 A 
ATOM     17 CL   UNL     1       1.003  17.219  18.507  0.00  0.00    +0.000 Cl
ATOM     18  C   UNL     1      -0.465  14.985  18.871  0.00  0.00    +0.000 A 
ATOM     19  C   UNL     1      -0.636  13.601  18.987  0.00  0.00    +0.000 A 
ENDBRANCH  10  13
ENDBRANCH   6   9
ENDBRANCH   1   3
BRANCH   1  20
ATOM     20  C   UNL     1       0.766   4.185  20.192  0.00  0.00    +0.000 C 
BRANCH  20  21
ATOM     21  C   UNL     1       1.411   2.834  19.879  0.00  0.00    +0.000 C 
BRANCH  21  22
ATOM     22  C   UNL     1       0.989   2.273  18.511  0.00  0.00    +0.000 C 
BRANCH  22  26
ATOM     23  N   UNL     1       4.149   3.994  18.309  0.00  0.00    +0.000 N 
ATOM     24  C   UNL     1       3.007   4.300  17.427  0.00  0.00    +0.000 C 
ATOM     25  C   UNL     1       2.506   3.020  16.721  0.00  0.00    +0.000 C 
ATOM     26  N   UNL     1       2.132   1.923  17.645  0.00  0.00    +0.000 NA
ATOM     27  C   UNL     1       3.333   1.623  18.462  0.00  0.00    +0.000 C 
ATOM     28  C   UNL     1       3.958   2.832  19.198  0.00  0.00    +0.000 C 
BRANCH  23  34
ATOM     29  C   UNL     1       6.038   4.937  16.990  0.00  0.00    +0.000 A 
ATOM     30  C   UNL     1       7.221   5.720  17.006  0.00  0.00    +0.000 A 
ATOM     31  C   UNL     1       7.795   6.163  18.191  0.00  0.00    +0.000 A 
ATOM     32  C   UNL     1       7.180   5.862  19.388  0.00  0.00    +0.000 A 
ATOM     33  C   UNL     1       5.975   5.153  19.386  0.00  0.00    +0.000 A 
ATOM     34  C   UNL     1       5.356   4.672  18.206  0.00  0.00    +0.000 A 
BRANCH  29  36
ATOM     35  C   UNL     1       6.734   4.500  14.579  0.00  0.00    +0.000 C 
ATOM     36  C   UNL     1       5.633   4.398  15.629  0.00  0.00    +0.000 C 
ENDBRANCH  29  36
ENDBRANCH  23  34
ENDBRANCH  22  26
ENDBRANCH  21  22
ENDBRANCH  20  21
ENDBRANCH   1  20
TORSDOF 9
ENDMDL
