MODEL 1
REMARK VINA RESULT:      -8.7      0.000      0.000
REMARK  Name = 
REMARK  6 active torsions:
REMARK  status: ('A' for Active; 'I' for Inactive)
REMARK    1  A    between atoms: C_1  and  C_2
REMARK    2  A    between atoms: C_3  and  C_4
REMARK    3  A    between atoms: C_4  and  O_5
REMARK    4  A    between atoms: O_5  and  C_6
REMARK    5  A    between atoms: C_15  and  C_16
REMARK    6  A    between atoms: C_16  and  C_18
REMARK                            x       y       z     vdW  Elec       q    Type
REMARK                         _______ _______ _______ _____ _____    ______ ____
ROOT
ATOM      1  C   UNL     1       6.362   4.372  14.593  0.00  0.00    +0.000 A 
ATOM      2  C   UNL     1       5.079   3.965  14.973  0.00  0.00    +0.000 A 
ATOM      3  C   UNL     1       4.582   4.266  16.252  0.00  0.00    +0.000 A 
ATOM      4  C   UNL     1       5.387   4.956  17.163  0.00  0.00    +0.000 A 
ATOM      5  C   UNL     1       6.701   5.287  16.806  0.00  0.00    +0.000 A 
ATOM      6  C   UNL     1       7.186   5.000  15.524  0.00  0.00    +0.000 A 
ATOM      7  C   UNL     1       7.556   6.022  17.800  0.00  0.00    +0.000 C 
ATOM      8  C   UNL     1       7.192   5.539  19.203  0.00  0.00    +0.000 C 
ATOM      9  N   UNL     1       5.761   5.698  19.476  0.00  0.00    +0.000 NA
ATOM     10  C   UNL     1       4.939   5.395  18.514  0.00  0.00    +0.000 C 
ENDROOT
BRANCH  10  11
ATOM     11  C   UNL     1       3.461   5.615  18.794  0.00  0.00    +0.000 C 
ATOM     12  O   UNL     1       2.968   6.704  18.517  0.00  0.00    +0.000 OA
BRANCH  11  13
ATOM     13  C   UNL     1       2.639   4.565  19.454  0.00  0.00    +0.000 A 
ATOM     14  C   UNL     1       2.726   4.430  20.847  0.00  0.00    +0.000 A 
ATOM     15  C   UNL     1       1.933   3.496  21.517  0.00  0.00    +0.000 A 
ATOM     16  C   UNL     1       1.036   2.706  20.798  0.00  0.00    +0.000 A 
ATOM     17  C   UNL     1       0.956   2.825  19.411  0.00  0.00    +0.000 A 
ATOM     18  C   UNL     1       1.760   3.749  18.734  0.00  0.00    +0.000 A 
ENDBRANCH  11  13
ENDBRANCH  10  11
BRANCH   1  19
ATOM     19  O   UNL     1       6.718   4.124  13.291  0.00  0.00    +0.000 OA
BRANCH  19  20
ATOM     20  C   UNL     1       5.949   3.099  12.653  0.00  0.00    +0.000 C 
BRANCH  20  23
ATOM     21  C   UNL     1       3.156   3.775  10.020  0.00  0.00    +0.000 C 
ATOM     22  C   UNL     1       3.939   3.191  11.150  0.00  0.00    +0.000 C 
ATOM     23  C   UNL     1       5.103   3.708  11.578  0.00  0.00    +0.000 C 
ENDBRANCH  20  23
ENDBRANCH  19  20
ENDBRANCH   1  19
TORSDOF 5
ENDMDL
MODEL 2
REMARK VINA RESULT:      -8.7      0.103      1.013
REMARK  Name = 
REMARK  6 active torsions:
REMARK  status: ('A' for Active; 'I' for Inactive)
REMARK    1  A    between atoms: C_1  and  C_2
REMARK    2  A    between atoms: C_3  and  C_4
REMARK    3  A    between atoms: C_4  and  O_5
REMARK    4  A    between atoms: O_5  and  C_6
REMARK    5  A    between atoms: C_15  and  C_16
REMARK    6  A    between atoms: C_16  and  C_18
REMARK                            x       y       z     vdW  Elec       q    Type
REMARK                         _______ _______ _______ _____ _____    ______ ____
ROOT
ATOM      1  C   UNL     1       6.398   4.396  14.632  0.00  0.00    +0.000 A 
ATOM      2  C   UNL     1       5.098   4.024  14.989  0.00  0.00    +0.000 A 
ATOM      3  C   UNL     1       4.588   4.334  16.261  0.00  0.00    +0.000 A 
ATOM      4  C   UNL     1       5.397   4.997  17.188  0.00  0.00    +0.000 A 
ATOM      5  C   UNL     1       6.726   5.292  16.853  0.00  0.00    +0.000 A 
ATOM      6  C   UNL     1       7.224   4.996  15.578  0.00  0.00    +0.000 A 
ATOM      7  C   UNL     1       7.586   5.998  17.865  0.00  0.00    +0.000 C 
ATOM      8  C   UNL     1       7.185   5.520  19.259  0.00  0.00    +0.000 C 
ATOM      9  N   UNL     1       5.754   5.720  19.509  0.00  0.00    +0.000 NA
ATOM     10  C   UNL     1       4.939   5.444  18.532  0.00  0.00    +0.000 C 
ENDROOT
BRANCH  10  11
ATOM     11  C   UNL     1       3.464   5.706  18.789  0.00  0.00    +0.000 C 
ATOM     12  O   UNL     1       3.000   6.798  18.478  0.00  0.00    +0.000 OA
BRANCH  11  13
ATOM     13  C   UNL     1       2.610   4.693  19.467  0.00  0.00    +0.000 A 
ATOM     14  C   UNL     1       1.750   3.913  18.680  0.00  0.00    +0.000 A 
ATOM     15  C   UNL     1       0.971   2.913  19.265  0.00  0.00    +0.000 A 
ATOM     16  C   UNL     1       1.062   2.676  20.636  0.00  0.00    +0.000 A 
ATOM     17  C   UNL     1       1.903   3.459  21.426  0.00  0.00    +0.000 A 
ATOM     18  C   UNL     1       2.675   4.473  20.846  0.00  0.00    +0.000 A 
ENDBRANCH  11  13
ENDBRANCH  10  11
BRANCH   1  19
ATOM     19  O   UNL     1       6.767   4.142  13.334  0.00  0.00    +0.000 OA
BRANCH  19  20
ATOM     20  C   UNL     1       5.992   3.130  12.685  0.00  0.00    +0.000 C 
BRANCH  20  23
ATOM     21  C   UNL     1       3.172   3.766  10.071  0.00  0.00    +0.000 C 
ATOM     22  C   UNL     1       4.061   3.115  11.078  0.00  0.00    +0.000 C 
ATOM     23  C   UNL     1       5.033   3.773  11.731  0.00  0.00    +0.000 C 
ENDBRANCH  20  23
ENDBRANCH  19  20
ENDBRANCH   1  19
TORSDOF 5
ENDMDL
MODEL 3
REMARK VINA RESULT:      -8.4      1.651      2.618
REMARK  Name = 
REMARK  6 active torsions:
REMARK  status: ('A' for Active; 'I' for Inactive)
REMARK    1  A    between atoms: C_1  and  C_2
REMARK    2  A    between atoms: C_3  and  C_4
REMARK    3  A    between atoms: C_4  and  O_5
REMARK    4  A    between atoms: O_5  and  C_6
REMARK    5  A    between atoms: C_15  and  C_16
REMARK    6  A    between atoms: C_16  and  C_18
REMARK                            x       y       z     vdW  Elec       q    Type
REMARK                         _______ _______ _______ _____ _____    ______ ____
ROOT
ATOM      1  C   UNL     1       6.362   4.434  14.710  0.00  0.00    +0.000 A 
ATOM      2  C   UNL     1       5.141   3.920  15.160  0.00  0.00    +0.000 A 
ATOM      3  C   UNL     1       4.712   4.147  16.478  0.00  0.00    +0.000 A 
ATOM      4  C   UNL     1       5.524   4.870  17.356  0.00  0.00    +0.000 A 
ATOM      5  C   UNL     1       6.783   5.310  16.923  0.00  0.00    +0.000 A 
ATOM      6  C   UNL     1       7.199   5.096  15.603  0.00  0.00    +0.000 A 
ATOM      7  C   UNL     1       7.648   6.080  17.883  0.00  0.00    +0.000 C 
ATOM      8  C   UNL     1       7.417   5.531  19.290  0.00  0.00    +0.000 C 
ATOM      9  N   UNL     1       6.000   5.574  19.662  0.00  0.00    +0.000 NA
ATOM     10  C   UNL     1       5.138   5.236  18.747  0.00  0.00    +0.000 C 
ENDROOT
BRANCH  10  11
ATOM     11  C   UNL     1       3.671   5.336  19.131  0.00  0.00    +0.000 C 
ATOM     12  O   UNL     1       3.073   4.308  19.436  0.00  0.00    +0.000 OA
BRANCH  11  13
ATOM     13  C   UNL     1       2.947   6.635  19.071  0.00  0.00    +0.000 A 
ATOM     14  C   UNL     1       3.033   7.391  17.893  0.00  0.00    +0.000 A 
ATOM     15  C   UNL     1       2.327   8.589  17.771  0.00  0.00    +0.000 A 
ATOM     16  C   UNL     1       1.518   9.028  18.818  0.00  0.00    +0.000 A 
ATOM     17  C   UNL     1       1.441   8.289  19.998  0.00  0.00    +0.000 A 
ATOM     18  C   UNL     1       2.159   7.094  20.131  0.00  0.00    +0.000 A 
ENDBRANCH  11  13
ENDBRANCH  10  11
BRANCH   1  19
ATOM     19  O   UNL     1       6.644   4.250  13.379  0.00  0.00    +0.000 OA
BRANCH  19  20
ATOM     20  C   UNL     1       5.891   3.206  12.753  0.00  0.00    +0.000 C 
BRANCH  20  23
ATOM     21  C   UNL     1       3.152   3.722  10.028  0.00  0.00    +0.000 C 
ATOM     22  C   UNL     1       3.987   3.132  11.116  0.00  0.00    +0.000 C 
ATOM     23  C   UNL     1       4.986   3.799  11.717  0.00  0.00    +0.000 C 
ENDBRANCH  20  23
ENDBRANCH  19  20
ENDBRANCH   1  19
TORSDOF 5
ENDMDL
MODEL 4
REMARK VINA RESULT:      -8.3      1.063      1.609
REMARK  Name = 
REMARK  6 active torsions:
REMARK  status: ('A' for Active; 'I' for Inactive)
REMARK    1  A    between atoms: C_1  and  C_2
REMARK    2  A    between atoms: C_3  and  C_4
REMARK    3  A    between atoms: C_4  and  O_5
REMARK    4  A    between atoms: O_5  and  C_6
REMARK    5  A    between atoms: C_15  and  C_16
REMARK    6  A    between atoms: C_16  and  C_18
REMARK                            x       y       z     vdW  Elec       q    Type
REMARK                         _______ _______ _______ _____ _____    ______ ____
ROOT
ATOM      1  C   UNL     1       6.668   4.670  14.613  0.00  0.00    +0.000 A 
ATOM      2  C   UNL     1       5.328   4.323  14.810  0.00  0.00    +0.000 A 
ATOM      3  C   UNL     1       4.699   4.567  16.042  0.00  0.00    +0.000 A 
ATOM      4  C   UNL     1       5.427   5.138  17.090  0.00  0.00    +0.000 A 
ATOM      5  C   UNL     1       6.792   5.406  16.913  0.00  0.00    +0.000 A 
ATOM      6  C   UNL     1       7.409   5.176  15.677  0.00  0.00    +0.000 A 
ATOM      7  C   UNL     1       7.562   6.013  18.052  0.00  0.00    +0.000 C 
ATOM      8  C   UNL     1       7.005   5.459  19.363  0.00  0.00    +0.000 C 
ATOM      9  N   UNL     1       5.563   5.693  19.480  0.00  0.00    +0.000 NA
ATOM     10  C   UNL     1       4.846   5.512  18.409  0.00  0.00    +0.000 C 
ENDROOT
BRANCH  10  11
ATOM     11  C   UNL     1       3.360   5.809  18.532  0.00  0.00    +0.000 C 
ATOM     12  O   UNL     1       2.962   6.934  18.246  0.00  0.00    +0.000 OA
BRANCH  11  13
ATOM     13  C   UNL     1       2.413   4.788  19.057  0.00  0.00    +0.000 A 
ATOM     14  C   UNL     1       1.818   3.903  18.147  0.00  0.00    +0.000 A 
ATOM     15  C   UNL     1       0.966   2.893  18.599  0.00  0.00    +0.000 A 
ATOM     16  C   UNL     1       0.719   2.753  19.965  0.00  0.00    +0.000 A 
ATOM     17  C   UNL     1       1.296   3.641  20.873  0.00  0.00    +0.000 A 
ATOM     18  C   UNL     1       2.139   4.664  20.422  0.00  0.00    +0.000 A 
ENDBRANCH  11  13
ENDBRANCH  10  11
BRANCH   1  19
ATOM     19  O   UNL     1       7.162   4.489  13.345  0.00  0.00    +0.000 OA
BRANCH  19  20
ATOM     20  C   UNL     1       6.208   3.986  12.404  0.00  0.00    +0.000 C 
BRANCH  20  23
ATOM     21  C   UNL     1       6.134   0.317  11.089  0.00  0.00    +0.000 C 
ATOM     22  C   UNL     1       5.759   1.729  11.395  0.00  0.00    +0.000 C 
ATOM     23  C   UNL     1       6.586   2.590  12.012  0.00  0.00    +0.000 C 
ENDBRANCH  20  23
ENDBRANCH  19  20
ENDBRANCH   1  19
TORSDOF 5
ENDMDL
MODEL 5
REMARK VINA RESULT:      -8.2      0.999      1.197
REMARK  Name = 
REMARK  6 active torsions:
REMARK  status: ('A' for Active; 'I' for Inactive)
REMARK    1  A    between atoms: C_1  and  C_2
REMARK    2  A    between atoms: C_3  and  C_4
REMARK    3  A    between atoms: C_4  and  O_5
REMARK    4  A    between atoms: O_5  and  C_6
REMARK    5  A    between atoms: C_15  and  C_16
REMARK    6  A    between atoms: C_16  and  C_18
REMARK                            x       y       z     vdW  Elec       q    Type
REMARK                         _______ _______ _______ _____ _____    ______ ____
ROOT
ATOM      1  C   UNL     1       6.676   4.670  14.641  0.00  0.00    +0.000 A 
ATOM      2  C   UNL     1       5.365   4.244  14.878  0.00  0.00    +0.000 A 
ATOM      3  C   UNL     1       4.758   4.457  16.127  0.00  0.00    +0.000 A 
ATOM      4  C   UNL     1       5.479   5.077  17.151  0.00  0.00    +0.000 A 
ATOM      5  C   UNL     1       6.820   5.425  16.934  0.00  0.00    +0.000 A 
ATOM      6  C   UNL     1       7.415   5.227  15.681  0.00  0.00    +0.000 A 
ATOM      7  C   UNL     1       7.584   6.084  18.048  0.00  0.00    +0.000 C 
ATOM      8  C   UNL     1       7.099   5.505  19.376  0.00  0.00    +0.000 C 
ATOM      9  N   UNL     1       5.650   5.652  19.534  0.00  0.00    +0.000 NA
ATOM     10  C   UNL     1       4.915   5.422  18.485  0.00  0.00    +0.000 C 
ENDROOT
BRANCH  10  11
ATOM     11  C   UNL     1       3.418   5.630  18.650  0.00  0.00    +0.000 C 
ATOM     12  O   UNL     1       2.932   6.701  18.300  0.00  0.00    +0.000 OA
BRANCH  11  13
ATOM     13  C   UNL     1       2.563   4.591  19.287  0.00  0.00    +0.000 A 
ATOM     14  C   UNL     1       2.586   4.476  20.684  0.00  0.00    +0.000 A 
ATOM     15  C   UNL     1       1.760   3.554  21.330  0.00  0.00    +0.000 A 
ATOM     16  C   UNL     1       0.895   2.755  20.583  0.00  0.00    +0.000 A 
ATOM     17  C   UNL     1       0.880   2.853  19.192  0.00  0.00    +0.000 A 
ATOM     18  C   UNL     1       1.717   3.766  18.539  0.00  0.00    +0.000 A 
ENDBRANCH  11  13
ENDBRANCH  10  11
BRANCH   1  19
ATOM     19  O   UNL     1       7.144   4.513  13.360  0.00  0.00    +0.000 OA
BRANCH  19  20
ATOM     20  C   UNL     1       6.166   4.042  12.427  0.00  0.00    +0.000 C 
BRANCH  20  23
ATOM     21  C   UNL     1       6.204   0.402  11.034  0.00  0.00    +0.000 C 
ATOM     22  C   UNL     1       5.749   1.747  11.496  0.00  0.00    +0.000 C 
ATOM     23  C   UNL     1       6.596   2.714  11.884  0.00  0.00    +0.000 C 
ENDBRANCH  20  23
ENDBRANCH  19  20
ENDBRANCH   1  19
TORSDOF 5
ENDMDL
MODEL 6
REMARK VINA RESULT:      -8.2      1.693      2.490
REMARK  Name = 
REMARK  6 active torsions:
REMARK  status: ('A' for Active; 'I' for Inactive)
REMARK    1  A    between atoms: C_1  and  C_2
REMARK    2  A    between atoms: C_3  and  C_4
REMARK    3  A    between atoms: C_4  and  O_5
REMARK    4  A    between atoms: O_5  and  C_6
REMARK    5  A    between atoms: C_15  and  C_16
REMARK    6  A    between atoms: C_16  and  C_18
REMARK                            x       y       z     vdW  Elec       q    Type
REMARK                         _______ _______ _______ _____ _____    ______ ____
ROOT
ATOM      1  C   UNL     1       6.158   4.624  14.687  0.00  0.00    +0.000 A 
ATOM      2  C   UNL     1       4.972   4.082  15.193  0.00  0.00    +0.000 A 
ATOM      3  C   UNL     1       4.621   4.262  16.541  0.00  0.00    +0.000 A 
ATOM      4  C   UNL     1       5.478   4.966  17.392  0.00  0.00    +0.000 A 
ATOM      5  C   UNL     1       6.704   5.434  16.898  0.00  0.00    +0.000 A 
ATOM      6  C   UNL     1       7.041   5.266  15.549  0.00  0.00    +0.000 A 
ATOM      7  C   UNL     1       7.618   6.183  17.828  0.00  0.00    +0.000 C 
ATOM      8  C   UNL     1       7.478   5.587  19.228  0.00  0.00    +0.000 C 
ATOM      9  N   UNL     1       6.086   5.602  19.686  0.00  0.00    +0.000 NA
ATOM     10  C   UNL     1       5.174   5.284  18.814  0.00  0.00    +0.000 C 
ENDROOT
BRANCH  10  11
ATOM     11  C   UNL     1       3.731   5.355  19.289  0.00  0.00    +0.000 C 
ATOM     12  O   UNL     1       3.212   4.339  19.741  0.00  0.00    +0.000 OA
BRANCH  11  13
ATOM     13  C   UNL     1       2.936   6.605  19.146  0.00  0.00    +0.000 A 
ATOM     14  C   UNL     1       2.183   7.044  20.244  0.00  0.00    +0.000 A 
ATOM     15  C   UNL     1       1.466   8.240  20.175  0.00  0.00    +0.000 A 
ATOM     16  C   UNL     1       1.512   9.011  19.014  0.00  0.00    +0.000 A 
ATOM     17  C   UNL     1       2.246   8.571  17.913  0.00  0.00    +0.000 A 
ATOM     18  C   UNL     1       2.955   7.365  17.972  0.00  0.00    +0.000 A 
ENDBRANCH  11  13
ENDBRANCH  10  11
BRANCH   1  19
ATOM     19  O   UNL     1       6.361   4.485  13.336  0.00  0.00    +0.000 OA
BRANCH  19  20
ATOM     20  C   UNL     1       6.478   3.130  12.892  0.00  0.00    +0.000 C 
BRANCH  20  23
ATOM     21  C   UNL     1       3.376   3.249  10.533  0.00  0.00    +0.000 C 
ATOM     22  C   UNL     1       4.362   3.566  11.609  0.00  0.00    +0.000 C 
ATOM     23  C   UNL     1       5.510   2.888  11.774  0.00  0.00    +0.000 C 
ENDBRANCH  20  23
ENDBRANCH  19  20
ENDBRANCH   1  19
TORSDOF 5
ENDMDL
MODEL 7
REMARK VINA RESULT:      -7.8      1.600      1.854
REMARK  Name = 
REMARK  6 active torsions:
REMARK  status: ('A' for Active; 'I' for Inactive)
REMARK    1  A    between atoms: C_1  and  C_2
REMARK    2  A    between atoms: C_3  and  C_4
REMARK    3  A    between atoms: C_4  and  O_5
REMARK    4  A    between atoms: O_5  and  C_6
REMARK    5  A    between atoms: C_15  and  C_16
REMARK    6  A    between atoms: C_16  and  C_18
REMARK                            x       y       z     vdW  Elec       q    Type
REMARK                         _______ _______ _______ _____ _____    ______ ____
ROOT
ATOM      1  C   UNL     1       6.473   4.636  14.479  0.00  0.00    +0.000 A 
ATOM      2  C   UNL     1       5.921   3.492  15.063  0.00  0.00    +0.000 A 
ATOM      3  C   UNL     1       5.773   3.400  16.457  0.00  0.00    +0.000 A 
ATOM      4  C   UNL     1       6.205   4.452  17.271  0.00  0.00    +0.000 A 
ATOM      5  C   UNL     1       6.834   5.559  16.685  0.00  0.00    +0.000 A 
ATOM      6  C   UNL     1       6.964   5.653  15.293  0.00  0.00    +0.000 A 
ATOM      7  C   UNL     1       7.301   6.678  17.574  0.00  0.00    +0.000 C 
ATOM      8  C   UNL     1       7.774   6.080  18.898  0.00  0.00    +0.000 C 
ATOM      9  N   UNL     1       6.730   5.268  19.528  0.00  0.00    +0.000 NA
ATOM     10  C   UNL     1       6.029   4.497  18.748  0.00  0.00    +0.000 C 
ENDROOT
BRANCH  10  11
ATOM     11  C   UNL     1       4.915   3.700  19.409  0.00  0.00    +0.000 C 
ATOM     12  O   UNL     1       5.203   2.941  20.328  0.00  0.00    +0.000 OA
BRANCH  11  13
ATOM     13  C   UNL     1       3.515   3.779  18.911  0.00  0.00    +0.000 A 
ATOM     14  C   UNL     1       3.048   5.010  18.428  0.00  0.00    +0.000 A 
ATOM     15  C   UNL     1       1.760   5.118  17.900  0.00  0.00    +0.000 A 
ATOM     16  C   UNL     1       0.939   3.993  17.836  0.00  0.00    +0.000 A 
ATOM     17  C   UNL     1       1.392   2.769  18.329  0.00  0.00    +0.000 A 
ATOM     18  C   UNL     1       2.677   2.659  18.873  0.00  0.00    +0.000 A 
ENDBRANCH  11  13
ENDBRANCH  10  11
BRANCH   1  19
ATOM     19  O   UNL     1       6.480   4.675  13.107  0.00  0.00    +0.000 OA
BRANCH  19  20
ATOM     20  C   UNL     1       6.801   3.429  12.482  0.00  0.00    +0.000 C 
BRANCH  20  23
ATOM     21  C   UNL     1       3.333   3.122  10.728  0.00  0.00    +0.000 C 
ATOM     22  C   UNL     1       4.465   3.604  11.574  0.00  0.00    +0.000 C 
ATOM     23  C   UNL     1       5.673   3.017  11.586  0.00  0.00    +0.000 C 
ENDBRANCH  20  23
ENDBRANCH  19  20
ENDBRANCH   1  19
TORSDOF 5
ENDMDL
MODEL 8
REMARK VINA RESULT:      -7.7      3.182      7.131
REMARK  Name = 
REMARK  6 active torsions:
REMARK  status: ('A' for Active; 'I' for Inactive)
REMARK    1  A    between atoms: C_1  and  C_2
REMARK    2  A    between atoms: C_3  and  C_4
REMARK    3  A    between atoms: C_4  and  O_5
REMARK    4  A    between atoms: O_5  and  C_6
REMARK    5  A    between atoms: C_15  and  C_16
REMARK    6  A    between atoms: C_16  and  C_18
REMARK                            x       y       z     vdW  Elec       q    Type
REMARK                         _______ _______ _______ _____ _____    ______ ____
ROOT
ATOM      1  C   UNL     1       1.629   7.856  19.983  0.00  0.00    +0.000 A 
ATOM      2  C   UNL     1       2.451   7.801  18.853  0.00  0.00    +0.000 A 
ATOM      3  C   UNL     1       2.981   6.577  18.412  0.00  0.00    +0.000 A 
ATOM      4  C   UNL     1       2.705   5.406  19.124  0.00  0.00    +0.000 A 
ATOM      5  C   UNL     1       1.950   5.481  20.303  0.00  0.00    +0.000 A 
ATOM      6  C   UNL     1       1.410   6.701  20.728  0.00  0.00    +0.000 A 
ATOM      7  C   UNL     1       1.668   4.214  21.062  0.00  0.00    +0.000 C 
ATOM      8  C   UNL     1       2.879   3.291  20.928  0.00  0.00    +0.000 C 
ATOM      9  N   UNL     1       3.212   3.036  19.524  0.00  0.00    +0.000 NA
ATOM     10  C   UNL     1       3.147   4.047  18.708  0.00  0.00    +0.000 C 
ENDROOT
BRANCH  10  11
ATOM     11  C   UNL     1       3.445   3.755  17.246  0.00  0.00    +0.000 C 
ATOM     12  O   UNL     1       2.588   3.190  16.574  0.00  0.00    +0.000 OA
BRANCH  11  13
ATOM     13  C   UNL     1       4.771   4.079  16.652  0.00  0.00    +0.000 A 
ATOM     14  C   UNL     1       4.860   4.222  15.260  0.00  0.00    +0.000 A 
ATOM     15  C   UNL     1       6.071   4.580  14.663  0.00  0.00    +0.000 A 
ATOM     16  C   UNL     1       7.193   4.813  15.457  0.00  0.00    +0.000 A 
ATOM     17  C   UNL     1       7.114   4.657  16.841  0.00  0.00    +0.000 A 
ATOM     18  C   UNL     1       5.907   4.284  17.442  0.00  0.00    +0.000 A 
ENDBRANCH  11  13
ENDBRANCH  10  11
BRANCH   1  19
ATOM     19  O   UNL     1       1.076   9.079  20.272  0.00  0.00    +0.000 OA
BRANCH  19  20
ATOM     20  C   UNL     1       1.079  10.003  19.180  0.00  0.00    +0.000 C 
BRANCH  20  23
ATOM     21  C   UNL     1      -2.337  10.195  17.311  0.00  0.00    +0.000 C 
ATOM     22  C   UNL     1      -0.957   9.800  17.721  0.00  0.00    +0.000 C 
ATOM     23  C   UNL     1      -0.334  10.319  18.792  0.00  0.00    +0.000 C 
ENDBRANCH  20  23
ENDBRANCH  19  20
ENDBRANCH   1  19
TORSDOF 5
ENDMDL
MODEL 9
REMARK VINA RESULT:      -7.7      3.232      7.222
REMARK  Name = 
REMARK  6 active torsions:
REMARK  status: ('A' for Active; 'I' for Inactive)
REMARK    1  A    between atoms: C_1  and  C_2
REMARK    2  A    between atoms: C_3  and  C_4
REMARK    3  A    between atoms: C_4  and  O_5
REMARK    4  A    between atoms: O_5  and  C_6
REMARK    5  A    between atoms: C_15  and  C_16
REMARK    6  A    between atoms: C_16  and  C_18
REMARK                            x       y       z     vdW  Elec       q    Type
REMARK                         _______ _______ _______ _____ _____    ______ ____
ROOT
ATOM      1  C   UNL     1       1.634   7.600  20.299  0.00  0.00    +0.000 A 
ATOM      2  C   UNL     1       2.462   7.607  19.173  0.00  0.00    +0.000 A 
ATOM      3  C   UNL     1       2.975   6.407  18.653  0.00  0.00    +0.000 A 
ATOM      4  C   UNL     1       2.676   5.196  19.284  0.00  0.00    +0.000 A 
ATOM      5  C   UNL     1       1.914   5.204  20.461  0.00  0.00    +0.000 A 
ATOM      6  C   UNL     1       1.392   6.402  20.965  0.00  0.00    +0.000 A 
ATOM      7  C   UNL     1       1.608   3.894  21.132  0.00  0.00    +0.000 C 
ATOM      8  C   UNL     1       2.804   2.962  20.943  0.00  0.00    +0.000 C 
ATOM      9  N   UNL     1       3.142   2.796  19.527  0.00  0.00    +0.000 NA
ATOM     10  C   UNL     1       3.098   3.860  18.780  0.00  0.00    +0.000 C 
ENDROOT
BRANCH  10  11
ATOM     11  C   UNL     1       3.400   3.663  17.303  0.00  0.00    +0.000 C 
ATOM     12  O   UNL     1       2.576   3.074  16.610  0.00  0.00    +0.000 OA
BRANCH  11  13
ATOM     13  C   UNL     1       4.694   4.105  16.717  0.00  0.00    +0.000 A 
ATOM     14  C   UNL     1       5.791   4.271  17.575  0.00  0.00    +0.000 A 
ATOM     15  C   UNL     1       7.040   4.631  17.063  0.00  0.00    +0.000 A 
ATOM     16  C   UNL     1       7.201   4.809  15.689  0.00  0.00    +0.000 A 
ATOM     17  C   UNL     1       6.110   4.661  14.833  0.00  0.00    +0.000 A 
ATOM     18  C   UNL     1       4.854   4.315  15.343  0.00  0.00    +0.000 A 
ENDBRANCH  11  13
ENDBRANCH  10  11
BRANCH   1  19
ATOM     19  O   UNL     1       1.099   8.810  20.668  0.00  0.00    +0.000 OA
BRANCH  19  20
ATOM     20  C   UNL     1       0.929   9.734  19.589  0.00  0.00    +0.000 C 
BRANCH  20  23
ATOM     21  C   UNL     1      -2.510  10.667  18.007  0.00  0.00    +0.000 C 
ATOM     22  C   UNL     1      -1.058  10.368  18.188  0.00  0.00    +0.000 C 
ATOM     23  C   UNL     1      -0.533   9.963  19.356  0.00  0.00    +0.000 C 
ENDBRANCH  20  23
ENDBRANCH  19  20
ENDBRANCH   1  19
TORSDOF 5
ENDMDL
