MODEL 1
REMARK VINA RESULT:      -7.3      0.000      0.000
REMARK  Name = 
REMARK  5 active torsions:
REMARK  status: ('A' for Active; 'I' for Inactive)
REMARK    1  A    between atoms: C_1  and  C_2
REMARK    2  A    between atoms: C_6  and  C_7
REMARK    3  A    between atoms: C_11  and  C_12
REMARK    4  A    between atoms: C_12  and  N_13
REMARK    5  A    between atoms: C_17  and  C_18
REMARK                            x       y       z     vdW  Elec       q    Type
REMARK                         _______ _______ _______ _____ _____    ______ ____
ROOT
ATOM      1  C   UNL     1       4.620   5.667  17.453  0.00  0.00    +0.000 A 
ATOM      2  C   UNL     1       3.991   6.910  17.504  0.00  0.00    +0.000 A 
ATOM      3  C   UNL     1       3.143   7.028  18.601  0.00  0.00    +0.000 A 
ATOM      4  N   UNL     1       2.405   8.126  18.899  0.00  0.00    +0.000 NA
ATOM      5  C   UNL     1       1.569   8.101  19.977  0.00  0.00    +0.000 A 
ATOM      6  N   UNL     1       1.465   6.972  20.748  0.00  0.00    +0.000 N 
ATOM      7  C   UNL     1       2.230   5.858  20.479  0.00  0.00    +0.000 A 
ATOM      8  O   UNL     1       2.137   4.857  21.171  0.00  0.00    +0.000 OA
ATOM      9  C   UNL     1       3.084   5.899  19.386  0.00  0.00    +0.000 A 
ATOM     10  S   UNL     1       4.135   4.733  18.787  0.00  0.00    +0.000 S 
ATOM     11  H   UNL     1       0.807   6.958  21.561  0.00  0.00    +0.000 HD
ENDROOT
BRANCH   1  17
ATOM     12  C   UNL     1       7.659   4.681  17.784  0.00  0.00    +0.000 C 
ATOM     13  C   UNL     1       6.844   4.746  16.533  0.00  0.00    +0.000 A 
ATOM     14  N   UNL     1       7.336   4.459  15.310  0.00  0.00    +0.000 NA
ATOM     15  N   UNL     1       6.384   4.698  14.422  0.00  0.00    +0.000 N 
ATOM     16  C   UNL     1       5.284   5.153  15.050  0.00  0.00    +0.000 A 
ATOM     17  C   UNL     1       5.534   5.187  16.401  0.00  0.00    +0.000 A 
ATOM     18  H   UNL     1       6.495   4.561  13.393  0.00  0.00    +0.000 HD
ENDBRANCH   1  17
BRANCH   5  19
ATOM     19  C   UNL     1       0.742   9.312  20.290  0.00  0.00    +0.000 C 
BRANCH  19  20
ATOM     20  N   UNL     1       0.525  10.140  19.081  0.00  0.00    +0.000 NA
ATOM     21  C   UNL     1      -0.877  10.183  18.633  0.00  0.00    +0.000 C 
ATOM     22  C   UNL     1      -1.459  11.461  19.206  0.00  0.00    +0.000 C 
ATOM     23  C   UNL     1      -0.314  12.418  18.995  0.00  0.00    +0.000 C 
ATOM     24  C   UNL     1       0.908  11.551  19.326  0.00  0.00    +0.000 C 
ATOM     25  C   UNL     1       2.099  11.912  18.437  0.00  0.00    +0.000 C 
ENDBRANCH  19  20
ENDBRANCH   5  19
TORSDOF 3
ENDMDL
MODEL 2
REMARK VINA RESULT:      -7.3      1.340      1.896
REMARK  Name = 
REMARK  5 active torsions:
REMARK  status: ('A' for Active; 'I' for Inactive)
REMARK    1  A    between atoms: C_1  and  C_2
REMARK    2  A    between atoms: C_6  and  C_7
REMARK    3  A    between atoms: C_11  and  C_12
REMARK    4  A    between atoms: C_12  and  N_13
REMARK    5  A    between atoms: C_17  and  C_18
REMARK                            x       y       z     vdW  Elec       q    Type
REMARK                         _______ _______ _______ _____ _____    ______ ____
ROOT
ATOM      1  C   UNL     1       4.652   6.053  17.447  0.00  0.00    +0.000 A 
ATOM      2  C   UNL     1       3.967   7.266  17.393  0.00  0.00    +0.000 A 
ATOM      3  C   UNL     1       3.046   7.399  18.428  0.00  0.00    +0.000 A 
ATOM      4  N   UNL     1       2.242   8.474  18.620  0.00  0.00    +0.000 NA
ATOM      5  C   UNL     1       1.342   8.464  19.645  0.00  0.00    +0.000 A 
ATOM      6  N   UNL     1       1.240   7.372  20.469  0.00  0.00    +0.000 N 
ATOM      7  C   UNL     1       2.070   6.284  20.307  0.00  0.00    +0.000 A 
ATOM      8  O   UNL     1       1.978   5.316  21.045  0.00  0.00    +0.000 OA
ATOM      9  C   UNL     1       2.989   6.310  19.268  0.00  0.00    +0.000 A 
ATOM     10  S   UNL     1       4.127   5.166  18.797  0.00  0.00    +0.000 S 
ATOM     11  H   UNL     1       0.533   7.367  21.240  0.00  0.00    +0.000 HD
ENDROOT
BRANCH   1  17
ATOM     12  C   UNL     1       7.632   5.013  18.049  0.00  0.00    +0.000 C 
ATOM     13  C   UNL     1       6.937   5.101  16.729  0.00  0.00    +0.000 A 
ATOM     14  N   UNL     1       7.535   4.814  15.554  0.00  0.00    +0.000 NA
ATOM     15  N   UNL     1       6.673   5.076  14.584  0.00  0.00    +0.000 N 
ATOM     16  C   UNL     1       5.527   5.544  15.111  0.00  0.00    +0.000 A 
ATOM     17  C   UNL     1       5.652   5.565  16.480  0.00  0.00    +0.000 A 
ATOM     18  H   UNL     1       6.877   4.943  13.568  0.00  0.00    +0.000 HD
ENDBRANCH   1  17
BRANCH   5  19
ATOM     19  C   UNL     1       0.443   9.647  19.841  0.00  0.00    +0.000 C 
BRANCH  19  20
ATOM     20  N   UNL     1       0.761  10.360  21.100  0.00  0.00    +0.000 NA
ATOM     21  C   UNL     1       1.046  11.793  20.918  0.00  0.00    +0.000 C 
ATOM     22  C   UNL     1      -0.250  12.519  21.225  0.00  0.00    +0.000 C 
ATOM     23  C   UNL     1      -0.737  11.743  22.421  0.00  0.00    +0.000 C 
ATOM     24  C   UNL     1      -0.376  10.298  22.049  0.00  0.00    +0.000 C 
ATOM     25  C   UNL     1       0.039   9.497  23.283  0.00  0.00    +0.000 C 
ENDBRANCH  19  20
ENDBRANCH   5  19
TORSDOF 3
ENDMDL
MODEL 3
REMARK VINA RESULT:      -7.2      3.763      8.499
REMARK  Name = 
REMARK  5 active torsions:
REMARK  status: ('A' for Active; 'I' for Inactive)
REMARK    1  A    between atoms: C_1  and  C_2
REMARK    2  A    between atoms: C_6  and  C_7
REMARK    3  A    between atoms: C_11  and  C_12
REMARK    4  A    between atoms: C_12  and  N_13
REMARK    5  A    between atoms: C_17  and  C_18
REMARK                            x       y       z     vdW  Elec       q    Type
REMARK                         _______ _______ _______ _____ _____    ______ ____
ROOT
ATOM      1  C   UNL     1       0.282  10.546  21.187  0.00  0.00    +0.000 A 
ATOM      2  C   UNL     1       0.690   9.273  21.582  0.00  0.00    +0.000 A 
ATOM      3  C   UNL     1       1.337   8.585  20.561  0.00  0.00    +0.000 A 
ATOM      4  N   UNL     1       1.837   7.329  20.664  0.00  0.00    +0.000 NA
ATOM      5  C   UNL     1       2.407   6.741  19.572  0.00  0.00    +0.000 A 
ATOM      6  N   UNL     1       2.463   7.407  18.376  0.00  0.00    +0.000 N 
ATOM      7  C   UNL     1       1.988   8.695  18.260  0.00  0.00    +0.000 A 
ATOM      8  O   UNL     1       2.044   9.287  17.194  0.00  0.00    +0.000 OA
ATOM      9  C   UNL     1       1.421   9.287  19.380  0.00  0.00    +0.000 A 
ATOM     10  S   UNL     1       0.753  10.816  19.577  0.00  0.00    +0.000 S 
ATOM     11  H   UNL     1       2.885   6.940  17.540  0.00  0.00    +0.000 HD
ENDROOT
BRANCH   1  17
ATOM     12  C   UNL     1       0.732  13.720  21.391  0.00  0.00    +0.000 C 
ATOM     13  C   UNL     1      -0.300  12.892  22.083  0.00  0.00    +0.000 A 
ATOM     14  N   UNL     1      -1.167  13.389  22.990  0.00  0.00    +0.000 NA
ATOM     15  N   UNL     1      -1.879  12.381  23.468  0.00  0.00    +0.000 N 
ATOM     16  C   UNL     1      -1.476  11.231  22.896  0.00  0.00    +0.000 A 
ATOM     17  C   UNL     1      -0.476  11.516  21.997  0.00  0.00    +0.000 A 
ATOM     18  H   UNL     1      -2.626  12.482  24.190  0.00  0.00    +0.000 HD
ENDBRANCH   1  17
BRANCH   5  19
ATOM     19  C   UNL     1       2.941   5.345  19.688  0.00  0.00    +0.000 C 
BRANCH  19  20
ATOM     20  N   UNL     1       1.853   4.344  19.589  0.00  0.00    +0.000 NA
ATOM     21  C   UNL     1       1.469   4.018  18.205  0.00  0.00    +0.000 C 
ATOM     22  C   UNL     1       2.218   2.747  17.852  0.00  0.00    +0.000 C 
ATOM     23  C   UNL     1       2.083   1.968  19.135  0.00  0.00    +0.000 C 
ATOM     24  C   UNL     1       2.256   3.057  20.203  0.00  0.00    +0.000 C 
ATOM     25  C   UNL     1       1.372   2.781  21.421  0.00  0.00    +0.000 C 
ENDBRANCH  19  20
ENDBRANCH   5  19
TORSDOF 3
ENDMDL
MODEL 4
REMARK VINA RESULT:      -7.1      1.199      1.770
REMARK  Name = 
REMARK  5 active torsions:
REMARK  status: ('A' for Active; 'I' for Inactive)
REMARK    1  A    between atoms: C_1  and  C_2
REMARK    2  A    between atoms: C_6  and  C_7
REMARK    3  A    between atoms: C_11  and  C_12
REMARK    4  A    between atoms: C_12  and  N_13
REMARK    5  A    between atoms: C_17  and  C_18
REMARK                            x       y       z     vdW  Elec       q    Type
REMARK                         _______ _______ _______ _____ _____    ______ ____
ROOT
ATOM      1  C   UNL     1       4.644   6.122  17.407  0.00  0.00    +0.000 A 
ATOM      2  C   UNL     1       4.104   7.346  17.016  0.00  0.00    +0.000 A 
ATOM      3  C   UNL     1       3.137   7.805  17.905  0.00  0.00    +0.000 A 
ATOM      4  N   UNL     1       2.447   8.965  17.773  0.00  0.00    +0.000 NA
ATOM      5  C   UNL     1       1.485   9.281  18.687  0.00  0.00    +0.000 A 
ATOM      6  N   UNL     1       1.206   8.429  19.724  0.00  0.00    +0.000 N 
ATOM      7  C   UNL     1       1.917   7.261  19.891  0.00  0.00    +0.000 A 
ATOM      8  O   UNL     1       1.668   6.508  20.819  0.00  0.00    +0.000 OA
ATOM      9  C   UNL     1       2.901   6.955  18.962  0.00  0.00    +0.000 A 
ATOM     10  S   UNL     1       3.933   5.632  18.870  0.00  0.00    +0.000 S 
ATOM     11  H   UNL     1       0.452   8.672  20.408  0.00  0.00    +0.000 HD
ENDROOT
BRANCH   1  17
ATOM     12  C   UNL     1       7.679   5.503  18.260  0.00  0.00    +0.000 C 
ATOM     13  C   UNL     1       6.955   5.043  17.036  0.00  0.00    +0.000 A 
ATOM     14  N   UNL     1       7.542   4.339  16.046  0.00  0.00    +0.000 NA
ATOM     15  N   UNL     1       6.650   4.170  15.083  0.00  0.00    +0.000 N 
ATOM     16  C   UNL     1       5.495   4.769  15.426  0.00  0.00    +0.000 A 
ATOM     17  C   UNL     1       5.645   5.328  16.672  0.00  0.00    +0.000 A 
ATOM     18  H   UNL     1       6.840   3.658  14.193  0.00  0.00    +0.000 HD
ENDBRANCH   1  17
BRANCH   5  19
ATOM     19  C   UNL     1       0.713  10.556  18.525  0.00  0.00    +0.000 C 
BRANCH  19  20
ATOM     20  N   UNL     1      -0.689  10.396  18.974  0.00  0.00    +0.000 NA
ATOM     21  C   UNL     1      -0.997  11.100  20.230  0.00  0.00    +0.000 C 
ATOM     22  C   UNL     1      -1.629  12.418  19.824  0.00  0.00    +0.000 C 
ATOM     23  C   UNL     1      -2.513  11.975  18.686  0.00  0.00    +0.000 C 
ATOM     24  C   UNL     1      -1.636  10.938  17.971  0.00  0.00    +0.000 C 
ATOM     25  C   UNL     1      -2.481   9.796  17.405  0.00  0.00    +0.000 C 
ENDBRANCH  19  20
ENDBRANCH   5  19
TORSDOF 3
ENDMDL
MODEL 5
REMARK VINA RESULT:      -7.0      2.294      7.816
REMARK  Name = 
REMARK  5 active torsions:
REMARK  status: ('A' for Active; 'I' for Inactive)
REMARK    1  A    between atoms: C_1  and  C_2
REMARK    2  A    between atoms: C_6  and  C_7
REMARK    3  A    between atoms: C_11  and  C_12
REMARK    4  A    between atoms: C_12  and  N_13
REMARK    5  A    between atoms: C_17  and  C_18
REMARK                            x       y       z     vdW  Elec       q    Type
REMARK                         _______ _______ _______ _____ _____    ______ ____
ROOT
ATOM      1  C   UNL     1       2.494   6.594  19.039  0.00  0.00    +0.000 A 
ATOM      2  C   UNL     1       3.446   6.652  18.023  0.00  0.00    +0.000 A 
ATOM      3  C   UNL     1       3.900   5.390  17.652  0.00  0.00    +0.000 A 
ATOM      4  N   UNL     1       4.826   5.148  16.691  0.00  0.00    +0.000 NA
ATOM      5  C   UNL     1       5.228   3.866  16.454  0.00  0.00    +0.000 A 
ATOM      6  N   UNL     1       4.710   2.829  17.189  0.00  0.00    +0.000 N 
ATOM      7  C   UNL     1       3.747   3.054  18.148  0.00  0.00    +0.000 A 
ATOM      8  O   UNL     1       3.286   2.127  18.795  0.00  0.00    +0.000 OA
ATOM      9  C   UNL     1       3.338   4.360  18.372  0.00  0.00    +0.000 A 
ATOM     10  S   UNL     1       2.205   4.972  19.452  0.00  0.00    +0.000 S 
ATOM     11  H   UNL     1       5.040   1.852  17.012  0.00  0.00    +0.000 HD
ENDROOT
BRANCH   1  17
ATOM     12  C   UNL     1       1.773   9.458  17.773  0.00  0.00    +0.000 C 
ATOM     13  C   UNL     1       1.520   8.978  19.165  0.00  0.00    +0.000 A 
ATOM     14  N   UNL     1       1.002   9.756  20.138  0.00  0.00    +0.000 NA
ATOM     15  N   UNL     1       0.990   9.054  21.259  0.00  0.00    +0.000 N 
ATOM     16  C   UNL     1       1.508   7.832  21.034  0.00  0.00    +0.000 A 
ATOM     17  C   UNL     1       1.849   7.740  19.705  0.00  0.00    +0.000 A 
ATOM     18  H   UNL     1       0.639   9.416  22.174  0.00  0.00    +0.000 HD
ENDBRANCH   1  17
BRANCH   5  19
ATOM     19  C   UNL     1       6.265   3.606  15.404  0.00  0.00    +0.000 C 
BRANCH  19  20
ATOM     20  N   UNL     1       6.000   4.399  14.181  0.00  0.00    +0.000 NA
ATOM     21  C   UNL     1       6.919   5.535  13.997  0.00  0.00    +0.000 C 
ATOM     22  C   UNL     1       7.997   5.050  13.047  0.00  0.00    +0.000 C 
ATOM     23  C   UNL     1       7.176   4.261  12.060  0.00  0.00    +0.000 C 
ATOM     24  C   UNL     1       6.148   3.566  12.964  0.00  0.00    +0.000 C 
ATOM     25  C   UNL     1       4.793   3.445  12.267  0.00  0.00    +0.000 C 
ENDBRANCH  19  20
ENDBRANCH   5  19
TORSDOF 3
ENDMDL
MODEL 6
REMARK VINA RESULT:      -6.9      4.292      5.619
REMARK  Name = 
REMARK  5 active torsions:
REMARK  status: ('A' for Active; 'I' for Inactive)
REMARK    1  A    between atoms: C_1  and  C_2
REMARK    2  A    between atoms: C_6  and  C_7
REMARK    3  A    between atoms: C_11  and  C_12
REMARK    4  A    between atoms: C_12  and  N_13
REMARK    5  A    between atoms: C_17  and  C_18
REMARK                            x       y       z     vdW  Elec       q    Type
REMARK                         _______ _______ _______ _____ _____    ______ ____
ROOT
ATOM      1  C   UNL     1       6.069   4.390  14.980  0.00  0.00    +0.000 A 
ATOM      2  C   UNL     1       4.806   4.491  15.562  0.00  0.00    +0.000 A 
ATOM      3  C   UNL     1       4.871   4.807  16.915  0.00  0.00    +0.000 A 
ATOM      4  N   UNL     1       3.799   4.965  17.729  0.00  0.00    +0.000 NA
ATOM      5  C   UNL     1       3.994   5.224  19.055  0.00  0.00    +0.000 A 
ATOM      6  N   UNL     1       5.264   5.312  19.564  0.00  0.00    +0.000 N 
ATOM      7  C   UNL     1       6.365   5.184  18.746  0.00  0.00    +0.000 A 
ATOM      8  O   UNL     1       7.494   5.268  19.204  0.00  0.00    +0.000 OA
ATOM      9  C   UNL     1       6.154   4.932  17.399  0.00  0.00    +0.000 A 
ATOM     10  S   UNL     1       7.257   4.721  16.149  0.00  0.00    +0.000 S 
ATOM     11  H   UNL     1       5.402   5.492  20.586  0.00  0.00    +0.000 HD
ENDROOT
BRANCH   1  17
ATOM     12  C   UNL     1       8.248   5.698  13.015  0.00  0.00    +0.000 C 
ATOM     13  C   UNL     1       7.315   4.567  12.731  0.00  0.00    +0.000 A 
ATOM     14  N   UNL     1       7.211   3.974  11.523  0.00  0.00    +0.000 NA
ATOM     15  N   UNL     1       6.241   3.076  11.592  0.00  0.00    +0.000 N 
ATOM     16  C   UNL     1       5.701   3.087  12.825  0.00  0.00    +0.000 A 
ATOM     17  C   UNL     1       6.367   4.018  13.586  0.00  0.00    +0.000 A 
ATOM     18  H   UNL     1       5.946   2.470  10.794  0.00  0.00    +0.000 HD
ENDBRANCH   1  17
BRANCH   5  19
ATOM     19  C   UNL     1       2.804   5.380  19.953  0.00  0.00    +0.000 C 
BRANCH  19  20
ATOM     20  N   UNL     1       2.370   4.074  20.500  0.00  0.00    +0.000 NA
ATOM     21  C   UNL     1       0.927   3.819  20.359  0.00  0.00    +0.000 C 
ATOM     22  C   UNL     1       0.772   2.971  19.111  0.00  0.00    +0.000 C 
ATOM     23  C   UNL     1       1.942   2.031  19.256  0.00  0.00    +0.000 C 
ATOM     24  C   UNL     1       3.042   2.953  19.800  0.00  0.00    +0.000 C 
ATOM     25  C   UNL     1       3.946   2.212  20.786  0.00  0.00    +0.000 C 
ENDBRANCH  19  20
ENDBRANCH   5  19
TORSDOF 3
ENDMDL
MODEL 7
REMARK VINA RESULT:      -6.9      3.018      3.779
REMARK  Name = 
REMARK  5 active torsions:
REMARK  status: ('A' for Active; 'I' for Inactive)
REMARK    1  A    between atoms: C_1  and  C_2
REMARK    2  A    between atoms: C_6  and  C_7
REMARK    3  A    between atoms: C_11  and  C_12
REMARK    4  A    between atoms: C_12  and  N_13
REMARK    5  A    between atoms: C_17  and  C_18
REMARK                            x       y       z     vdW  Elec       q    Type
REMARK                         _______ _______ _______ _____ _____    ______ ____
ROOT
ATOM      1  C   UNL     1       2.838   5.312  19.266  0.00  0.00    +0.000 A 
ATOM      2  C   UNL     1       2.261   5.922  20.379  0.00  0.00    +0.000 A 
ATOM      3  C   UNL     1       1.855   7.227  20.114  0.00  0.00    +0.000 A 
ATOM      4  N   UNL     1       1.264   8.055  21.011  0.00  0.00    +0.000 NA
ATOM      5  C   UNL     1       0.959   9.333  20.645  0.00  0.00    +0.000 A 
ATOM      6  N   UNL     1       1.256   9.784  19.384  0.00  0.00    +0.000 N 
ATOM      7  C   UNL     1       1.828   8.947  18.451  0.00  0.00    +0.000 A 
ATOM      8  O   UNL     1       2.087   9.352  17.328  0.00  0.00    +0.000 OA
ATOM      9  C   UNL     1       2.124   7.647  18.831  0.00  0.00    +0.000 A 
ATOM     10  S   UNL     1       2.817   6.391  17.954  0.00  0.00    +0.000 S 
ATOM     11  H   UNL     1       1.035  10.772  19.120  0.00  0.00    +0.000 HD
ENDROOT
BRANCH   1  17
ATOM     12  C   UNL     1       1.317   2.524  18.781  0.00  0.00    +0.000 C 
ATOM     13  C   UNL     1       2.779   2.750  18.989  0.00  0.00    +0.000 A 
ATOM     14  N   UNL     1       3.680   1.750  19.084  0.00  0.00    +0.000 NA
ATOM     15  N   UNL     1       4.860   2.288  19.350  0.00  0.00    +0.000 N 
ATOM     16  C   UNL     1       4.736   3.624  19.446  0.00  0.00    +0.000 A 
ATOM     17  C   UNL     1       3.424   3.961  19.211  0.00  0.00    +0.000 A 
ATOM     18  H   UNL     1       5.739   1.739  19.476  0.00  0.00    +0.000 HD
ENDBRANCH   1  17
BRANCH   5  19
ATOM     19  C   UNL     1       0.323  10.249  21.647  0.00  0.00    +0.000 C 
BRANCH  19  20
ATOM     20  N   UNL     1      -0.157  11.495  21.006  0.00  0.00    +0.000 NA
ATOM     21  C   UNL     1      -1.548  11.840  21.341  0.00  0.00    +0.000 C 
ATOM     22  C   UNL     1      -1.468  12.848  22.472  0.00  0.00    +0.000 C 
ATOM     23  C   UNL     1      -0.311  13.699  22.016  0.00  0.00    +0.000 C 
ATOM     24  C   UNL     1       0.655  12.660  21.431  0.00  0.00    +0.000 C 
ATOM     25  C   UNL     1       1.405  13.221  20.223  0.00  0.00    +0.000 C 
ENDBRANCH  19  20
ENDBRANCH   5  19
TORSDOF 3
ENDMDL
MODEL 8
REMARK VINA RESULT:      -6.9      1.211      1.402
REMARK  Name = 
REMARK  5 active torsions:
REMARK  status: ('A' for Active; 'I' for Inactive)
REMARK    1  A    between atoms: C_1  and  C_2
REMARK    2  A    between atoms: C_6  and  C_7
REMARK    3  A    between atoms: C_11  and  C_12
REMARK    4  A    between atoms: C_12  and  N_13
REMARK    5  A    between atoms: C_17  and  C_18
REMARK                            x       y       z     vdW  Elec       q    Type
REMARK                         _______ _______ _______ _____ _____    ______ ____
ROOT
ATOM      1  C   UNL     1       4.468   5.024  17.408  0.00  0.00    +0.000 A 
ATOM      2  C   UNL     1       4.210   6.273  17.972  0.00  0.00    +0.000 A 
ATOM      3  C   UNL     1       3.211   6.218  18.940  0.00  0.00    +0.000 A 
ATOM      4  N   UNL     1       2.757   7.281  19.649  0.00  0.00    +0.000 NA
ATOM      5  C   UNL     1       1.735   7.109  20.537  0.00  0.00    +0.000 A 
ATOM      6  N   UNL     1       1.162   5.875  20.704  0.00  0.00    +0.000 N 
ATOM      7  C   UNL     1       1.631   4.778  20.014  0.00  0.00    +0.000 A 
ATOM      8  O   UNL     1       1.120   3.680  20.170  0.00  0.00    +0.000 OA
ATOM      9  C   UNL     1       2.677   4.963  19.123  0.00  0.00    +0.000 A 
ATOM     10  S   UNL     1       3.470   3.857  18.136  0.00  0.00    +0.000 S 
ATOM     11  H   UNL     1       0.366   5.758  21.373  0.00  0.00    +0.000 HD
ENDROOT
BRANCH   1  17
ATOM     12  C   UNL     1       7.648   4.626  17.627  0.00  0.00    +0.000 C 
ATOM     13  C   UNL     1       6.793   4.544  16.405  0.00  0.00    +0.000 A 
ATOM     14  N   UNL     1       7.287   4.361  15.163  0.00  0.00    +0.000 NA
ATOM     15  N   UNL     1       6.277   4.422  14.309  0.00  0.00    +0.000 N 
ATOM     16  C   UNL     1       5.133   4.658  14.978  0.00  0.00    +0.000 A 
ATOM     17  C   UNL     1       5.419   4.731  16.321  0.00  0.00    +0.000 A 
ATOM     18  H   UNL     1       6.376   4.314  13.275  0.00  0.00    +0.000 HD
ENDBRANCH   1  17
BRANCH   5  19
ATOM     19  C   UNL     1       1.225   8.292  21.304  0.00  0.00    +0.000 C 
BRANCH  19  20
ATOM     20  N   UNL     1       0.279   9.091  20.492  0.00  0.00    +0.000 NA
ATOM     21  C   UNL     1      -0.670   9.883  21.291  0.00  0.00    +0.000 C 
ATOM     22  C   UNL     1      -0.082  11.279  21.374  0.00  0.00    +0.000 C 
ATOM     23  C   UNL     1       0.431  11.458  19.968  0.00  0.00    +0.000 C 
ATOM     24  C   UNL     1       0.999  10.069  19.644  0.00  0.00    +0.000 C 
ATOM     25  C   UNL     1       0.786   9.715  18.171  0.00  0.00    +0.000 C 
ENDBRANCH  19  20
ENDBRANCH   5  19
TORSDOF 3
ENDMDL
MODEL 9
REMARK VINA RESULT:      -6.8      3.040      3.999
REMARK  Name = 
REMARK  5 active torsions:
REMARK  status: ('A' for Active; 'I' for Inactive)
REMARK    1  A    between atoms: C_1  and  C_2
REMARK    2  A    between atoms: C_6  and  C_7
REMARK    3  A    between atoms: C_11  and  C_12
REMARK    4  A    between atoms: C_12  and  N_13
REMARK    5  A    between atoms: C_17  and  C_18
REMARK                            x       y       z     vdW  Elec       q    Type
REMARK                         _______ _______ _______ _____ _____    ______ ____
ROOT
ATOM      1  C   UNL     1       2.665   5.286  19.223  0.00  0.00    +0.000 A 
ATOM      2  C   UNL     1       2.242   5.958  20.369  0.00  0.00    +0.000 A 
ATOM      3  C   UNL     1       1.912   7.285  20.112  0.00  0.00    +0.000 A 
ATOM      4  N   UNL     1       1.473   8.171  21.040  0.00  0.00    +0.000 NA
ATOM      5  C   UNL     1       1.231   9.462  20.673  0.00  0.00    +0.000 A 
ATOM      6  N   UNL     1       1.441   9.867  19.380  0.00  0.00    +0.000 N 
ATOM      7  C   UNL     1       1.858   8.974  18.417  0.00  0.00    +0.000 A 
ATOM      8  O   UNL     1       2.040   9.338  17.267  0.00  0.00    +0.000 OA
ATOM      9  C   UNL     1       2.090   7.661  18.800  0.00  0.00    +0.000 A 
ATOM     10  S   UNL     1       2.601   6.341  17.893  0.00  0.00    +0.000 S 
ATOM     11  H   UNL     1       1.271  10.865  19.114  0.00  0.00    +0.000 HD
ENDROOT
BRANCH   1  17
ATOM     12  C   UNL     1       0.911   2.629  18.792  0.00  0.00    +0.000 C 
ATOM     13  C   UNL     1       2.393   2.738  18.947  0.00  0.00    +0.000 A 
ATOM     14  N   UNL     1       3.215   1.669  19.008  0.00  0.00    +0.000 NA
ATOM     15  N   UNL     1       4.442   2.111  19.233  0.00  0.00    +0.000 N 
ATOM     16  C   UNL     1       4.428   3.453  19.334  0.00  0.00    +0.000 A 
ATOM     17  C   UNL     1       3.139   3.893  19.146  0.00  0.00    +0.000 A 
ATOM     18  H   UNL     1       5.279   1.494  19.327  0.00  0.00    +0.000 HD
ENDBRANCH   1  17
BRANCH   5  19
ATOM     19  C   UNL     1       0.763  10.441  21.707  0.00  0.00    +0.000 C 
BRANCH  19  20
ATOM     20  N   UNL     1      -0.695  10.681  21.599  0.00  0.00    +0.000 NA
ATOM     21  C   UNL     1      -1.362  10.888  22.895  0.00  0.00    +0.000 C 
ATOM     22  C   UNL     1      -1.467  12.391  23.075  0.00  0.00    +0.000 C 
ATOM     23  C   UNL     1      -1.840  12.822  21.680  0.00  0.00    +0.000 C 
ATOM     24  C   UNL     1      -0.977  11.901  20.806  0.00  0.00    +0.000 C 
ATOM     25  C   UNL     1      -1.711  11.510  19.522  0.00  0.00    +0.000 C 
ENDBRANCH  19  20
ENDBRANCH   5  19
TORSDOF 3
ENDMDL
