MODEL 1
REMARK VINA RESULT:      -7.8      0.000      0.000
REMARK  Name = 
REMARK  8 active torsions:
REMARK  status: ('A' for Active; 'I' for Inactive)
REMARK    1  A    between atoms: C_1  and  C_2
REMARK    2  A    between atoms: C_2  and  O_3
REMARK    3  A    between atoms: O_3  and  C_4
REMARK    4  A    between atoms: C_4  and  C_6
REMARK    5  A    between atoms: C_11  and  N_12
REMARK    6  A    between atoms: C_13  and  C_15
REMARK    7  A    between atoms: C_15  and  S_16
REMARK    8  A    between atoms: S_16  and  C_17
REMARK                            x       y       z     vdW  Elec       q    Type
REMARK                         _______ _______ _______ _____ _____    ______ ____
ROOT
ATOM      1  N   UNL     1       6.331   7.428  16.875  0.00  0.00    +0.000 N 
ATOM      2  C   UNL     1       7.421   7.654  17.708  0.00  0.00    +0.000 C 
ATOM      3  O   UNL     1       7.872   6.844  18.520  0.00  0.00    +0.000 OA
ATOM      4  H   UNL     1       6.226   8.033  16.066  0.00  0.00    +0.000 HD
ENDROOT
BRANCH   1  10
ATOM      5  C   UNL     1       5.566   5.155  16.211  0.00  0.00    +0.000 A 
ATOM      6  C   UNL     1       4.667   4.083  16.423  0.00  0.00    +0.000 A 
ATOM      7  C   UNL     1       3.619   4.177  17.336  0.00  0.00    +0.000 A 
ATOM      8  C   UNL     1       3.437   5.355  18.034  0.00  0.00    +0.000 A 
ATOM      9  C   UNL     1       4.321   6.417  17.850  0.00  0.00    +0.000 A 
ATOM     10  C   UNL     1       5.423   6.335  16.975  0.00  0.00    +0.000 A 
BRANCH   5  11
ATOM     11  C   UNL     1       6.596   4.882  15.165  0.00  0.00    +0.000 C 
ATOM     12  O   UNL     1       7.608   5.561  15.050  0.00  0.00    +0.000 OA
BRANCH  11  13
ATOM     13  O   UNL     1       6.281   3.829  14.370  0.00  0.00    +0.000 OA
BRANCH  13  15
ATOM     14  C   UNL     1       5.775   3.091  12.112  0.00  0.00    +0.000 C 
ATOM     15  C   UNL     1       6.596   4.031  12.979  0.00  0.00    +0.000 C 
ENDBRANCH  13  15
ENDBRANCH  11  13
ENDBRANCH   5  11
ENDBRANCH   1  10
BRANCH   2  16
ATOM     16  C   UNL     1       8.184   8.946  17.496  0.00  0.00    +0.000 C 
BRANCH  16  17
ATOM     17  S   UNL     1       9.019   9.603  18.939  0.00  0.00    +0.000 S 
BRANCH  17  18
ATOM     18  C   UNL     1       9.401  11.234  18.476  0.00  0.00    +0.000 A 
ATOM     19  N   UNL     1      10.562  11.402  17.738  0.00  0.00    +0.000 NA
ATOM     20  C   UNL     1      10.595  12.674  17.521  0.00  0.00    +0.000 A 
ATOM     21  C   UNL     1      11.586  13.477  16.790  0.00  0.00    +0.000 A 
ATOM     22  C   UNL     1      11.322  14.792  16.726  0.00  0.00    +0.000 A 
ATOM     23  N   UNL     1      10.214  15.369  17.307  0.00  0.00    +0.000 N 
ATOM     24  C   UNL     1       9.280  14.619  17.998  0.00  0.00    +0.000 A 
ATOM     25  C   UNL     1       9.420  13.300  18.141  0.00  0.00    +0.000 A 
ATOM     26  N   UNL     1       8.698  12.303  18.750  0.00  0.00    +0.000 NA
ATOM     27  H   UNL     1      10.061  16.367  17.191  0.00  0.00    +0.000 HD
ENDBRANCH  17  18
ENDBRANCH  16  17
ENDBRANCH   2  16
TORSDOF 7
ENDMDL
MODEL 2
REMARK VINA RESULT:      -7.6      6.139      9.041
REMARK  Name = 
REMARK  8 active torsions:
REMARK  status: ('A' for Active; 'I' for Inactive)
REMARK    1  A    between atoms: C_1  and  C_2
REMARK    2  A    between atoms: C_2  and  O_3
REMARK    3  A    between atoms: O_3  and  C_4
REMARK    4  A    between atoms: C_4  and  C_6
REMARK    5  A    between atoms: C_11  and  N_12
REMARK    6  A    between atoms: C_13  and  C_15
REMARK    7  A    between atoms: C_15  and  S_16
REMARK    8  A    between atoms: S_16  and  C_17
REMARK                            x       y       z     vdW  Elec       q    Type
REMARK                         _______ _______ _______ _____ _____    ______ ____
ROOT
ATOM      1  N   UNL     1       2.587   6.580  20.246  0.00  0.00    +0.000 N 
ATOM      2  C   UNL     1       2.182   5.268  20.032  0.00  0.00    +0.000 C 
ATOM      3  O   UNL     1       1.462   4.891  19.105  0.00  0.00    +0.000 OA
ATOM      4  H   UNL     1       3.389   6.730  20.851  0.00  0.00    +0.000 HD
ENDROOT
BRANCH   1  10
ATOM      5  C   UNL     1       1.377   8.754  20.264  0.00  0.00    +0.000 A 
ATOM      6  C   UNL     1       0.958   9.899  19.546  0.00  0.00    +0.000 A 
ATOM      7  C   UNL     1       1.170  10.021  18.176  0.00  0.00    +0.000 A 
ATOM      8  C   UNL     1       1.784   8.987  17.494  0.00  0.00    +0.000 A 
ATOM      9  C   UNL     1       2.218   7.858  18.187  0.00  0.00    +0.000 A 
ATOM     10  C   UNL     1       2.067   7.728  19.582  0.00  0.00    +0.000 A 
BRANCH   5  11
ATOM     11  C   UNL     1       1.023   8.787  21.715  0.00  0.00    +0.000 C 
ATOM     12  O   UNL     1       1.870   8.721  22.597  0.00  0.00    +0.000 OA
BRANCH  11  13
ATOM     13  O   UNL     1      -0.312   8.886  21.935  0.00  0.00    +0.000 OA
BRANCH  13  15
ATOM     14  C   UNL     1      -1.028  11.059  22.748  0.00  0.00    +0.000 C 
ATOM     15  C   UNL     1      -0.657   9.633  23.117  0.00  0.00    +0.000 C 
ENDBRANCH  13  15
ENDBRANCH  11  13
ENDBRANCH   5  11
ENDBRANCH   1  10
BRANCH   2  16
ATOM     16  C   UNL     1       2.785   4.212  20.935  0.00  0.00    +0.000 C 
BRANCH  16  17
ATOM     17  S   UNL     1       3.571   2.832  20.104  0.00  0.00    +0.000 S 
BRANCH  17  18
ATOM     18  C   UNL     1       4.624   3.601  18.955  0.00  0.00    +0.000 A 
ATOM     19  N   UNL     1       4.252   3.499  17.624  0.00  0.00    +0.000 NA
ATOM     20  C   UNL     1       5.177   4.155  17.006  0.00  0.00    +0.000 A 
ATOM     21  C   UNL     1       5.347   4.410  15.568  0.00  0.00    +0.000 A 
ATOM     22  C   UNL     1       6.416   5.153  15.241  0.00  0.00    +0.000 A 
ATOM     23  N   UNL     1       7.310   5.640  16.170  0.00  0.00    +0.000 N 
ATOM     24  C   UNL     1       7.157   5.401  17.523  0.00  0.00    +0.000 A 
ATOM     25  C   UNL     1       6.138   4.675  17.986  0.00  0.00    +0.000 A 
ATOM     26  N   UNL     1       5.718   4.267  19.228  0.00  0.00    +0.000 NA
ATOM     27  H   UNL     1       8.080   6.222  15.852  0.00  0.00    +0.000 HD
ENDBRANCH  17  18
ENDBRANCH  16  17
ENDBRANCH   2  16
TORSDOF 7
ENDMDL
MODEL 3
REMARK VINA RESULT:      -7.5      5.561      7.556
REMARK  Name = 
REMARK  8 active torsions:
REMARK  status: ('A' for Active; 'I' for Inactive)
REMARK    1  A    between atoms: C_1  and  C_2
REMARK    2  A    between atoms: C_2  and  O_3
REMARK    3  A    between atoms: O_3  and  C_4
REMARK    4  A    between atoms: C_4  and  C_6
REMARK    5  A    between atoms: C_11  and  N_12
REMARK    6  A    between atoms: C_13  and  C_15
REMARK    7  A    between atoms: C_15  and  S_16
REMARK    8  A    between atoms: S_16  and  C_17
REMARK                            x       y       z     vdW  Elec       q    Type
REMARK                         _______ _______ _______ _____ _____    ______ ____
ROOT
ATOM      1  N   UNL     1       4.964   3.736  17.824  0.00  0.00    +0.000 N 
ATOM      2  C   UNL     1       4.588   2.843  18.820  0.00  0.00    +0.000 C 
ATOM      3  O   UNL     1       4.909   2.929  20.007  0.00  0.00    +0.000 OA
ATOM      4  H   UNL     1       4.424   3.733  16.963  0.00  0.00    +0.000 HD
ENDROOT
BRANCH   1  10
ATOM      5  C   UNL     1       6.155   5.746  16.966  0.00  0.00    +0.000 A 
ATOM      6  C   UNL     1       7.103   6.769  17.202  0.00  0.00    +0.000 A 
ATOM      7  C   UNL     1       7.870   6.802  18.364  0.00  0.00    +0.000 A 
ATOM      8  C   UNL     1       7.720   5.796  19.300  0.00  0.00    +0.000 A 
ATOM      9  C   UNL     1       6.780   4.787  19.091  0.00  0.00    +0.000 A 
ATOM     10  C   UNL     1       5.951   4.756  17.952  0.00  0.00    +0.000 A 
BRANCH   5  11
ATOM     11  C   UNL     1       5.462   5.857  15.648  0.00  0.00    +0.000 C 
ATOM     12  O   UNL     1       5.053   6.925  15.212  0.00  0.00    +0.000 OA
BRANCH  11  13
ATOM     13  O   UNL     1       5.331   4.665  15.013  0.00  0.00    +0.000 OA
BRANCH  13  15
ATOM     14  C   UNL     1       6.007   3.592  12.942  0.00  0.00    +0.000 C 
ATOM     15  C   UNL     1       6.466   4.305  14.203  0.00  0.00    +0.000 C 
ENDBRANCH  13  15
ENDBRANCH  11  13
ENDBRANCH   5  11
ENDBRANCH   1  10
BRANCH   2  16
ATOM     16  C   UNL     1       3.602   1.761  18.428  0.00  0.00    +0.000 C 
BRANCH  16  17
ATOM     17  S   UNL     1       1.869   2.187  18.602  0.00  0.00    +0.000 S 
BRANCH  17  18
ATOM     18  C   UNL     1       1.908   3.881  18.984  0.00  0.00    +0.000 A 
ATOM     19  N   UNL     1       2.212   4.736  17.936  0.00  0.00    +0.000 NA
ATOM     20  C   UNL     1       2.158   5.905  18.481  0.00  0.00    +0.000 A 
ATOM     21  C   UNL     1       2.385   7.230  17.886  0.00  0.00    +0.000 A 
ATOM     22  C   UNL     1       2.232   8.268  18.724  0.00  0.00    +0.000 A 
ATOM     23  N   UNL     1       1.898   8.122  20.053  0.00  0.00    +0.000 N 
ATOM     24  C   UNL     1       1.685   6.879  20.619  0.00  0.00    +0.000 A 
ATOM     25  C   UNL     1       1.807   5.762  19.899  0.00  0.00    +0.000 A 
ATOM     26  N   UNL     1       1.670   4.419  20.154  0.00  0.00    +0.000 NA
ATOM     27  H   UNL     1       1.769   8.955  20.621  0.00  0.00    +0.000 HD
ENDBRANCH  17  18
ENDBRANCH  16  17
ENDBRANCH   2  16
TORSDOF 7
ENDMDL
MODEL 4
REMARK VINA RESULT:      -7.4      6.020      8.950
REMARK  Name = 
REMARK  8 active torsions:
REMARK  status: ('A' for Active; 'I' for Inactive)
REMARK    1  A    between atoms: C_1  and  C_2
REMARK    2  A    between atoms: C_2  and  O_3
REMARK    3  A    between atoms: O_3  and  C_4
REMARK    4  A    between atoms: C_4  and  C_6
REMARK    5  A    between atoms: C_11  and  N_12
REMARK    6  A    between atoms: C_13  and  C_15
REMARK    7  A    between atoms: C_15  and  S_16
REMARK    8  A    between atoms: S_16  and  C_17
REMARK                            x       y       z     vdW  Elec       q    Type
REMARK                         _______ _______ _______ _____ _____    ______ ____
ROOT
ATOM      1  N   UNL     1       2.573   6.336  20.211  0.00  0.00    +0.000 N 
ATOM      2  C   UNL     1       1.984   5.087  20.052  0.00  0.00    +0.000 C 
ATOM      3  O   UNL     1       1.215   4.777  19.140  0.00  0.00    +0.000 OA
ATOM      4  H   UNL     1       3.390   6.397  20.810  0.00  0.00    +0.000 HD
ENDROOT
BRANCH   1  10
ATOM      5  C   UNL     1       1.333   8.486  20.021  0.00  0.00    +0.000 A 
ATOM      6  C   UNL     1       1.090   9.668  19.284  0.00  0.00    +0.000 A 
ATOM      7  C   UNL     1       1.667   9.884  18.035  0.00  0.00    +0.000 A 
ATOM      8  C   UNL     1       2.479   8.907  17.490  0.00  0.00    +0.000 A 
ATOM      9  C   UNL     1       2.742   7.741  18.208  0.00  0.00    +0.000 A 
ATOM     10  C   UNL     1       2.218   7.517  19.497  0.00  0.00    +0.000 A 
BRANCH   5  11
ATOM     11  C   UNL     1       0.594   8.419  21.317  0.00  0.00    +0.000 C 
ATOM     12  O   UNL     1      -0.126   7.473  21.612  0.00  0.00    +0.000 OA
BRANCH  11  13
ATOM     13  O   UNL     1       0.797   9.505  22.103  0.00  0.00    +0.000 OA
BRANCH  13  15
ATOM     14  C   UNL     1      -0.974  10.916  22.982  0.00  0.00    +0.000 C 
ATOM     15  C   UNL     1      -0.162   9.645  23.168  0.00  0.00    +0.000 C 
ENDBRANCH  13  15
ENDBRANCH  11  13
ENDBRANCH   5  11
ENDBRANCH   1  10
BRANCH   2  16
ATOM     16  C   UNL     1       2.436   3.995  21.001  0.00  0.00    +0.000 C 
BRANCH  16  17
ATOM     17  S   UNL     1       3.474   2.721  20.284  0.00  0.00    +0.000 S 
BRANCH  17  18
ATOM     18  C   UNL     1       4.365   3.570  19.058  0.00  0.00    +0.000 A 
ATOM     19  N   UNL     1       5.349   4.435  19.508  0.00  0.00    +0.000 NA
ATOM     20  C   UNL     1       5.851   4.908  18.417  0.00  0.00    +0.000 A 
ATOM     21  C   UNL     1       6.938   5.881  18.227  0.00  0.00    +0.000 A 
ATOM     22  C   UNL     1       7.242   6.156  16.949  0.00  0.00    +0.000 A 
ATOM     23  N   UNL     1       6.587   5.588  15.877  0.00  0.00    +0.000 N 
ATOM     24  C   UNL     1       5.564   4.675  16.050  0.00  0.00    +0.000 A 
ATOM     25  C   UNL     1       5.157   4.313  17.268  0.00  0.00    +0.000 A 
ATOM     26  N   UNL     1       4.200   3.462  17.763  0.00  0.00    +0.000 NA
ATOM     27  H   UNL     1       6.892   5.820  14.935  0.00  0.00    +0.000 HD
ENDBRANCH  17  18
ENDBRANCH  16  17
ENDBRANCH   2  16
TORSDOF 7
ENDMDL
MODEL 5
REMARK VINA RESULT:      -7.4      1.523      1.859
REMARK  Name = 
REMARK  8 active torsions:
REMARK  status: ('A' for Active; 'I' for Inactive)
REMARK    1  A    between atoms: C_1  and  C_2
REMARK    2  A    between atoms: C_2  and  O_3
REMARK    3  A    between atoms: O_3  and  C_4
REMARK    4  A    between atoms: C_4  and  C_6
REMARK    5  A    between atoms: C_11  and  N_12
REMARK    6  A    between atoms: C_13  and  C_15
REMARK    7  A    between atoms: C_15  and  S_16
REMARK    8  A    between atoms: S_16  and  C_17
REMARK                            x       y       z     vdW  Elec       q    Type
REMARK                         _______ _______ _______ _____ _____    ______ ____
ROOT
ATOM      1  N   UNL     1       6.315   6.437  17.793  0.00  0.00    +0.000 N 
ATOM      2  C   UNL     1       7.459   6.272  18.565  0.00  0.00    +0.000 C 
ATOM      3  O   UNL     1       7.818   5.213  19.082  0.00  0.00    +0.000 OA
ATOM      4  H   UNL     1       6.267   7.256  17.194  0.00  0.00    +0.000 HD
ENDROOT
BRANCH   1  10
ATOM      5  C   UNL     1       5.191   4.578  16.579  0.00  0.00    +0.000 A 
ATOM      6  C   UNL     1       4.155   3.614  16.556  0.00  0.00    +0.000 A 
ATOM      7  C   UNL     1       3.179   3.566  17.548  0.00  0.00    +0.000 A 
ATOM      8  C   UNL     1       3.207   4.499  18.567  0.00  0.00    +0.000 A 
ATOM      9  C   UNL     1       4.228   5.447  18.615  0.00  0.00    +0.000 A 
ATOM     10  C   UNL     1       5.262   5.487  17.658  0.00  0.00    +0.000 A 
BRANCH   5  11
ATOM     11  C   UNL     1       6.116   4.497  15.410  0.00  0.00    +0.000 C 
ATOM     12  O   UNL     1       7.330   4.605  15.528  0.00  0.00    +0.000 OA
BRANCH  11  13
ATOM     13  O   UNL     1       5.471   4.308  14.232  0.00  0.00    +0.000 OA
BRANCH  13  15
ATOM     14  C   UNL     1       5.442   3.204  12.069  0.00  0.00    +0.000 C 
ATOM     15  C   UNL     1       6.302   3.762  13.190  0.00  0.00    +0.000 C 
ENDBRANCH  13  15
ENDBRANCH  11  13
ENDBRANCH   5  11
ENDBRANCH   1  10
BRANCH   2  16
ATOM     16  C   UNL     1       8.393   7.461  18.660  0.00  0.00    +0.000 C 
BRANCH  16  17
ATOM     17  S   UNL     1       7.930   8.896  17.690  0.00  0.00    +0.000 S 
BRANCH  17  18
ATOM     18  C   UNL     1       8.793  10.195  18.456  0.00  0.00    +0.000 A 
ATOM     19  N   UNL     1       8.784  11.410  17.789  0.00  0.00    +0.000 NA
ATOM     20  C   UNL     1       9.467  12.181  18.566  0.00  0.00    +0.000 A 
ATOM     21  C   UNL     1       9.816  13.601  18.411  0.00  0.00    +0.000 A 
ATOM     22  C   UNL     1      10.532  14.128  19.416  0.00  0.00    +0.000 A 
ATOM     23  N   UNL     1      10.932  13.404  20.519  0.00  0.00    +0.000 N 
ATOM     24  C   UNL     1      10.609  12.068  20.669  0.00  0.00    +0.000 A 
ATOM     25  C   UNL     1       9.903  11.418  19.742  0.00  0.00    +0.000 A 
ATOM     26  N   UNL     1       9.435  10.136  19.595  0.00  0.00    +0.000 NA
ATOM     27  H   UNL     1      11.446  13.877  21.257  0.00  0.00    +0.000 HD
ENDBRANCH  17  18
ENDBRANCH  16  17
ENDBRANCH   2  16
TORSDOF 7
ENDMDL
MODEL 6
REMARK VINA RESULT:      -7.3      5.768      8.521
REMARK  Name = 
REMARK  8 active torsions:
REMARK  status: ('A' for Active; 'I' for Inactive)
REMARK    1  A    between atoms: C_1  and  C_2
REMARK    2  A    between atoms: C_2  and  O_3
REMARK    3  A    between atoms: O_3  and  C_4
REMARK    4  A    between atoms: C_4  and  C_6
REMARK    5  A    between atoms: C_11  and  N_12
REMARK    6  A    between atoms: C_13  and  C_15
REMARK    7  A    between atoms: C_15  and  S_16
REMARK    8  A    between atoms: S_16  and  C_17
REMARK                            x       y       z     vdW  Elec       q    Type
REMARK                         _______ _______ _______ _____ _____    ______ ____
ROOT
ATOM      1  N   UNL     1       2.571   6.542  18.577  0.00  0.00    +0.000 N 
ATOM      2  C   UNL     1       1.999   7.050  19.737  0.00  0.00    +0.000 C 
ATOM      3  O   UNL     1       1.800   6.406  20.769  0.00  0.00    +0.000 OA
ATOM      4  H   UNL     1       2.944   7.208  17.907  0.00  0.00    +0.000 HD
ENDROOT
BRANCH   1  10
ATOM      5  C   UNL     1       4.097   4.587  18.370  0.00  0.00    +0.000 A 
ATOM      6  C   UNL     1       4.240   3.195  18.159  0.00  0.00    +0.000 A 
ATOM      7  C   UNL     1       3.151   2.387  17.847  0.00  0.00    +0.000 A 
ATOM      8  C   UNL     1       1.901   2.961  17.714  0.00  0.00    +0.000 A 
ATOM      9  C   UNL     1       1.737   4.329  17.932  0.00  0.00    +0.000 A 
ATOM     10  C   UNL     1       2.810   5.164  18.304  0.00  0.00    +0.000 A 
BRANCH   5  11
ATOM     11  C   UNL     1       5.383   5.291  18.653  0.00  0.00    +0.000 C 
ATOM     12  O   UNL     1       6.204   4.858  19.452  0.00  0.00    +0.000 OA
BRANCH  11  13
ATOM     13  O   UNL     1       5.527   6.441  17.948  0.00  0.00    +0.000 OA
BRANCH  13  15
ATOM     14  C   UNL     1       7.641   7.574  17.566  0.00  0.00    +0.000 C 
ATOM     15  C   UNL     1       6.699   6.472  17.111  0.00  0.00    +0.000 C 
ENDBRANCH  13  15
ENDBRANCH  11  13
ENDBRANCH   5  11
ENDBRANCH   1  10
BRANCH   2  16
ATOM     16  C   UNL     1       1.729   8.540  19.768  0.00  0.00    +0.000 C 
BRANCH  16  17
ATOM     17  S   UNL     1       1.494   9.322  18.171  0.00  0.00    +0.000 S 
BRANCH  17  18
ATOM     18  C   UNL     1      -0.020  10.157  18.351  0.00  0.00    +0.000 A 
ATOM     19  N   UNL     1      -1.028   9.786  17.475  0.00  0.00    +0.000 NA
ATOM     20  C   UNL     1      -2.020  10.532  17.830  0.00  0.00    +0.000 A 
ATOM     21  C   UNL     1      -3.381  10.611  17.280  0.00  0.00    +0.000 A 
ATOM     22  C   UNL     1      -4.196  11.485  17.891  0.00  0.00    +0.000 A 
ATOM     23  N   UNL     1      -3.800  12.273  18.951  0.00  0.00    +0.000 N 
ATOM     24  C   UNL     1      -2.521  12.205  19.471  0.00  0.00    +0.000 A 
ATOM     25  C   UNL     1      -1.608  11.379  18.957  0.00  0.00    +0.000 A 
ATOM     26  N   UNL     1      -0.295  11.085  19.232  0.00  0.00    +0.000 NA
ATOM     27  H   UNL     1      -4.481  12.891  19.385  0.00  0.00    +0.000 HD
ENDBRANCH  17  18
ENDBRANCH  16  17
ENDBRANCH   2  16
TORSDOF 7
ENDMDL
MODEL 7
REMARK VINA RESULT:      -7.2      5.496      7.618
REMARK  Name = 
REMARK  8 active torsions:
REMARK  status: ('A' for Active; 'I' for Inactive)
REMARK    1  A    between atoms: C_1  and  C_2
REMARK    2  A    between atoms: C_2  and  O_3
REMARK    3  A    between atoms: O_3  and  C_4
REMARK    4  A    between atoms: C_4  and  C_6
REMARK    5  A    between atoms: C_11  and  N_12
REMARK    6  A    between atoms: C_13  and  C_15
REMARK    7  A    between atoms: C_15  and  S_16
REMARK    8  A    between atoms: S_16  and  C_17
REMARK                            x       y       z     vdW  Elec       q    Type
REMARK                         _______ _______ _______ _____ _____    ______ ____
ROOT
ATOM      1  N   UNL     1       4.958   3.607  17.906  0.00  0.00    +0.000 N 
ATOM      2  C   UNL     1       4.615   2.706  18.907  0.00  0.00    +0.000 C 
ATOM      3  O   UNL     1       4.979   2.779  20.082  0.00  0.00    +0.000 OA
ATOM      4  H   UNL     1       4.387   3.615  17.066  0.00  0.00    +0.000 HD
ENDROOT
BRANCH   1  10
ATOM      5  C   UNL     1       6.252   5.504  16.947  0.00  0.00    +0.000 A 
ATOM      6  C   UNL     1       7.202   6.533  17.153  0.00  0.00    +0.000 A 
ATOM      7  C   UNL     1       7.881   6.671  18.360  0.00  0.00    +0.000 A 
ATOM      8  C   UNL     1       7.641   5.765  19.376  0.00  0.00    +0.000 A 
ATOM      9  C   UNL     1       6.698   4.753  19.198  0.00  0.00    +0.000 A 
ATOM     10  C   UNL     1       5.954   4.620  18.008  0.00  0.00    +0.000 A 
BRANCH   5  11
ATOM     11  C   UNL     1       5.661   5.493  15.576  0.00  0.00    +0.000 C 
ATOM     12  O   UNL     1       5.278   6.515  15.021  0.00  0.00    +0.000 OA
BRANCH  11  13
ATOM     13  O   UNL     1       5.588   4.250  15.038  0.00  0.00    +0.000 OA
BRANCH  13  15
ATOM     14  C   UNL     1       5.537   3.522  12.721  0.00  0.00    +0.000 C 
ATOM     15  C   UNL     1       6.387   4.077  13.852  0.00  0.00    +0.000 C 
ENDBRANCH  13  15
ENDBRANCH  11  13
ENDBRANCH   5  11
ENDBRANCH   1  10
BRANCH   2  16
ATOM     16  C   UNL     1       3.609   1.632  18.542  0.00  0.00    +0.000 C 
BRANCH  16  17
ATOM     17  S   UNL     1       1.885   2.117  18.632  0.00  0.00    +0.000 S 
BRANCH  17  18
ATOM     18  C   UNL     1       1.959   3.851  18.717  0.00  0.00    +0.000 A 
ATOM     19  N   UNL     1       1.684   4.412  19.955  0.00  0.00    +0.000 NA
ATOM     20  C   UNL     1       1.821   5.678  19.744  0.00  0.00    +0.000 A 
ATOM     21  C   UNL     1       1.662   6.808  20.671  0.00  0.00    +0.000 A 
ATOM     22  C   UNL     1       1.895   8.020  20.143  0.00  0.00    +0.000 A 
ATOM     23  N   UNL     1       2.248   8.214  18.824  0.00  0.00    +0.000 N 
ATOM     24  C   UNL     1       2.397   7.155  17.947  0.00  0.00    +0.000 A 
ATOM     25  C   UNL     1       2.193   5.897  18.340  0.00  0.00    +0.000 A 
ATOM     26  N   UNL     1       2.253   4.665  17.736  0.00  0.00    +0.000 NA
ATOM     27  H   UNL     1       2.440   9.158  18.501  0.00  0.00    +0.000 HD
ENDBRANCH  17  18
ENDBRANCH  16  17
ENDBRANCH   2  16
TORSDOF 7
ENDMDL
MODEL 8
REMARK VINA RESULT:      -7.2      5.740      8.478
REMARK  Name = 
REMARK  8 active torsions:
REMARK  status: ('A' for Active; 'I' for Inactive)
REMARK    1  A    between atoms: C_1  and  C_2
REMARK    2  A    between atoms: C_2  and  O_3
REMARK    3  A    between atoms: O_3  and  C_4
REMARK    4  A    between atoms: C_4  and  C_6
REMARK    5  A    between atoms: C_11  and  N_12
REMARK    6  A    between atoms: C_13  and  C_15
REMARK    7  A    between atoms: C_15  and  S_16
REMARK    8  A    between atoms: S_16  and  C_17
REMARK                            x       y       z     vdW  Elec       q    Type
REMARK                         _______ _______ _______ _____ _____    ______ ____
ROOT
ATOM      1  N   UNL     1       2.330   6.418  17.762  0.00  0.00    +0.000 N 
ATOM      2  C   UNL     1       2.153   7.273  18.843  0.00  0.00    +0.000 C 
ATOM      3  O   UNL     1       2.347   6.972  20.023  0.00  0.00    +0.000 OA
ATOM      4  H   UNL     1       2.419   6.839  16.841  0.00  0.00    +0.000 HD
ENDROOT
BRANCH   1  10
ATOM      5  C   UNL     1       3.714   4.388  17.367  0.00  0.00    +0.000 A 
ATOM      6  C   UNL     1       3.878   2.995  17.552  0.00  0.00    +0.000 A 
ATOM      7  C   UNL     1       2.893   2.215  18.151  0.00  0.00    +0.000 A 
ATOM      8  C   UNL     1       1.713   2.811  18.553  0.00  0.00    +0.000 A 
ATOM      9  C   UNL     1       1.538   4.185  18.393  0.00  0.00    +0.000 A 
ATOM     10  C   UNL     1       2.538   5.011  17.841  0.00  0.00    +0.000 A 
BRANCH   5  11
ATOM     11  C   UNL     1       4.859   5.045  16.670  0.00  0.00    +0.000 C 
ATOM     12  O   UNL     1       5.362   4.578  15.655  0.00  0.00    +0.000 OA
BRANCH  11  13
ATOM     13  O   UNL     1       5.275   6.181  17.282  0.00  0.00    +0.000 OA
BRANCH  13  15
ATOM     14  C   UNL     1       7.461   7.204  17.556  0.00  0.00    +0.000 C 
ATOM     15  C   UNL     1       6.545   6.056  17.950  0.00  0.00    +0.000 C 
ENDBRANCH  13  15
ENDBRANCH  11  13
ENDBRANCH   5  11
ENDBRANCH   1  10
BRANCH   2  16
ATOM     16  C   UNL     1       1.826   8.717  18.524  0.00  0.00    +0.000 C 
BRANCH  16  17
ATOM     17  S   UNL     1       0.959   9.621  19.807  0.00  0.00    +0.000 S 
BRANCH  17  18
ATOM     18  C   UNL     1      -0.446  10.233  18.988  0.00  0.00    +0.000 A 
ATOM     19  N   UNL     1      -0.660   9.755  17.705  0.00  0.00    +0.000 NA
ATOM     20  C   UNL     1      -1.751  10.346  17.346  0.00  0.00    +0.000 A 
ATOM     21  C   UNL     1      -2.498  10.253  16.083  0.00  0.00    +0.000 A 
ATOM     22  C   UNL     1      -3.620  10.988  16.027  0.00  0.00    +0.000 A 
ATOM     23  N   UNL     1      -4.052  11.788  17.062  0.00  0.00    +0.000 N 
ATOM     24  C   UNL     1      -3.352  11.881  18.251  0.00  0.00    +0.000 A 
ATOM     25  C   UNL     1      -2.218  11.206  18.441  0.00  0.00    +0.000 A 
ATOM     26  N   UNL     1      -1.315  11.087  19.469  0.00  0.00    +0.000 NA
ATOM     27  H   UNL     1      -4.928  12.293  16.961  0.00  0.00    +0.000 HD
ENDBRANCH  17  18
ENDBRANCH  16  17
ENDBRANCH   2  16
TORSDOF 7
ENDMDL
MODEL 9
REMARK VINA RESULT:      -7.2      6.306      8.472
REMARK  Name = 
REMARK  8 active torsions:
REMARK  status: ('A' for Active; 'I' for Inactive)
REMARK    1  A    between atoms: C_1  and  C_2
REMARK    2  A    between atoms: C_2  and  O_3
REMARK    3  A    between atoms: O_3  and  C_4
REMARK    4  A    between atoms: C_4  and  C_6
REMARK    5  A    between atoms: C_11  and  N_12
REMARK    6  A    between atoms: C_13  and  C_15
REMARK    7  A    between atoms: C_15  and  S_16
REMARK    8  A    between atoms: S_16  and  C_17
REMARK                            x       y       z     vdW  Elec       q    Type
REMARK                         _______ _______ _______ _____ _____    ______ ____
ROOT
ATOM      1  N   UNL     1       2.399   6.597  17.950  0.00  0.00    +0.000 N 
ATOM      2  C   UNL     1       2.038   7.421  19.009  0.00  0.00    +0.000 C 
ATOM      3  O   UNL     1       2.023   7.086  20.195  0.00  0.00    +0.000 OA
ATOM      4  H   UNL     1       2.648   7.043  17.072  0.00  0.00    +0.000 HD
ENDROOT
BRANCH   1  10
ATOM      5  C   UNL     1       3.868   4.589  17.978  0.00  0.00    +0.000 A 
ATOM      6  C   UNL     1       3.979   3.187  18.134  0.00  0.00    +0.000 A 
ATOM      7  C   UNL     1       2.858   2.377  18.289  0.00  0.00    +0.000 A 
ATOM      8  C   UNL     1       1.601   2.953  18.265  0.00  0.00    +0.000 A 
ATOM      9  C   UNL     1       1.472   4.334  18.128  0.00  0.00    +0.000 A 
ATOM     10  C   UNL     1       2.590   5.187  18.024  0.00  0.00    +0.000 A 
BRANCH   5  11
ATOM     11  C   UNL     1       5.177   5.280  17.783  0.00  0.00    +0.000 C 
ATOM     12  O   UNL     1       5.271   6.500  17.728  0.00  0.00    +0.000 OA
BRANCH  11  13
ATOM     13  O   UNL     1       6.221   4.422  17.666  0.00  0.00    +0.000 OA
BRANCH  13  15
ATOM     14  C   UNL     1       6.333   4.107  15.260  0.00  0.00    +0.000 C 
ATOM     15  C   UNL     1       7.033   4.644  16.498  0.00  0.00    +0.000 C 
ENDBRANCH  13  15
ENDBRANCH  11  13
ENDBRANCH   5  11
ENDBRANCH   1  10
BRANCH   2  16
ATOM     16  C   UNL     1       1.773   8.876  18.680  0.00  0.00    +0.000 C 
BRANCH  16  17
ATOM     17  S   UNL     1       0.848   9.797  19.910  0.00  0.00    +0.000 S 
BRANCH  17  18
ATOM     18  C   UNL     1      -0.584  10.284  19.055  0.00  0.00    +0.000 A 
ATOM     19  N   UNL     1      -0.672   9.878  17.732  0.00  0.00    +0.000 NA
ATOM     20  C   UNL     1      -1.812  10.351  17.352  0.00  0.00    +0.000 A 
ATOM     21  C   UNL     1      -2.479  10.257  16.045  0.00  0.00    +0.000 A 
ATOM     22  C   UNL     1      -3.683  10.845  15.973  0.00  0.00    +0.000 A 
ATOM     23  N   UNL     1      -4.265  11.506  17.034  0.00  0.00    +0.000 N 
ATOM     24  C   UNL     1      -3.642  11.600  18.264  0.00  0.00    +0.000 A 
ATOM     25  C   UNL     1      -2.439  11.061  18.473  0.00  0.00    +0.000 A 
ATOM     26  N   UNL     1      -1.579  10.983  19.540  0.00  0.00    +0.000 NA
ATOM     27  H   UNL     1      -5.194  11.902  16.916  0.00  0.00    +0.000 HD
ENDBRANCH  17  18
ENDBRANCH  16  17
ENDBRANCH   2  16
TORSDOF 7
ENDMDL
