MODEL 1
REMARK VINA RESULT:      -8.6      0.000      0.000
REMARK  Name = 
REMARK  6 active torsions:
REMARK  status: ('A' for Active; 'I' for Inactive)
REMARK    1  A    between atoms: C_1  and  C_2
REMARK    2  A    between atoms: C_2  and  O_3
REMARK    3  A    between atoms: O_3  and  C_4
REMARK    4  A    between atoms: C_4  and  C_6
REMARK    5  A    between atoms: C_15  and  C_16
REMARK    6  A    between atoms: C_17  and  C_18
REMARK                            x       y       z     vdW  Elec       q    Type
REMARK                         _______ _______ _______ _____ _____    ______ ____
ROOT
ATOM      1  C   UNL     1       4.779   4.885  18.894  0.00  0.00    +0.000 A 
ATOM      2  N   UNL     1       4.047   4.846  20.049  0.00  0.00    +0.000 NA
ATOM      3  C   UNL     1       2.954   4.071  20.046  0.00  0.00    +0.000 A 
ATOM      4  C   UNL     1       2.222   3.934  21.219  0.00  0.00    +0.000 A 
ATOM      5  C   UNL     1       1.121   3.081  21.291  0.00  0.00    +0.000 A 
ATOM      6  C   UNL     1       0.734   2.372  20.162  0.00  0.00    +0.000 A 
ATOM      7  C   UNL     1       1.443   2.529  18.968  0.00  0.00    +0.000 A 
ATOM      8  C   UNL     1       2.555   3.360  18.887  0.00  0.00    +0.000 A 
ATOM      9  N   UNL     1       3.250   3.452  17.731  0.00  0.00    +0.000 NA
ATOM     10  C   UNL     1       4.380   4.207  17.753  0.00  0.00    +0.000 A 
ENDROOT
BRANCH   1  11
ATOM     11  C   UNL     1       6.109   5.545  18.983  0.00  0.00    +0.000 C 
ATOM     12  O   UNL     1       6.963   5.282  19.813  0.00  0.00    +0.000 OA
BRANCH  11  13
ATOM     13  O   UNL     1       6.155   6.575  18.097  0.00  0.00    +0.000 OA
BRANCH  13  15
ATOM     14  C   UNL     1       7.835   8.224  17.716  0.00  0.00    +0.000 C 
ATOM     15  C   UNL     1       7.432   6.779  17.479  0.00  0.00    +0.000 C 
ENDBRANCH  13  15
ENDBRANCH  11  13
ENDBRANCH   1  11
BRANCH  10  16
ATOM     16  C   UNL     1       5.103   4.215  16.519  0.00  0.00    +0.000 C 
ATOM     17  C   UNL     1       5.645   4.249  15.445  0.00  0.00    +0.000 C 
BRANCH  17  18
ATOM     18  C   UNL     1       6.256   4.312  14.153  0.00  0.00    +0.000 A 
ATOM     19  C   UNL     1       5.828   3.451  13.136  0.00  0.00    +0.000 A 
ATOM     20  C   UNL     1       6.443   3.485  11.881  0.00  0.00    +0.000 A 
ATOM     21  C   UNL     1       7.486   4.378  11.641  0.00  0.00    +0.000 A 
ATOM     22  C   UNL     1       7.893   5.244  12.652  0.00  0.00    +0.000 A 
ATOM     23  F   UNL     1       8.887   6.108  12.416  0.00  0.00    +0.000 F 
ATOM     24  C   UNL     1       7.284   5.223  13.904  0.00  0.00    +0.000 A 
ENDBRANCH  17  18
ENDBRANCH  10  16
TORSDOF 5
ENDMDL
MODEL 2
REMARK VINA RESULT:      -8.4      2.830      4.086
REMARK  Name = 
REMARK  6 active torsions:
REMARK  status: ('A' for Active; 'I' for Inactive)
REMARK    1  A    between atoms: C_1  and  C_2
REMARK    2  A    between atoms: C_2  and  O_3
REMARK    3  A    between atoms: O_3  and  C_4
REMARK    4  A    between atoms: C_4  and  C_6
REMARK    5  A    between atoms: C_15  and  C_16
REMARK    6  A    between atoms: C_17  and  C_18
REMARK                            x       y       z     vdW  Elec       q    Type
REMARK                         _______ _______ _______ _____ _____    ______ ____
ROOT
ATOM      1  C   UNL     1       3.692   5.157  18.886  0.00  0.00    +0.000 A 
ATOM      2  N   UNL     1       2.967   5.660  19.931  0.00  0.00    +0.000 NA
ATOM      3  C   UNL     1       2.416   6.870  19.758  0.00  0.00    +0.000 A 
ATOM      4  C   UNL     1       1.604   7.389  20.759  0.00  0.00    +0.000 A 
ATOM      5  C   UNL     1       0.946   8.608  20.598  0.00  0.00    +0.000 A 
ATOM      6  C   UNL     1       1.123   9.328  19.424  0.00  0.00    +0.000 A 
ATOM      7  C   UNL     1       1.965   8.830  18.425  0.00  0.00    +0.000 A 
ATOM      8  C   UNL     1       2.611   7.607  18.563  0.00  0.00    +0.000 A 
ATOM      9  N   UNL     1       3.379   7.128  17.559  0.00  0.00    +0.000 NA
ATOM     10  C   UNL     1       3.900   5.884  17.724  0.00  0.00    +0.000 A 
ENDROOT
BRANCH   1  11
ATOM     11  C   UNL     1       4.089   3.728  18.991  0.00  0.00    +0.000 C 
ATOM     12  O   UNL     1       5.132   3.329  19.483  0.00  0.00    +0.000 OA
BRANCH  11  13
ATOM     13  O   UNL     1       3.183   2.963  18.327  0.00  0.00    +0.000 OA
BRANCH  13  15
ATOM     14  C   UNL     1       0.912   2.490  18.878  0.00  0.00    +0.000 C 
ATOM     15  C   UNL     1       2.362   2.140  19.165  0.00  0.00    +0.000 C 
ENDBRANCH  13  15
ENDBRANCH  11  13
ENDBRANCH   1  11
BRANCH  10  16
ATOM     16  C   UNL     1       4.651   5.410  16.603  0.00  0.00    +0.000 C 
ATOM     17  C   UNL     1       5.238   5.057  15.613  0.00  0.00    +0.000 C 
BRANCH  17  18
ATOM     18  C   UNL     1       5.916   4.670  14.414  0.00  0.00    +0.000 A 
ATOM     19  C   UNL     1       7.133   5.271  14.074  0.00  0.00    +0.000 A 
ATOM     20  C   UNL     1       7.783   4.920  12.888  0.00  0.00    +0.000 A 
ATOM     21  C   UNL     1       7.218   3.969  12.039  0.00  0.00    +0.000 A 
ATOM     22  C   UNL     1       6.017   3.362  12.394  0.00  0.00    +0.000 A 
ATOM     23  F   UNL     1       5.482   2.442  11.584  0.00  0.00    +0.000 F 
ATOM     24  C   UNL     1       5.363   3.699  13.576  0.00  0.00    +0.000 A 
ENDBRANCH  17  18
ENDBRANCH  10  16
TORSDOF 5
ENDMDL
MODEL 3
REMARK VINA RESULT:      -8.3      1.026      1.420
REMARK  Name = 
REMARK  6 active torsions:
REMARK  status: ('A' for Active; 'I' for Inactive)
REMARK    1  A    between atoms: C_1  and  C_2
REMARK    2  A    between atoms: C_2  and  O_3
REMARK    3  A    between atoms: O_3  and  C_4
REMARK    4  A    between atoms: C_4  and  C_6
REMARK    5  A    between atoms: C_15  and  C_16
REMARK    6  A    between atoms: C_17  and  C_18
REMARK                            x       y       z     vdW  Elec       q    Type
REMARK                         _______ _______ _______ _____ _____    ______ ____
ROOT
ATOM      1  C   UNL     1       4.795   4.971  18.878  0.00  0.00    +0.000 A 
ATOM      2  N   UNL     1       4.079   4.928  20.043  0.00  0.00    +0.000 NA
ATOM      3  C   UNL     1       2.970   4.175  20.043  0.00  0.00    +0.000 A 
ATOM      4  C   UNL     1       2.253   4.035  21.225  0.00  0.00    +0.000 A 
ATOM      5  C   UNL     1       1.135   3.204  21.300  0.00  0.00    +0.000 A 
ATOM      6  C   UNL     1       0.719   2.520  20.166  0.00  0.00    +0.000 A 
ATOM      7  C   UNL     1       1.413   2.681  18.964  0.00  0.00    +0.000 A 
ATOM      8  C   UNL     1       2.541   3.491  18.880  0.00  0.00    +0.000 A 
ATOM      9  N   UNL     1       3.221   3.587  17.716  0.00  0.00    +0.000 NA
ATOM     10  C   UNL     1       4.367   4.318  17.733  0.00  0.00    +0.000 A 
ENDROOT
BRANCH   1  11
ATOM     11  C   UNL     1       6.139   5.603  18.957  0.00  0.00    +0.000 C 
ATOM     12  O   UNL     1       6.996   5.317  19.778  0.00  0.00    +0.000 OA
BRANCH  11  13
ATOM     13  O   UNL     1       6.199   6.636  18.077  0.00  0.00    +0.000 OA
BRANCH  13  15
ATOM     14  C   UNL     1       7.842   8.317  17.679  0.00  0.00    +0.000 C 
ATOM     15  C   UNL     1       7.488   6.852  17.490  0.00  0.00    +0.000 C 
ENDBRANCH  13  15
ENDBRANCH  11  13
ENDBRANCH   1  11
BRANCH  10  16
ATOM     16  C   UNL     1       5.072   4.331  16.489  0.00  0.00    +0.000 C 
ATOM     17  C   UNL     1       5.612   4.291  15.414  0.00  0.00    +0.000 C 
BRANCH  17  18
ATOM     18  C   UNL     1       6.219   4.221  14.120  0.00  0.00    +0.000 A 
ATOM     19  C   UNL     1       7.209   5.144  13.763  0.00  0.00    +0.000 A 
ATOM     20  C   UNL     1       7.782   5.101  12.489  0.00  0.00    +0.000 A 
ATOM     21  C   UNL     1       7.367   4.139  11.570  0.00  0.00    +0.000 A 
ATOM     22  C   UNL     1       6.396   3.213  11.940  0.00  0.00    +0.000 A 
ATOM     23  F   UNL     1       6.006   2.283  11.060  0.00  0.00    +0.000 F 
ATOM     24  C   UNL     1       5.821   3.242  13.208  0.00  0.00    +0.000 A 
ENDBRANCH  17  18
ENDBRANCH  10  16
TORSDOF 5
ENDMDL
MODEL 4
REMARK VINA RESULT:      -8.1      2.694      3.888
REMARK  Name = 
REMARK  6 active torsions:
REMARK  status: ('A' for Active; 'I' for Inactive)
REMARK    1  A    between atoms: C_1  and  C_2
REMARK    2  A    between atoms: C_2  and  O_3
REMARK    3  A    between atoms: O_3  and  C_4
REMARK    4  A    between atoms: C_4  and  C_6
REMARK    5  A    between atoms: C_15  and  C_16
REMARK    6  A    between atoms: C_17  and  C_18
REMARK                            x       y       z     vdW  Elec       q    Type
REMARK                         _______ _______ _______ _____ _____    ______ ____
ROOT
ATOM      1  C   UNL     1       3.637   5.263  18.938  0.00  0.00    +0.000 A 
ATOM      2  N   UNL     1       2.928   5.775  19.990  0.00  0.00    +0.000 NA
ATOM      3  C   UNL     1       2.369   6.981  19.812  0.00  0.00    +0.000 A 
ATOM      4  C   UNL     1       1.573   7.509  20.821  0.00  0.00    +0.000 A 
ATOM      5  C   UNL     1       0.907   8.723  20.657  0.00  0.00    +0.000 A 
ATOM      6  C   UNL     1       1.060   9.429  19.472  0.00  0.00    +0.000 A 
ATOM      7  C   UNL     1       1.886   8.923  18.464  0.00  0.00    +0.000 A 
ATOM      8  C   UNL     1       2.540   7.704  18.605  0.00  0.00    +0.000 A 
ATOM      9  N   UNL     1       3.292   7.217  17.593  0.00  0.00    +0.000 NA
ATOM     10  C   UNL     1       3.822   5.977  17.764  0.00  0.00    +0.000 A 
ENDROOT
BRANCH   1  11
ATOM     11  C   UNL     1       4.042   3.837  19.053  0.00  0.00    +0.000 C 
ATOM     12  O   UNL     1       5.117   3.450  19.483  0.00  0.00    +0.000 OA
BRANCH  11  13
ATOM     13  O   UNL     1       3.094   3.056  18.473  0.00  0.00    +0.000 OA
BRANCH  13  15
ATOM     14  C   UNL     1       0.839   2.346  18.778  0.00  0.00    +0.000 C 
ATOM     15  C   UNL     1       2.227   2.379  19.391  0.00  0.00    +0.000 C 
ENDBRANCH  13  15
ENDBRANCH  11  13
ENDBRANCH   1  11
BRANCH  10  16
ATOM     16  C   UNL     1       4.555   5.492  16.636  0.00  0.00    +0.000 C 
ATOM     17  C   UNL     1       5.156   5.154  15.649  0.00  0.00    +0.000 C 
BRANCH  17  18
ATOM     18  C   UNL     1       5.868   4.792  14.462  0.00  0.00    +0.000 A 
ATOM     19  C   UNL     1       5.343   3.821  13.602  0.00  0.00    +0.000 A 
ATOM     20  C   UNL     1       6.049   3.439  12.458  0.00  0.00    +0.000 A 
ATOM     21  C   UNL     1       7.281   4.027  12.173  0.00  0.00    +0.000 A 
ATOM     22  C   UNL     1       7.787   5.005  13.023  0.00  0.00    +0.000 A 
ATOM     23  F   UNL     1       8.964   5.576  12.741  0.00  0.00    +0.000 F 
ATOM     24  C   UNL     1       7.089   5.397  14.162  0.00  0.00    +0.000 A 
ENDBRANCH  17  18
ENDBRANCH  10  16
TORSDOF 5
ENDMDL
MODEL 5
REMARK VINA RESULT:      -8.0      2.956      7.163
REMARK  Name = 
REMARK  6 active torsions:
REMARK  status: ('A' for Active; 'I' for Inactive)
REMARK    1  A    between atoms: C_1  and  C_2
REMARK    2  A    between atoms: C_2  and  O_3
REMARK    3  A    between atoms: O_3  and  C_4
REMARK    4  A    between atoms: C_4  and  C_6
REMARK    5  A    between atoms: C_15  and  C_16
REMARK    6  A    between atoms: C_17  and  C_18
REMARK                            x       y       z     vdW  Elec       q    Type
REMARK                         _______ _______ _______ _____ _____    ______ ____
ROOT
ATOM      1  C   UNL     1       6.915   5.284  16.208  0.00  0.00    +0.000 A 
ATOM      2  N   UNL     1       7.642   5.474  15.065  0.00  0.00    +0.000 NA
ATOM      3  C   UNL     1       7.213   4.839  13.964  0.00  0.00    +0.000 A 
ATOM      4  C   UNL     1       7.870   5.063  12.760  0.00  0.00    +0.000 A 
ATOM      5  C   UNL     1       7.420   4.489  11.572  0.00  0.00    +0.000 A 
ATOM      6  C   UNL     1       6.307   3.659  11.596  0.00  0.00    +0.000 A 
ATOM      7  C   UNL     1       5.660   3.401  12.808  0.00  0.00    +0.000 A 
ATOM      8  C   UNL     1       6.085   3.983  13.997  0.00  0.00    +0.000 A 
ATOM      9  N   UNL     1       5.409   3.753  15.144  0.00  0.00    +0.000 NA
ATOM     10  C   UNL     1       5.823   4.431  16.247  0.00  0.00    +0.000 A 
ENDROOT
BRANCH   1  11
ATOM     11  C   UNL     1       7.249   6.174  17.352  0.00  0.00    +0.000 C 
ATOM     12  O   UNL     1       7.109   5.880  18.528  0.00  0.00    +0.000 OA
BRANCH  11  13
ATOM     13  O   UNL     1       7.588   7.401  16.878  0.00  0.00    +0.000 OA
BRANCH  13  15
ATOM     14  C   UNL     1       8.471   9.198  18.172  0.00  0.00    +0.000 C 
ATOM     15  C   UNL     1       7.203   8.497  17.717  0.00  0.00    +0.000 C 
ENDBRANCH  13  15
ENDBRANCH  11  13
ENDBRANCH   1  11
BRANCH  10  16
ATOM     16  C   UNL     1       5.031   4.193  17.413  0.00  0.00    +0.000 C 
ATOM     17  C   UNL     1       4.300   3.984  18.347  0.00  0.00    +0.000 C 
BRANCH  17  18
ATOM     18  C   UNL     1       3.401   3.724  19.429  0.00  0.00    +0.000 A 
ATOM     19  C   UNL     1       3.712   2.739  20.373  0.00  0.00    +0.000 A 
ATOM     20  C   UNL     1       2.822   2.458  21.414  0.00  0.00    +0.000 A 
ATOM     21  C   UNL     1       1.621   3.159  21.512  0.00  0.00    +0.000 A 
ATOM     22  C   UNL     1       1.329   4.150  20.580  0.00  0.00    +0.000 A 
ATOM     23  F   UNL     1       0.181   4.830  20.681  0.00  0.00    +0.000 F 
ATOM     24  C   UNL     1       2.210   4.443  19.542  0.00  0.00    +0.000 A 
ENDBRANCH  17  18
ENDBRANCH  10  16
TORSDOF 5
ENDMDL
MODEL 6
REMARK VINA RESULT:      -7.9      2.982      7.185
REMARK  Name = 
REMARK  6 active torsions:
REMARK  status: ('A' for Active; 'I' for Inactive)
REMARK    1  A    between atoms: C_1  and  C_2
REMARK    2  A    between atoms: C_2  and  O_3
REMARK    3  A    between atoms: O_3  and  C_4
REMARK    4  A    between atoms: C_4  and  C_6
REMARK    5  A    between atoms: C_15  and  C_16
REMARK    6  A    between atoms: C_17  and  C_18
REMARK                            x       y       z     vdW  Elec       q    Type
REMARK                         _______ _______ _______ _____ _____    ______ ____
ROOT
ATOM      1  C   UNL     1       6.826   5.421  16.200  0.00  0.00    +0.000 A 
ATOM      2  N   UNL     1       7.628   5.547  15.099  0.00  0.00    +0.000 NA
ATOM      3  C   UNL     1       7.228   4.919  13.984  0.00  0.00    +0.000 A 
ATOM      4  C   UNL     1       7.965   5.082  12.818  0.00  0.00    +0.000 A 
ATOM      5  C   UNL     1       7.551   4.512  11.614  0.00  0.00    +0.000 A 
ATOM      6  C   UNL     1       6.393   3.749  11.585  0.00  0.00    +0.000 A 
ATOM      7  C   UNL     1       5.663   3.550  12.760  0.00  0.00    +0.000 A 
ATOM      8  C   UNL     1       6.052   4.129  13.963  0.00  0.00    +0.000 A 
ATOM      9  N   UNL     1       5.298   3.960  15.072  0.00  0.00    +0.000 NA
ATOM     10  C   UNL     1       5.686   4.633  16.187  0.00  0.00    +0.000 A 
ENDROOT
BRANCH   1  11
ATOM     11  C   UNL     1       7.144   6.311  17.348  0.00  0.00    +0.000 C 
ATOM     12  O   UNL     1       6.952   6.032  18.520  0.00  0.00    +0.000 OA
BRANCH  11  13
ATOM     13  O   UNL     1       7.538   7.523  16.876  0.00  0.00    +0.000 OA
BRANCH  13  15
ATOM     14  C   UNL     1       8.469   9.264  18.213  0.00  0.00    +0.000 C 
ATOM     15  C   UNL     1       7.182   8.636  17.706  0.00  0.00    +0.000 C 
ENDBRANCH  13  15
ENDBRANCH  11  13
ENDBRANCH   1  11
BRANCH  10  16
ATOM     16  C   UNL     1       4.815   4.462  17.308  0.00  0.00    +0.000 C 
ATOM     17  C   UNL     1       4.055   4.251  18.217  0.00  0.00    +0.000 C 
BRANCH  17  18
ATOM     18  C   UNL     1       3.145   3.961  19.282  0.00  0.00    +0.000 A 
ATOM     19  C   UNL     1       1.944   4.671  19.388  0.00  0.00    +0.000 A 
ATOM     20  C   UNL     1       1.065   4.415  20.445  0.00  0.00    +0.000 A 
ATOM     21  C   UNL     1       1.387   3.449  21.398  0.00  0.00    +0.000 A 
ATOM     22  C   UNL     1       2.574   2.734  21.275  0.00  0.00    +0.000 A 
ATOM     23  F   UNL     1       2.876   1.800  22.184  0.00  0.00    +0.000 F 
ATOM     24  C   UNL     1       3.454   2.977  20.223  0.00  0.00    +0.000 A 
ENDBRANCH  17  18
ENDBRANCH  10  16
TORSDOF 5
ENDMDL
MODEL 7
REMARK VINA RESULT:      -7.8      5.087      8.598
REMARK  Name = 
REMARK  6 active torsions:
REMARK  status: ('A' for Active; 'I' for Inactive)
REMARK    1  A    between atoms: C_1  and  C_2
REMARK    2  A    between atoms: C_2  and  O_3
REMARK    3  A    between atoms: O_3  and  C_4
REMARK    4  A    between atoms: C_4  and  C_6
REMARK    5  A    between atoms: C_15  and  C_16
REMARK    6  A    between atoms: C_17  and  C_18
REMARK                            x       y       z     vdW  Elec       q    Type
REMARK                         _______ _______ _______ _____ _____    ______ ____
ROOT
ATOM      1  C   UNL     1       2.678   5.242  19.191  0.00  0.00    +0.000 A 
ATOM      2  N   UNL     1       3.343   4.312  18.441  0.00  0.00    +0.000 NA
ATOM      3  C   UNL     1       4.117   4.776  17.449  0.00  0.00    +0.000 A 
ATOM      4  C   UNL     1       4.876   3.877  16.710  0.00  0.00    +0.000 A 
ATOM      5  C   UNL     1       5.754   4.314  15.719  0.00  0.00    +0.000 A 
ATOM      6  C   UNL     1       5.855   5.672  15.450  0.00  0.00    +0.000 A 
ATOM      7  C   UNL     1       5.071   6.582  16.165  0.00  0.00    +0.000 A 
ATOM      8  C   UNL     1       4.206   6.163  17.170  0.00  0.00    +0.000 A 
ATOM      9  N   UNL     1       3.498   7.070  17.878  0.00  0.00    +0.000 NA
ATOM     10  C   UNL     1       2.748   6.596  18.907  0.00  0.00    +0.000 A 
ENDROOT
BRANCH   1  11
ATOM     11  C   UNL     1       2.024   4.739  20.429  0.00  0.00    +0.000 C 
ATOM     12  O   UNL     1       2.538   4.734  21.536  0.00  0.00    +0.000 OA
BRANCH  11  13
ATOM     13  O   UNL     1       0.839   4.159  20.103  0.00  0.00    +0.000 OA
BRANCH  13  15
ATOM     14  C   UNL     1       0.643   2.183  18.783  0.00  0.00    +0.000 C 
ATOM     15  C   UNL     1       0.827   2.728  20.188  0.00  0.00    +0.000 C 
ENDBRANCH  13  15
ENDBRANCH  11  13
ENDBRANCH   1  11
BRANCH  10  16
ATOM     16  C   UNL     1       2.072   7.611  19.655  0.00  0.00    +0.000 C 
ATOM     17  C   UNL     1       1.451   8.408  20.309  0.00  0.00    +0.000 C 
BRANCH  17  18
ATOM     18  C   UNL     1       0.693   9.323  21.106  0.00  0.00    +0.000 A 
ATOM     19  C   UNL     1       0.365   8.993  22.426  0.00  0.00    +0.000 A 
ATOM     20  C   UNL     1      -0.404   9.868  23.199  0.00  0.00    +0.000 A 
ATOM     21  C   UNL     1      -0.846  11.073  22.653  0.00  0.00    +0.000 A 
ATOM     22  C   UNL     1      -0.499  11.401  21.347  0.00  0.00    +0.000 A 
ATOM     23  F   UNL     1      -0.916  12.563  20.829  0.00  0.00    +0.000 F 
ATOM     24  C   UNL     1       0.271  10.540  20.569  0.00  0.00    +0.000 A 
ENDBRANCH  17  18
ENDBRANCH  10  16
TORSDOF 5
ENDMDL
MODEL 8
REMARK VINA RESULT:      -7.8      3.003      7.244
REMARK  Name = 
REMARK  6 active torsions:
REMARK  status: ('A' for Active; 'I' for Inactive)
REMARK    1  A    between atoms: C_1  and  C_2
REMARK    2  A    between atoms: C_2  and  O_3
REMARK    3  A    between atoms: O_3  and  C_4
REMARK    4  A    between atoms: C_4  and  C_6
REMARK    5  A    between atoms: C_15  and  C_16
REMARK    6  A    between atoms: C_17  and  C_18
REMARK                            x       y       z     vdW  Elec       q    Type
REMARK                         _______ _______ _______ _____ _____    ______ ____
ROOT
ATOM      1  C   UNL     1       6.661   5.426  15.993  0.00  0.00    +0.000 A 
ATOM      2  N   UNL     1       7.470   5.562  14.899  0.00  0.00    +0.000 NA
ATOM      3  C   UNL     1       7.128   4.867  13.804  0.00  0.00    +0.000 A 
ATOM      4  C   UNL     1       7.871   5.034  12.642  0.00  0.00    +0.000 A 
ATOM      5  C   UNL     1       7.513   4.394  11.456  0.00  0.00    +0.000 A 
ATOM      6  C   UNL     1       6.405   3.557  11.441  0.00  0.00    +0.000 A 
ATOM      7  C   UNL     1       5.671   3.357  12.613  0.00  0.00    +0.000 A 
ATOM      8  C   UNL     1       6.004   4.004  13.798  0.00  0.00    +0.000 A 
ATOM      9  N   UNL     1       5.245   3.829  14.903  0.00  0.00    +0.000 NA
ATOM     10  C   UNL     1       5.573   4.567  15.996  0.00  0.00    +0.000 A 
ENDROOT
BRANCH   1  11
ATOM     11  C   UNL     1       6.904   6.378  17.110  0.00  0.00    +0.000 C 
ATOM     12  O   UNL     1       6.524   7.537  17.133  0.00  0.00    +0.000 OA
BRANCH  11  13
ATOM     13  O   UNL     1       7.733   5.798  18.017  0.00  0.00    +0.000 OA
BRANCH  13  15
ATOM     14  C   UNL     1       8.338   5.476  20.301  0.00  0.00    +0.000 C 
ATOM     15  C   UNL     1       7.182   5.658  19.332  0.00  0.00    +0.000 C 
ENDBRANCH  13  15
ENDBRANCH  11  13
ENDBRANCH   1  11
BRANCH  10  16
ATOM     16  C   UNL     1       4.697   4.384  17.111  0.00  0.00    +0.000 C 
ATOM     17  C   UNL     1       3.944   4.156  18.022  0.00  0.00    +0.000 C 
BRANCH  17  18
ATOM     18  C   UNL     1       3.049   3.843  19.093  0.00  0.00    +0.000 A 
ATOM     19  C   UNL     1       1.765   4.399  19.115  0.00  0.00    +0.000 A 
ATOM     20  C   UNL     1       0.897   4.124  20.176  0.00  0.00    +0.000 A 
ATOM     21  C   UNL     1       1.312   3.293  21.216  0.00  0.00    +0.000 A 
ATOM     22  C   UNL     1       2.583   2.729  21.177  0.00  0.00    +0.000 A 
ATOM     23  F   UNL     1       2.975   1.924  22.171  0.00  0.00    +0.000 F 
ATOM     24  C   UNL     1       3.454   2.992  20.123  0.00  0.00    +0.000 A 
ENDBRANCH  17  18
ENDBRANCH  10  16
TORSDOF 5
ENDMDL
MODEL 9
REMARK VINA RESULT:      -7.8      2.987      7.166
REMARK  Name = 
REMARK  6 active torsions:
REMARK  status: ('A' for Active; 'I' for Inactive)
REMARK    1  A    between atoms: C_1  and  C_2
REMARK    2  A    between atoms: C_2  and  O_3
REMARK    3  A    between atoms: O_3  and  C_4
REMARK    4  A    between atoms: C_4  and  C_6
REMARK    5  A    between atoms: C_15  and  C_16
REMARK    6  A    between atoms: C_17  and  C_18
REMARK                            x       y       z     vdW  Elec       q    Type
REMARK                         _______ _______ _______ _____ _____    ______ ____
ROOT
ATOM      1  C   UNL     1       6.468   5.419  15.975  0.00  0.00    +0.000 A 
ATOM      2  N   UNL     1       7.320   5.618  14.923  0.00  0.00    +0.000 NA
ATOM      3  C   UNL     1       7.095   4.893  13.817  0.00  0.00    +0.000 A 
ATOM      4  C   UNL     1       7.882   5.117  12.694  0.00  0.00    +0.000 A 
ATOM      5  C   UNL     1       7.641   4.445  11.496  0.00  0.00    +0.000 A 
ATOM      6  C   UNL     1       6.610   3.519  11.430  0.00  0.00    +0.000 A 
ATOM      7  C   UNL     1       5.834   3.262  12.564  0.00  0.00    +0.000 A 
ATOM      8  C   UNL     1       6.049   3.939  13.760  0.00  0.00    +0.000 A 
ATOM      9  N   UNL     1       5.250   3.705  14.825  0.00  0.00    +0.000 NA
ATOM     10  C   UNL     1       5.457   4.472  15.927  0.00  0.00    +0.000 A 
ENDROOT
BRANCH   1  11
ATOM     11  C   UNL     1       6.572   6.391  17.095  0.00  0.00    +0.000 C 
ATOM     12  O   UNL     1       5.650   7.070  17.516  0.00  0.00    +0.000 OA
BRANCH  11  13
ATOM     13  O   UNL     1       7.874   6.506  17.466  0.00  0.00    +0.000 OA
BRANCH  13  15
ATOM     14  C   UNL     1       8.256   8.808  17.956  0.00  0.00    +0.000 C 
ATOM     15  C   UNL     1       8.113   7.416  18.547  0.00  0.00    +0.000 C 
ENDBRANCH  13  15
ENDBRANCH  11  13
ENDBRANCH   1  11
BRANCH  10  16
ATOM     16  C   UNL     1       4.542   4.220  16.997  0.00  0.00    +0.000 C 
ATOM     17  C   UNL     1       3.739   3.949  17.852  0.00  0.00    +0.000 C 
BRANCH  17  18
ATOM     18  C   UNL     1       2.775   3.592  18.847  0.00  0.00    +0.000 A 
ATOM     19  C   UNL     1       1.547   3.040  18.463  0.00  0.00    +0.000 A 
ATOM     20  C   UNL     1       0.588   2.720  19.428  0.00  0.00    +0.000 A 
ATOM     21  C   UNL     1       0.854   2.951  20.777  0.00  0.00    +0.000 A 
ATOM     22  C   UNL     1       2.084   3.483  21.151  0.00  0.00    +0.000 A 
ATOM     23  F   UNL     1       2.342   3.694  22.447  0.00  0.00    +0.000 F 
ATOM     24  C   UNL     1       3.050   3.801  20.199  0.00  0.00    +0.000 A 
ENDBRANCH  17  18
ENDBRANCH  10  16
TORSDOF 5
ENDMDL
