MODEL 1
REMARK VINA RESULT:      -7.3      0.000      0.000
REMARK  Name = 
REMARK  9 active torsions:
REMARK  status: ('A' for Active; 'I' for Inactive)
REMARK    1  A    between atoms: C_1  and  C_2
REMARK    2  A    between atoms: C_2  and  O_3
REMARK    3  A    between atoms: O_3  and  C_4
REMARK    4  A    between atoms: C_4  and  C_6
REMARK    5  A    between atoms: C_6  and  C_7
REMARK    6  A    between atoms: C_6  and  O_8
REMARK    7  A    between atoms: O_8  and  C_9
REMARK    8  A    between atoms: C_12  and  O_13
REMARK    9  A    between atoms: O_13  and  C_14
REMARK                            x       y       z     vdW  Elec       q    Type
REMARK                         _______ _______ _______ _____ _____    ______ ____
ROOT
ATOM      1  C   UNL     1       5.923   4.486  14.789  0.00  0.00    +0.000 A 
ATOM      2  C   UNL     1       4.784   4.181  15.541  0.00  0.00    +0.000 A 
ATOM      3  C   UNL     1       4.836   4.187  16.935  0.00  0.00    +0.000 A 
ATOM      4  C   UNL     1       6.034   4.477  17.586  0.00  0.00    +0.000 A 
ATOM      5  C   UNL     1       7.175   4.773  16.836  0.00  0.00    +0.000 A 
ATOM      6  C   UNL     1       7.125   4.746  15.440  0.00  0.00    +0.000 A 
ENDROOT
BRANCH   1   7
ATOM      7  O   UNL     1       5.724   4.511  13.438  0.00  0.00    +0.000 OA
BRANCH   7   8
ATOM      8  C   UNL     1       6.444   3.575  12.631  0.00  0.00    +0.000 C 
ATOM      9  C   UNL     1       7.415   4.285  11.688  0.00  0.00    +0.000 C 
BRANCH   8  10
ATOM     10  C   UNL     1       5.427   2.758  11.830  0.00  0.00    +0.000 C 
ATOM     11  O   UNL     1       5.607   1.643  11.361  0.00  0.00    +0.000 OA
BRANCH  10  12
ATOM     12  O   UNL     1       4.313   3.522  11.607  0.00  0.00    +0.000 OA
BRANCH  12  14
ATOM     13  C   UNL     1       3.043   4.134   9.685  0.00  0.00    +0.000 C 
ATOM     14  C   UNL     1       3.392   3.007  10.638  0.00  0.00    +0.000 C 
ENDBRANCH  12  14
ENDBRANCH  10  12
ENDBRANCH   8  10
ENDBRANCH   7   8
ENDBRANCH   1   7
BRANCH   4  15
ATOM     15  O   UNL     1       5.985   4.539  18.960  0.00  0.00    +0.000 OA
BRANCH  15  16
ATOM     16  C   UNL     1       4.850   4.068  19.603  0.00  0.00    +0.000 A 
ATOM     17  N   UNL     1       4.819   2.771  20.010  0.00  0.00    +0.000 NA
ATOM     18  C   UNL     1       3.687   2.349  20.620  0.00  0.00    +0.000 A 
ATOM     19  C   UNL     1       2.579   3.155  20.825  0.00  0.00    +0.000 A 
ATOM     20 CL   UNL     1       1.183   2.543  21.612  0.00  0.00    +0.000 Cl
ATOM     21  C   UNL     1       2.619   4.472  20.380  0.00  0.00    +0.000 A 
ATOM     22  C   UNL     1       3.773   4.941  19.753  0.00  0.00    +0.000 A 
ATOM     23 CL   UNL     1       3.824   6.574  19.209  0.00  0.00    +0.000 Cl
ENDBRANCH  15  16
ENDBRANCH   4  15
TORSDOF 7
ENDMDL
MODEL 2
REMARK VINA RESULT:      -7.1      6.081      8.317
REMARK  Name = 
REMARK  9 active torsions:
REMARK  status: ('A' for Active; 'I' for Inactive)
REMARK    1  A    between atoms: C_1  and  C_2
REMARK    2  A    between atoms: C_2  and  O_3
REMARK    3  A    between atoms: O_3  and  C_4
REMARK    4  A    between atoms: C_4  and  C_6
REMARK    5  A    between atoms: C_6  and  C_7
REMARK    6  A    between atoms: C_6  and  O_8
REMARK    7  A    between atoms: O_8  and  C_9
REMARK    8  A    between atoms: C_12  and  O_13
REMARK    9  A    between atoms: O_13  and  C_14
REMARK                            x       y       z     vdW  Elec       q    Type
REMARK                         _______ _______ _______ _____ _____    ______ ____
ROOT
ATOM      1  C   UNL     1       2.306   7.094  19.465  0.00  0.00    +0.000 A 
ATOM      2  C   UNL     1       1.626   7.850  20.425  0.00  0.00    +0.000 A 
ATOM      3  C   UNL     1       1.100   9.100  20.096  0.00  0.00    +0.000 A 
ATOM      4  C   UNL     1       1.273   9.613  18.812  0.00  0.00    +0.000 A 
ATOM      5  C   UNL     1       1.960   8.862  17.854  0.00  0.00    +0.000 A 
ATOM      6  C   UNL     1       2.503   7.620  18.192  0.00  0.00    +0.000 A 
ENDROOT
BRANCH   1   7
ATOM      7  O   UNL     1       2.712   5.863  19.892  0.00  0.00    +0.000 OA
BRANCH   7   8
ATOM      8  C   UNL     1       1.765   4.792  19.867  0.00  0.00    +0.000 C 
ATOM      9  C   UNL     1       1.892   3.906  21.106  0.00  0.00    +0.000 C 
BRANCH   8  10
ATOM     10  C   UNL     1       2.012   3.969  18.599  0.00  0.00    +0.000 C 
ATOM     11  O   UNL     1       1.154   3.529  17.847  0.00  0.00    +0.000 OA
BRANCH  10  12
ATOM     12  O   UNL     1       3.349   3.691  18.498  0.00  0.00    +0.000 OA
BRANCH  12  14
ATOM     13  C   UNL     1       4.619   4.927  16.903  0.00  0.00    +0.000 C 
ATOM     14  C   UNL     1       3.870   3.633  17.165  0.00  0.00    +0.000 C 
ENDBRANCH  12  14
ENDBRANCH  10  12
ENDBRANCH   8  10
ENDBRANCH   7   8
ENDBRANCH   1   7
BRANCH   4  15
ATOM     15  O   UNL     1       0.659  10.815  18.546  0.00  0.00    +0.000 OA
BRANCH  15  16
ATOM     16  C   UNL     1      -0.716  10.833  18.372  0.00  0.00    +0.000 A 
ATOM     17  N   UNL     1      -1.273   9.981  17.470  0.00  0.00    +0.000 NA
ATOM     18  C   UNL     1      -2.616  10.041  17.320  0.00  0.00    +0.000 A 
ATOM     19  C   UNL     1      -3.427  10.925  18.014  0.00  0.00    +0.000 A 
ATOM     20 CL   UNL     1      -5.125  10.934  17.770  0.00  0.00    +0.000 Cl
ATOM     21  C   UNL     1      -2.838  11.807  18.914  0.00  0.00    +0.000 A 
ATOM     22  C   UNL     1      -1.456  11.767  19.096  0.00  0.00    +0.000 A 
ATOM     23 CL   UNL     1      -0.729  12.854  20.216  0.00  0.00    +0.000 Cl
ENDBRANCH  15  16
ENDBRANCH   4  15
TORSDOF 7
ENDMDL
MODEL 3
REMARK VINA RESULT:      -6.9      3.994      7.208
REMARK  Name = 
REMARK  9 active torsions:
REMARK  status: ('A' for Active; 'I' for Inactive)
REMARK    1  A    between atoms: C_1  and  C_2
REMARK    2  A    between atoms: C_2  and  O_3
REMARK    3  A    between atoms: O_3  and  C_4
REMARK    4  A    between atoms: C_4  and  C_6
REMARK    5  A    between atoms: C_6  and  C_7
REMARK    6  A    between atoms: C_6  and  O_8
REMARK    7  A    between atoms: O_8  and  C_9
REMARK    8  A    between atoms: C_12  and  O_13
REMARK    9  A    between atoms: O_13  and  C_14
REMARK                            x       y       z     vdW  Elec       q    Type
REMARK                         _______ _______ _______ _____ _____    ______ ____
ROOT
ATOM      1  C   UNL     1       4.881   5.691  18.812  0.00  0.00    +0.000 A 
ATOM      2  C   UNL     1       4.548   6.417  17.664  0.00  0.00    +0.000 A 
ATOM      3  C   UNL     1       5.390   6.403  16.552  0.00  0.00    +0.000 A 
ATOM      4  C   UNL     1       6.582   5.682  16.589  0.00  0.00    +0.000 A 
ATOM      5  C   UNL     1       6.920   4.963  17.739  0.00  0.00    +0.000 A 
ATOM      6  C   UNL     1       6.085   4.996  18.859  0.00  0.00    +0.000 A 
ENDROOT
BRANCH   1   7
ATOM      7  O   UNL     1       3.944   5.733  19.804  0.00  0.00    +0.000 OA
BRANCH   7   8
ATOM      8  C   UNL     1       2.573   5.902  19.433  0.00  0.00    +0.000 C 
ATOM      9  C   UNL     1       1.855   6.869  20.375  0.00  0.00    +0.000 C 
BRANCH   8  10
ATOM     10  C   UNL     1       1.899   4.527  19.470  0.00  0.00    +0.000 C 
ATOM     11  O   UNL     1       1.509   3.942  20.470  0.00  0.00    +0.000 OA
BRANCH  10  12
ATOM     12  O   UNL     1       1.910   3.988  18.211  0.00  0.00    +0.000 OA
BRANCH  12  14
ATOM     13  C   UNL     1       3.388   2.132  17.983  0.00  0.00    +0.000 C 
ATOM     14  C   UNL     1       1.941   2.558  18.150  0.00  0.00    +0.000 C 
ENDBRANCH  12  14
ENDBRANCH  10  12
ENDBRANCH   8  10
ENDBRANCH   7   8
ENDBRANCH   1   7
BRANCH   4  15
ATOM     15  O   UNL     1       7.318   5.656  15.426  0.00  0.00    +0.000 OA
BRANCH  15  16
ATOM     16  C   UNL     1       6.880   4.855  14.383  0.00  0.00    +0.000 A 
ATOM     17  N   UNL     1       5.862   3.983  14.611  0.00  0.00    +0.000 NA
ATOM     18  C   UNL     1       5.475   3.209  13.570  0.00  0.00    +0.000 A 
ATOM     19  C   UNL     1       6.070   3.252  12.319  0.00  0.00    +0.000 A 
ATOM     20 CL   UNL     1       5.516   2.240  11.050  0.00  0.00    +0.000 Cl
ATOM     21  C   UNL     1       7.127   4.133  12.112  0.00  0.00    +0.000 A 
ATOM     22  C   UNL     1       7.546   4.948  13.161  0.00  0.00    +0.000 A 
ATOM     23 CL   UNL     1       8.849   6.043  12.901  0.00  0.00    +0.000 Cl
ENDBRANCH  15  16
ENDBRANCH   4  15
TORSDOF 7
ENDMDL
MODEL 4
REMARK VINA RESULT:      -6.9      6.087      8.551
REMARK  Name = 
REMARK  9 active torsions:
REMARK  status: ('A' for Active; 'I' for Inactive)
REMARK    1  A    between atoms: C_1  and  C_2
REMARK    2  A    between atoms: C_2  and  O_3
REMARK    3  A    between atoms: O_3  and  C_4
REMARK    4  A    between atoms: C_4  and  C_6
REMARK    5  A    between atoms: C_6  and  C_7
REMARK    6  A    between atoms: C_6  and  O_8
REMARK    7  A    between atoms: O_8  and  C_9
REMARK    8  A    between atoms: C_12  and  O_13
REMARK    9  A    between atoms: O_13  and  C_14
REMARK                            x       y       z     vdW  Elec       q    Type
REMARK                         _______ _______ _______ _____ _____    ______ ____
ROOT
ATOM      1  C   UNL     1       2.167   7.180  19.828  0.00  0.00    +0.000 A 
ATOM      2  C   UNL     1       1.450   8.044  20.662  0.00  0.00    +0.000 A 
ATOM      3  C   UNL     1       0.941   9.245  20.165  0.00  0.00    +0.000 A 
ATOM      4  C   UNL     1       1.166   9.600  18.837  0.00  0.00    +0.000 A 
ATOM      5  C   UNL     1       1.889   8.742  18.004  0.00  0.00    +0.000 A 
ATOM      6  C   UNL     1       2.415   7.550  18.509  0.00  0.00    +0.000 A 
ENDROOT
BRANCH   1   7
ATOM      7  O   UNL     1       2.553   6.010  20.415  0.00  0.00    +0.000 OA
BRANCH   7   8
ATOM      8  C   UNL     1       2.212   4.782  19.765  0.00  0.00    +0.000 C 
ATOM      9  C   UNL     1       1.149   4.013  20.549  0.00  0.00    +0.000 C 
BRANCH   8  10
ATOM     10  C   UNL     1       3.487   3.944  19.636  0.00  0.00    +0.000 C 
ATOM     11  O   UNL     1       4.596   4.361  19.333  0.00  0.00    +0.000 OA
BRANCH  10  12
ATOM     12  O   UNL     1       3.171   2.621  19.792  0.00  0.00    +0.000 OA
BRANCH  12  14
ATOM     13  C   UNL     1       2.539   2.158  17.540  0.00  0.00    +0.000 C 
ATOM     14  C   UNL     1       3.474   1.777  18.674  0.00  0.00    +0.000 C 
ENDBRANCH  12  14
ENDBRANCH  10  12
ENDBRANCH   8  10
ENDBRANCH   7   8
ENDBRANCH   1   7
BRANCH   4  15
ATOM     15  O   UNL     1       0.566  10.761  18.404  0.00  0.00    +0.000 OA
BRANCH  15  16
ATOM     16  C   UNL     1      -0.813  10.779  18.258  0.00  0.00    +0.000 A 
ATOM     17  N   UNL     1      -1.386   9.939  17.356  0.00  0.00    +0.000 NA
ATOM     18  C   UNL     1      -2.732   9.999  17.233  0.00  0.00    +0.000 A 
ATOM     19  C   UNL     1      -3.530  10.873  17.956  0.00  0.00    +0.000 A 
ATOM     20 CL   UNL     1      -5.232  10.883  17.745  0.00  0.00    +0.000 Cl
ATOM     21  C   UNL     1      -2.924  11.743  18.856  0.00  0.00    +0.000 A 
ATOM     22  C   UNL     1      -1.539  11.702  19.010  0.00  0.00    +0.000 A 
ATOM     23 CL   UNL     1      -0.790  12.774  20.131  0.00  0.00    +0.000 Cl
ENDBRANCH  15  16
ENDBRANCH   4  15
TORSDOF 7
ENDMDL
MODEL 5
REMARK VINA RESULT:      -6.9      5.973      8.070
REMARK  Name = 
REMARK  9 active torsions:
REMARK  status: ('A' for Active; 'I' for Inactive)
REMARK    1  A    between atoms: C_1  and  C_2
REMARK    2  A    between atoms: C_2  and  O_3
REMARK    3  A    between atoms: O_3  and  C_4
REMARK    4  A    between atoms: C_4  and  C_6
REMARK    5  A    between atoms: C_6  and  C_7
REMARK    6  A    between atoms: C_6  and  O_8
REMARK    7  A    between atoms: O_8  and  C_9
REMARK    8  A    between atoms: C_12  and  O_13
REMARK    9  A    between atoms: O_13  and  C_14
REMARK                            x       y       z     vdW  Elec       q    Type
REMARK                         _______ _______ _______ _____ _____    ______ ____
ROOT
ATOM      1  C   UNL     1       2.477   7.127  19.482  0.00  0.00    +0.000 A 
ATOM      2  C   UNL     1       2.527   7.638  18.181  0.00  0.00    +0.000 A 
ATOM      3  C   UNL     1       1.863   8.823  17.862  0.00  0.00    +0.000 A 
ATOM      4  C   UNL     1       1.126   9.492  18.836  0.00  0.00    +0.000 A 
ATOM      5  C   UNL     1       1.067   8.978  20.135  0.00  0.00    +0.000 A 
ATOM      6  C   UNL     1       1.716   7.781  20.446  0.00  0.00    +0.000 A 
ENDROOT
BRANCH   1   7
ATOM      7  O   UNL     1       3.221   6.000  19.681  0.00  0.00    +0.000 OA
BRANCH   7   8
ATOM      8  C   UNL     1       3.330   5.062  18.606  0.00  0.00    +0.000 C 
ATOM      9  C   UNL     1       2.328   3.919  18.760  0.00  0.00    +0.000 C 
BRANCH   8  10
ATOM     10  C   UNL     1       4.761   4.517  18.596  0.00  0.00    +0.000 C 
ATOM     11  O   UNL     1       5.221   3.684  19.365  0.00  0.00    +0.000 OA
BRANCH  10  12
ATOM     12  O   UNL     1       5.495   5.199  17.663  0.00  0.00    +0.000 OA
BRANCH  12  14
ATOM     13  C   UNL     1       5.549   4.964  15.291  0.00  0.00    +0.000 C 
ATOM     14  C   UNL     1       6.051   4.404  16.610  0.00  0.00    +0.000 C 
ENDBRANCH  12  14
ENDBRANCH  10  12
ENDBRANCH   8  10
ENDBRANCH   7   8
ENDBRANCH   1   7
BRANCH   4  15
ATOM     15  O   UNL     1       0.566  10.692  18.463  0.00  0.00    +0.000 OA
BRANCH  15  16
ATOM     16  C   UNL     1      -0.810  10.759  18.300  0.00  0.00    +0.000 A 
ATOM     17  N   UNL     1      -1.399   9.955  17.375  0.00  0.00    +0.000 NA
ATOM     18  C   UNL     1      -2.741  10.062  17.238  0.00  0.00    +0.000 A 
ATOM     19  C   UNL     1      -3.519  10.948  17.967  0.00  0.00    +0.000 A 
ATOM     20 CL   UNL     1      -5.217  11.017  17.736  0.00  0.00    +0.000 Cl
ATOM     21  C   UNL     1      -2.896  11.780  18.891  0.00  0.00    +0.000 A 
ATOM     22  C   UNL     1      -1.515  11.691  19.061  0.00  0.00    +0.000 A 
ATOM     23 CL   UNL     1      -0.746  12.717  20.211  0.00  0.00    +0.000 Cl
ENDBRANCH  15  16
ENDBRANCH   4  15
TORSDOF 7
ENDMDL
MODEL 6
REMARK VINA RESULT:      -6.8      5.960      8.009
REMARK  Name = 
REMARK  9 active torsions:
REMARK  status: ('A' for Active; 'I' for Inactive)
REMARK    1  A    between atoms: C_1  and  C_2
REMARK    2  A    between atoms: C_2  and  O_3
REMARK    3  A    between atoms: O_3  and  C_4
REMARK    4  A    between atoms: C_4  and  C_6
REMARK    5  A    between atoms: C_6  and  C_7
REMARK    6  A    between atoms: C_6  and  O_8
REMARK    7  A    between atoms: O_8  and  C_9
REMARK    8  A    between atoms: C_12  and  O_13
REMARK    9  A    between atoms: O_13  and  C_14
REMARK                            x       y       z     vdW  Elec       q    Type
REMARK                         _______ _______ _______ _____ _____    ______ ____
ROOT
ATOM      1  C   UNL     1       2.440   7.116  19.247  0.00  0.00    +0.000 A 
ATOM      2  C   UNL     1       1.743   7.772  20.266  0.00  0.00    +0.000 A 
ATOM      3  C   UNL     1       1.185   9.031  20.042  0.00  0.00    +0.000 A 
ATOM      4  C   UNL     1       1.341   9.652  18.804  0.00  0.00    +0.000 A 
ATOM      5  C   UNL     1       2.045   9.001  17.787  0.00  0.00    +0.000 A 
ATOM      6  C   UNL     1       2.620   7.749  18.022  0.00  0.00    +0.000 A 
ENDROOT
BRANCH   1   7
ATOM      7  O   UNL     1       2.878   5.864  19.572  0.00  0.00    +0.000 OA
BRANCH   7   8
ATOM      8  C   UNL     1       3.151   4.946  18.509  0.00  0.00    +0.000 C 
ATOM      9  C   UNL     1       2.200   3.751  18.547  0.00  0.00    +0.000 C 
BRANCH   8  10
ATOM     10  C   UNL     1       4.602   4.475  18.650  0.00  0.00    +0.000 C 
ATOM     11  O   UNL     1       5.021   3.664  19.464  0.00  0.00    +0.000 OA
BRANCH  10  12
ATOM     12  O   UNL     1       5.393   5.200  17.799  0.00  0.00    +0.000 OA
BRANCH  12  14
ATOM     13  C   UNL     1       5.725   4.004  15.764  0.00  0.00    +0.000 C 
ATOM     14  C   UNL     1       5.008   5.170  16.420  0.00  0.00    +0.000 C 
ENDBRANCH  12  14
ENDBRANCH  10  12
ENDBRANCH   8  10
ENDBRANCH   7   8
ENDBRANCH   1   7
BRANCH   4  15
ATOM     15  O   UNL     1       0.696  10.856  18.637  0.00  0.00    +0.000 OA
BRANCH  15  16
ATOM     16  C   UNL     1      -0.675  10.851  18.433  0.00  0.00    +0.000 A 
ATOM     17  N   UNL     1      -1.198   9.981  17.528  0.00  0.00    +0.000 NA
ATOM     18  C   UNL     1      -2.539  10.018  17.348  0.00  0.00    +0.000 A 
ATOM     19  C   UNL     1      -3.378  10.897  18.014  0.00  0.00    +0.000 A 
ATOM     20 CL   UNL     1      -5.070  10.877  17.731  0.00  0.00    +0.000 Cl
ATOM     21  C   UNL     1      -2.823  11.797  18.917  0.00  0.00    +0.000 A 
ATOM     22  C   UNL     1      -1.445  11.781  19.131  0.00  0.00    +0.000 A 
ATOM     23 CL   UNL     1      -0.760  12.890  20.255  0.00  0.00    +0.000 Cl
ENDBRANCH  15  16
ENDBRANCH   4  15
TORSDOF 7
ENDMDL
MODEL 7
REMARK VINA RESULT:      -6.8      6.023      9.006
REMARK  Name = 
REMARK  9 active torsions:
REMARK  status: ('A' for Active; 'I' for Inactive)
REMARK    1  A    between atoms: C_1  and  C_2
REMARK    2  A    between atoms: C_2  and  O_3
REMARK    3  A    between atoms: O_3  and  C_4
REMARK    4  A    between atoms: C_4  and  C_6
REMARK    5  A    between atoms: C_6  and  C_7
REMARK    6  A    between atoms: C_6  and  O_8
REMARK    7  A    between atoms: O_8  and  C_9
REMARK    8  A    between atoms: C_12  and  O_13
REMARK    9  A    between atoms: O_13  and  C_14
REMARK                            x       y       z     vdW  Elec       q    Type
REMARK                         _______ _______ _______ _____ _____    ______ ____
ROOT
ATOM      1  C   UNL     1       1.119   9.514  18.896  0.00  0.00    +0.000 A 
ATOM      2  C   UNL     1       1.854   8.821  17.930  0.00  0.00    +0.000 A 
ATOM      3  C   UNL     1       2.476   7.613  18.248  0.00  0.00    +0.000 A 
ATOM      4  C   UNL     1       2.385   7.102  19.541  0.00  0.00    +0.000 A 
ATOM      5  C   UNL     1       1.658   7.798  20.510  0.00  0.00    +0.000 A 
ATOM      6  C   UNL     1       1.054   9.018  20.195  0.00  0.00    +0.000 A 
ENDROOT
BRANCH   1   7
ATOM      7  O   UNL     1       0.506  10.646  18.443  0.00  0.00    +0.000 OA
BRANCH   7   8
ATOM      8  C   UNL     1      -0.896  10.800  18.684  0.00  0.00    +0.000 C 
ATOM      9  C   UNL     1      -1.726  10.222  17.539  0.00  0.00    +0.000 C 
BRANCH   8  10
ATOM     10  C   UNL     1      -1.187  12.295  18.850  0.00  0.00    +0.000 C 
ATOM     11  O   UNL     1      -0.744  13.197  18.154  0.00  0.00    +0.000 OA
BRANCH  10  12
ATOM     12  O   UNL     1      -1.929  12.484  19.985  0.00  0.00    +0.000 OA
BRANCH  12  14
ATOM     13  C   UNL     1      -0.313  12.790  21.711  0.00  0.00    +0.000 C 
ATOM     14  C   UNL     1      -1.404  11.882  21.175  0.00  0.00    +0.000 C 
ENDBRANCH  12  14
ENDBRANCH  10  12
ENDBRANCH   8  10
ENDBRANCH   7   8
ENDBRANCH   1   7
BRANCH   4  15
ATOM     15  O   UNL     1       2.959   5.869  19.754  0.00  0.00    +0.000 OA
BRANCH  15  16
ATOM     16  C   UNL     1       3.728   5.314  18.742  0.00  0.00    +0.000 A 
ATOM     17  N   UNL     1       5.039   5.660  18.652  0.00  0.00    +0.000 NA
ATOM     18  C   UNL     1       5.750   5.107  17.642  0.00  0.00    +0.000 A 
ATOM     19  C   UNL     1       5.207   4.241  16.706  0.00  0.00    +0.000 A 
ATOM     20 CL   UNL     1       6.178   3.579  15.458  0.00  0.00    +0.000 Cl
ATOM     21  C   UNL     1       3.857   3.917  16.799  0.00  0.00    +0.000 A 
ATOM     22  C   UNL     1       3.098   4.465  17.832  0.00  0.00    +0.000 A 
ATOM     23 CL   UNL     1       1.429   4.058  17.950  0.00  0.00    +0.000 Cl
ENDBRANCH  15  16
ENDBRANCH   4  15
TORSDOF 7
ENDMDL
MODEL 8
REMARK VINA RESULT:      -6.7      6.073      8.415
REMARK  Name = 
REMARK  9 active torsions:
REMARK  status: ('A' for Active; 'I' for Inactive)
REMARK    1  A    between atoms: C_1  and  C_2
REMARK    2  A    between atoms: C_2  and  O_3
REMARK    3  A    between atoms: O_3  and  C_4
REMARK    4  A    between atoms: C_4  and  C_6
REMARK    5  A    between atoms: C_6  and  C_7
REMARK    6  A    between atoms: C_6  and  O_8
REMARK    7  A    between atoms: O_8  and  C_9
REMARK    8  A    between atoms: C_12  and  O_13
REMARK    9  A    between atoms: O_13  and  C_14
REMARK                            x       y       z     vdW  Elec       q    Type
REMARK                         _______ _______ _______ _____ _____    ______ ____
ROOT
ATOM      1  C   UNL     1       2.253   7.073  19.603  0.00  0.00    +0.000 A 
ATOM      2  C   UNL     1       2.386   7.508  18.281  0.00  0.00    +0.000 A 
ATOM      3  C   UNL     1       1.902   8.759  17.897  0.00  0.00    +0.000 A 
ATOM      4  C   UNL     1       1.259   9.573  18.828  0.00  0.00    +0.000 A 
ATOM      5  C   UNL     1       1.117   9.136  20.148  0.00  0.00    +0.000 A 
ATOM      6  C   UNL     1       1.585   7.875  20.524  0.00  0.00    +0.000 A 
ENDROOT
BRANCH   1   7
ATOM      7  O   UNL     1       2.826   5.863  19.866  0.00  0.00    +0.000 OA
BRANCH   7   8
ATOM      8  C   UNL     1       2.144   4.682  19.434  0.00  0.00    +0.000 C 
ATOM      9  C   UNL     1       1.200   4.157  20.515  0.00  0.00    +0.000 C 
BRANCH   8  10
ATOM     10  C   UNL     1       3.196   3.625  19.088  0.00  0.00    +0.000 C 
ATOM     11  O   UNL     1       3.128   2.430  19.340  0.00  0.00    +0.000 OA
BRANCH  10  12
ATOM     12  O   UNL     1       4.296   4.244  18.557  0.00  0.00    +0.000 OA
BRANCH  12  14
ATOM     13  C   UNL     1       4.875   5.386  16.546  0.00  0.00    +0.000 C 
ATOM     14  C   UNL     1       4.500   4.046  17.153  0.00  0.00    +0.000 C 
ENDBRANCH  12  14
ENDBRANCH  10  12
ENDBRANCH   8  10
ENDBRANCH   7   8
ENDBRANCH   1   7
BRANCH   4  15
ATOM     15  O   UNL     1       0.880  10.821  18.390  0.00  0.00    +0.000 OA
BRANCH  15  16
ATOM     16  C   UNL     1      -0.279  11.380  18.908  0.00  0.00    +0.000 A 
ATOM     17  N   UNL     1      -0.178  12.248  19.949  0.00  0.00    +0.000 NA
ATOM     18  C   UNL     1      -1.333  12.759  20.435  0.00  0.00    +0.000 A 
ATOM     19  C   UNL     1      -2.585  12.428  19.941  0.00  0.00    +0.000 A 
ATOM     20 CL   UNL     1      -4.003  13.125  20.610  0.00  0.00    +0.000 Cl
ATOM     21  C   UNL     1      -2.671  11.519  18.892  0.00  0.00    +0.000 A 
ATOM     22  C   UNL     1      -1.499  10.979  18.365  0.00  0.00    +0.000 A 
ATOM     23 CL   UNL     1      -1.607   9.859  17.061  0.00  0.00    +0.000 Cl
ENDBRANCH  15  16
ENDBRANCH   4  15
TORSDOF 7
ENDMDL
MODEL 9
REMARK VINA RESULT:      -6.7      5.579      7.903
REMARK  Name = 
REMARK  9 active torsions:
REMARK  status: ('A' for Active; 'I' for Inactive)
REMARK    1  A    between atoms: C_1  and  C_2
REMARK    2  A    between atoms: C_2  and  O_3
REMARK    3  A    between atoms: O_3  and  C_4
REMARK    4  A    between atoms: C_4  and  C_6
REMARK    5  A    between atoms: C_6  and  C_7
REMARK    6  A    between atoms: C_6  and  O_8
REMARK    7  A    between atoms: O_8  and  C_9
REMARK    8  A    between atoms: C_12  and  O_13
REMARK    9  A    between atoms: O_13  and  C_14
REMARK                            x       y       z     vdW  Elec       q    Type
REMARK                         _______ _______ _______ _____ _____    ______ ____
ROOT
ATOM      1  C   UNL     1       2.511   6.433  19.050  0.00  0.00    +0.000 A 
ATOM      2  C   UNL     1       1.923   6.996  20.187  0.00  0.00    +0.000 A 
ATOM      3  C   UNL     1       1.515   8.331  20.184  0.00  0.00    +0.000 A 
ATOM      4  C   UNL     1       1.714   9.117  19.051  0.00  0.00    +0.000 A 
ATOM      5  C   UNL     1       2.310   8.559  17.917  0.00  0.00    +0.000 A 
ATOM      6  C   UNL     1       2.736   7.228  17.930  0.00  0.00    +0.000 A 
ENDROOT
BRANCH   1   7
ATOM      7  O   UNL     1       2.804   5.104  19.158  0.00  0.00    +0.000 OA
BRANCH   7   8
ATOM      8  C   UNL     1       3.801   4.558  18.291  0.00  0.00    +0.000 C 
ATOM      9  C   UNL     1       3.236   3.423  17.437  0.00  0.00    +0.000 C 
BRANCH   8  10
ATOM     10  C   UNL     1       4.955   4.047  19.157  0.00  0.00    +0.000 C 
ATOM     11  O   UNL     1       5.023   2.950  19.694  0.00  0.00    +0.000 OA
BRANCH  10  12
ATOM     12  O   UNL     1       5.858   5.059  19.345  0.00  0.00    +0.000 OA
BRANCH  12  14
ATOM     13  C   UNL     1       7.602   4.681  17.764  0.00  0.00    +0.000 C 
ATOM     14  C   UNL     1       6.450   5.590  18.154  0.00  0.00    +0.000 C 
ENDBRANCH  12  14
ENDBRANCH  10  12
ENDBRANCH   8  10
ENDBRANCH   7   8
ENDBRANCH   1   7
BRANCH   4  15
ATOM     15  O   UNL     1       1.215  10.399  19.100  0.00  0.00    +0.000 OA
BRANCH  15  16
ATOM     16  C   UNL     1      -0.119  10.602  18.784  0.00  0.00    +0.000 A 
ATOM     17  N   UNL     1      -0.659   9.907  17.748  0.00  0.00    +0.000 NA
ATOM     18  C   UNL     1      -1.960  10.146  17.463  0.00  0.00    +0.000 A 
ATOM     19  C   UNL     1      -2.741  11.062  18.151  0.00  0.00    +0.000 A 
ATOM     20 CL   UNL     1      -4.386  11.302  17.729  0.00  0.00    +0.000 Cl
ATOM     21  C   UNL     1      -2.165  11.782  19.192  0.00  0.00    +0.000 A 
ATOM     22  C   UNL     1      -0.828  11.555  19.515  0.00  0.00    +0.000 A 
ATOM     23 CL   UNL     1      -0.118  12.443  20.809  0.00  0.00    +0.000 Cl
ENDBRANCH  15  16
ENDBRANCH   4  15
TORSDOF 7
ENDMDL
