MODEL 1
REMARK VINA RESULT:      -6.9      0.000      0.000
REMARK  Name = 
REMARK  4 active torsions:
REMARK  status: ('A' for Active; 'I' for Inactive)
REMARK    1  A    between atoms: C_1  and  C_2
REMARK    2  A    between atoms: C_7  and  C_8
REMARK    3  A    between atoms: N_9  and  C_10
REMARK    4  A    between atoms: N_20  and  C_21
REMARK                            x       y       z     vdW  Elec       q    Type
REMARK                         _______ _______ _______ _____ _____    ______ ____
ROOT
ATOM      1  C   UNL     1      -5.119  11.406  16.829  0.00  0.00    +0.000 C 
ATOM      2  C   UNL     1      -3.805  11.240  17.536  0.00  0.00    +0.000 A 
ATOM      3  C   UNL     1      -3.613  11.976  18.706  0.00  0.00    +0.000 A 
ATOM      4  C   UNL     1      -2.387  11.999  19.372  0.00  0.00    +0.000 A 
ATOM      5  C   UNL     1      -1.310  11.224  18.902  0.00  0.00    +0.000 A 
ATOM      6  C   UNL     1      -1.512  10.455  17.745  0.00  0.00    +0.000 A 
ATOM      7  C   UNL     1      -2.746  10.456  17.051  0.00  0.00    +0.000 A 
ATOM      8  C   UNL     1      -2.840   9.673  15.773  0.00  0.00    +0.000 C 
ATOM      9  N   UNL     1      -0.100  11.154  19.646  0.00  0.00    +0.000 N 
ATOM     10  C   UNL     1       1.141  10.967  18.903  0.00  0.00    +0.000 C 
ATOM     11  C   UNL     1      -0.174  10.856  20.980  0.00  0.00    +0.000 A 
ATOM     12  C   UNL     1       0.413   9.756  21.566  0.00  0.00    +0.000 A 
ATOM     13  S   UNL     1      -0.123   9.533  23.173  0.00  0.00    +0.000 S 
ATOM     14  C   UNL     1      -1.139  10.905  23.074  0.00  0.00    +0.000 A 
ATOM     15  C   UNL     1      -1.016  11.600  21.885  0.00  0.00    +0.000 A 
ATOM     16  C   UNL     1      -1.704  12.840  21.510  0.00  0.00    +0.000 C 
ATOM     17  N   UNL     1      -1.657  13.945  22.357  0.00  0.00    +0.000 N 
ATOM     18  C   UNL     1      -1.238  13.939  23.756  0.00  0.00    +0.000 C 
ATOM     19  C   UNL     1      -1.769  15.172  24.518  0.00  0.00    +0.000 C 
ATOM     20  N   UNL     1      -1.378  16.439  23.878  0.00  0.00    +0.000 NA
ATOM     21  C   UNL     1      -1.853  17.580  24.655  0.00  0.00    +0.000 C 
ATOM     22  C   UNL     1      -1.946  16.449  22.517  0.00  0.00    +0.000 C 
ATOM     23  C   UNL     1      -1.438  15.258  21.682  0.00  0.00    +0.000 C 
ATOM     24  N   UNL     1      -2.299  12.975  20.367  0.00  0.00    +0.000 NA
ENDROOT
TORSDOF 0
ENDMDL
MODEL 2
REMARK VINA RESULT:      -6.8      3.079      5.048
REMARK  Name = 
REMARK  4 active torsions:
REMARK  status: ('A' for Active; 'I' for Inactive)
REMARK    1  A    between atoms: C_1  and  C_2
REMARK    2  A    between atoms: C_7  and  C_8
REMARK    3  A    between atoms: N_9  and  C_10
REMARK    4  A    between atoms: N_20  and  C_21
REMARK                            x       y       z     vdW  Elec       q    Type
REMARK                         _______ _______ _______ _____ _____    ______ ____
ROOT
ATOM      1  C   UNL     1       1.690  16.460  19.023  0.00  0.00    +0.000 C 
ATOM      2  C   UNL     1       1.218  15.037  18.946  0.00  0.00    +0.000 A 
ATOM      3  C   UNL     1      -0.095  14.778  19.343  0.00  0.00    +0.000 A 
ATOM      4  C   UNL     1      -0.597  13.479  19.436  0.00  0.00    +0.000 A 
ATOM      5  C   UNL     1       0.206  12.381  19.072  0.00  0.00    +0.000 A 
ATOM      6  C   UNL     1       1.515  12.642  18.638  0.00  0.00    +0.000 A 
ATOM      7  C   UNL     1       2.035  13.957  18.575  0.00  0.00    +0.000 A 
ATOM      8  C   UNL     1       3.475  14.131  18.185  0.00  0.00    +0.000 C 
ATOM      9  N   UNL     1      -0.343  11.069  19.052  0.00  0.00    +0.000 N 
ATOM     10  C   UNL     1       0.552   9.957  19.351  0.00  0.00    +0.000 C 
ATOM     11  C   UNL     1      -1.518  10.867  18.379  0.00  0.00    +0.000 A 
ATOM     12  C   UNL     1      -1.665  10.012  17.308  0.00  0.00    +0.000 A 
ATOM     13  S   UNL     1      -3.171  10.225  16.530  0.00  0.00    +0.000 S 
ATOM     14  C   UNL     1      -3.615  11.461  17.627  0.00  0.00    +0.000 A 
ATOM     15  C   UNL     1      -2.695  11.659  18.639  0.00  0.00    +0.000 A 
ATOM     16  C   UNL     1      -2.802  12.599  19.760  0.00  0.00    +0.000 C 
ATOM     17  N   UNL     1      -3.941  12.599  20.563  0.00  0.00    +0.000 N 
ATOM     18  C   UNL     1      -5.214  11.956  20.249  0.00  0.00    +0.000 C 
ATOM     19  C   UNL     1      -6.375  12.552  21.074  0.00  0.00    +0.000 C 
ATOM     20  N   UNL     1      -6.122  12.494  22.523  0.00  0.00    +0.000 NA
ATOM     21  C   UNL     1      -7.262  13.017  23.269  0.00  0.00    +0.000 C 
ATOM     22  C   UNL     1      -4.902  13.275  22.799  0.00  0.00    +0.000 C 
ATOM     23  C   UNL     1      -3.688  12.721  22.029  0.00  0.00    +0.000 C 
ATOM     24  N   UNL     1      -1.831  13.392  20.085  0.00  0.00    +0.000 NA
ENDROOT
TORSDOF 0
ENDMDL
MODEL 3
REMARK VINA RESULT:      -6.3      3.144      7.043
REMARK  Name = 
REMARK  4 active torsions:
REMARK  status: ('A' for Active; 'I' for Inactive)
REMARK    1  A    between atoms: C_1  and  C_2
REMARK    2  A    between atoms: C_7  and  C_8
REMARK    3  A    between atoms: N_9  and  C_10
REMARK    4  A    between atoms: N_20  and  C_21
REMARK                            x       y       z     vdW  Elec       q    Type
REMARK                         _______ _______ _______ _____ _____    ______ ____
ROOT
ATOM      1  C   UNL     1       3.253  15.638  18.061  0.00  0.00    +0.000 C 
ATOM      2  C   UNL     1       2.107  14.779  18.510  0.00  0.00    +0.000 A 
ATOM      3  C   UNL     1       2.356  13.415  18.669  0.00  0.00    +0.000 A 
ATOM      4  C   UNL     1       1.337  12.506  18.957  0.00  0.00    +0.000 A 
ATOM      5  C   UNL     1       0.017  12.958  19.149  0.00  0.00    +0.000 A 
ATOM      6  C   UNL     1      -0.229  14.334  19.024  0.00  0.00    +0.000 A 
ATOM      7  C   UNL     1       0.799  15.252  18.702  0.00  0.00    +0.000 A 
ATOM      8  C   UNL     1       0.423  16.693  18.499  0.00  0.00    +0.000 C 
ATOM      9  N   UNL     1      -0.997  12.049  19.560  0.00  0.00    +0.000 N 
ATOM     10  C   UNL     1      -2.360  12.311  19.111  0.00  0.00    +0.000 C 
ATOM     11  C   UNL     1      -0.752  11.247  20.641  0.00  0.00    +0.000 A 
ATOM     12  C   UNL     1      -1.497  11.255  21.801  0.00  0.00    +0.000 A 
ATOM     13  S   UNL     1      -0.745  10.356  23.043  0.00  0.00    +0.000 S 
ATOM     14  C   UNL     1       0.574   9.965  22.025  0.00  0.00    +0.000 A 
ATOM     15  C   UNL     1       0.421  10.413  20.726  0.00  0.00    +0.000 A 
ATOM     16  C   UNL     1       1.340  10.198  19.603  0.00  0.00    +0.000 C 
ATOM     17  N   UNL     1       1.766   8.910  19.289  0.00  0.00    +0.000 N 
ATOM     18  C   UNL     1       1.640   7.731  20.141  0.00  0.00    +0.000 C 
ATOM     19  C   UNL     1       2.629   6.619  19.730  0.00  0.00    +0.000 C 
ATOM     20  N   UNL     1       2.490   6.238  18.315  0.00  0.00    +0.000 NA
ATOM     21  C   UNL     1       3.403   5.150  17.979  0.00  0.00    +0.000 C 
ATOM     22  C   UNL     1       2.764   7.434  17.498  0.00  0.00    +0.000 C 
ATOM     23  C   UNL     1       1.795   8.584  17.833  0.00  0.00    +0.000 C 
ATOM     24  N   UNL     1       1.717  11.168  18.831  0.00  0.00    +0.000 NA
ENDROOT
TORSDOF 0
ENDMDL
MODEL 4
REMARK VINA RESULT:      -6.0      3.211      5.703
REMARK  Name = 
REMARK  4 active torsions:
REMARK  status: ('A' for Active; 'I' for Inactive)
REMARK    1  A    between atoms: C_1  and  C_2
REMARK    2  A    between atoms: C_7  and  C_8
REMARK    3  A    between atoms: N_9  and  C_10
REMARK    4  A    between atoms: N_20  and  C_21
REMARK                            x       y       z     vdW  Elec       q    Type
REMARK                         _______ _______ _______ _____ _____    ______ ____
ROOT
ATOM      1  C   UNL     1      -4.553  12.639  25.238  0.00  0.00    +0.000 C 
ATOM      2  C   UNL     1      -4.701  12.622  23.745  0.00  0.00    +0.000 A 
ATOM      3  C   UNL     1      -3.540  12.774  22.986  0.00  0.00    +0.000 A 
ATOM      4  C   UNL     1      -3.576  12.903  21.597  0.00  0.00    +0.000 A 
ATOM      5  C   UNL     1      -4.802  12.827  20.909  0.00  0.00    +0.000 A 
ATOM      6  C   UNL     1      -5.968  12.638  21.667  0.00  0.00    +0.000 A 
ATOM      7  C   UNL     1      -5.935  12.539  23.079  0.00  0.00    +0.000 A 
ATOM      8  C   UNL     1      -7.242  12.429  23.812  0.00  0.00    +0.000 C 
ATOM      9  N   UNL     1      -4.827  12.837  19.487  0.00  0.00    +0.000 N 
ATOM     10  C   UNL     1      -5.990  13.427  18.835  0.00  0.00    +0.000 C 
ATOM     11  C   UNL     1      -4.008  11.969  18.817  0.00  0.00    +0.000 A 
ATOM     12  C   UNL     1      -4.451  10.989  17.956  0.00  0.00    +0.000 A 
ATOM     13  S   UNL     1      -3.199   9.907  17.530  0.00  0.00    +0.000 S 
ATOM     14  C   UNL     1      -2.074  10.754  18.501  0.00  0.00    +0.000 A 
ATOM     15  C   UNL     1      -2.590  11.903  19.071  0.00  0.00    +0.000 A 
ATOM     16  C   UNL     1      -1.875  12.873  19.908  0.00  0.00    +0.000 C 
ATOM     17  N   UNL     1      -0.677  13.427  19.463  0.00  0.00    +0.000 N 
ATOM     18  C   UNL     1       0.139  12.936  18.357  0.00  0.00    +0.000 C 
ATOM     19  C   UNL     1       1.594  13.444  18.449  0.00  0.00    +0.000 C 
ATOM     20  N   UNL     1       1.674  14.912  18.524  0.00  0.00    +0.000 NA
ATOM     21  C   UNL     1       3.064  15.355  18.556  0.00  0.00    +0.000 C 
ATOM     22  C   UNL     1       0.950  15.340  19.735  0.00  0.00    +0.000 C 
ATOM     23  C   UNL     1      -0.524  14.892  19.704  0.00  0.00    +0.000 C 
ATOM     24  N   UNL     1      -2.361  13.298  21.031  0.00  0.00    +0.000 NA
ENDROOT
TORSDOF 0
ENDMDL
MODEL 5
REMARK VINA RESULT:      -5.7      9.123     11.141
REMARK  Name = 
REMARK  4 active torsions:
REMARK  status: ('A' for Active; 'I' for Inactive)
REMARK    1  A    between atoms: C_1  and  C_2
REMARK    2  A    between atoms: C_7  and  C_8
REMARK    3  A    between atoms: N_9  and  C_10
REMARK    4  A    between atoms: N_20  and  C_21
REMARK                            x       y       z     vdW  Elec       q    Type
REMARK                         _______ _______ _______ _____ _____    ______ ____
ROOT
ATOM      1  C   UNL     1       9.477  10.631  19.105  0.00  0.00    +0.000 C 
ATOM      2  C   UNL     1       9.668  12.104  18.890  0.00  0.00    +0.000 A 
ATOM      3  C   UNL     1       8.615  12.945  19.254  0.00  0.00    +0.000 A 
ATOM      4  C   UNL     1       8.632  14.313  18.980  0.00  0.00    +0.000 A 
ATOM      5  C   UNL     1       9.756  14.899  18.367  0.00  0.00    +0.000 A 
ATOM      6  C   UNL     1      10.832  14.061  18.032  0.00  0.00    +0.000 A 
ATOM      7  C   UNL     1      10.801  12.668  18.281  0.00  0.00    +0.000 A 
ATOM      8  C   UNL     1      11.960  11.839  17.806  0.00  0.00    +0.000 C 
ATOM      9  N   UNL     1       9.824  16.310  18.197  0.00  0.00    +0.000 N 
ATOM     10  C   UNL     1      10.559  16.817  17.044  0.00  0.00    +0.000 C 
ATOM     11  C   UNL     1       9.575  17.107  19.281  0.00  0.00    +0.000 A 
ATOM     12  C   UNL     1      10.480  17.996  19.818  0.00  0.00    +0.000 A 
ATOM     13  S   UNL     1       9.954  18.603  21.325  0.00  0.00    +0.000 S 
ATOM     14  C   UNL     1       8.521  17.671  21.253  0.00  0.00    +0.000 A 
ATOM     15  C   UNL     1       8.372  16.978  20.066  0.00  0.00    +0.000 A 
ATOM     16  C   UNL     1       7.238  16.136  19.671  0.00  0.00    +0.000 C 
ATOM     17  N   UNL     1       5.940  16.638  19.738  0.00  0.00    +0.000 N 
ATOM     18  C   UNL     1       5.521  17.842  20.450  0.00  0.00    +0.000 C 
ATOM     19  C   UNL     1       4.005  17.835  20.742  0.00  0.00    +0.000 C 
ATOM     20  N   UNL     1       3.198  17.662  19.522  0.00  0.00    +0.000 NA
ATOM     21  C   UNL     1       1.773  17.714  19.831  0.00  0.00    +0.000 C 
ATOM     22  C   UNL     1       3.566  16.366  18.921  0.00  0.00    +0.000 C 
ATOM     23  C   UNL     1       5.066  16.306  18.575  0.00  0.00    +0.000 C 
ATOM     24  N   UNL     1       7.404  14.948  19.181  0.00  0.00    +0.000 NA
ENDROOT
TORSDOF 0
ENDMDL
MODEL 6
REMARK VINA RESULT:      -5.6      8.666     10.803
REMARK  Name = 
REMARK  4 active torsions:
REMARK  status: ('A' for Active; 'I' for Inactive)
REMARK    1  A    between atoms: C_1  and  C_2
REMARK    2  A    between atoms: C_7  and  C_8
REMARK    3  A    between atoms: N_9  and  C_10
REMARK    4  A    between atoms: N_20  and  C_21
REMARK                            x       y       z     vdW  Elec       q    Type
REMARK                         _______ _______ _______ _____ _____    ______ ____
ROOT
ATOM      1  C   UNL     1      10.015  11.179  17.880  0.00  0.00    +0.000 C 
ATOM      2  C   UNL     1       9.868  12.666  18.018  0.00  0.00    +0.000 A 
ATOM      3  C   UNL     1       8.615  13.152  18.396  0.00  0.00    +0.000 A 
ATOM      4  C   UNL     1       8.330  14.517  18.428  0.00  0.00    +0.000 A 
ATOM      5  C   UNL     1       9.333  15.458  18.126  0.00  0.00    +0.000 A 
ATOM      6  C   UNL     1      10.604  14.973  17.780  0.00  0.00    +0.000 A 
ATOM      7  C   UNL     1      10.885  13.587  17.717  0.00  0.00    +0.000 A 
ATOM      8  C   UNL     1      12.247  13.161  17.249  0.00  0.00    +0.000 C 
ATOM      9  N   UNL     1       9.077  16.849  18.276  0.00  0.00    +0.000 N 
ATOM     10  C   UNL     1       9.774  17.765  17.379  0.00  0.00    +0.000 C 
ATOM     11  C   UNL     1       8.545  17.289  19.458  0.00  0.00    +0.000 A 
ATOM     12  C   UNL     1       9.158  18.191  20.300  0.00  0.00    +0.000 A 
ATOM     13  S   UNL     1       8.364  18.289  21.809  0.00  0.00    +0.000 S 
ATOM     14  C   UNL     1       7.209  17.121  21.330  0.00  0.00    +0.000 A 
ATOM     15  C   UNL     1       7.341  16.722  20.013  0.00  0.00    +0.000 A 
ATOM     16  C   UNL     1       6.483  15.781  19.284  0.00  0.00    +0.000 C 
ATOM     17  N   UNL     1       5.102  15.967  19.268  0.00  0.00    +0.000 N 
ATOM     18  C   UNL     1       4.343  16.846  20.153  0.00  0.00    +0.000 C 
ATOM     19  C   UNL     1       2.852  16.449  20.212  0.00  0.00    +0.000 C 
ATOM     20  N   UNL     1       2.227  16.410  18.880  0.00  0.00    +0.000 NA
ATOM     21  C   UNL     1       0.808  16.084  18.981  0.00  0.00    +0.000 C 
ATOM     22  C   UNL     1       2.948  15.407  18.074  0.00  0.00    +0.000 C 
ATOM     23  C   UNL     1       4.444  15.750  17.946  0.00  0.00    +0.000 C 
ATOM     24  N   UNL     1       6.973  14.811  18.580  0.00  0.00    +0.000 NA
ENDROOT
TORSDOF 0
ENDMDL
MODEL 7
REMARK VINA RESULT:      -5.6      2.804      3.689
REMARK  Name = 
REMARK  4 active torsions:
REMARK  status: ('A' for Active; 'I' for Inactive)
REMARK    1  A    between atoms: C_1  and  C_2
REMARK    2  A    between atoms: C_7  and  C_8
REMARK    3  A    between atoms: N_9  and  C_10
REMARK    4  A    between atoms: N_20  and  C_21
REMARK                            x       y       z     vdW  Elec       q    Type
REMARK                         _______ _______ _______ _____ _____    ______ ____
ROOT
ATOM      1  C   UNL     1      -6.640  12.412  21.211  0.00  0.00    +0.000 C 
ATOM      2  C   UNL     1      -5.527  12.058  20.267  0.00  0.00    +0.000 A 
ATOM      3  C   UNL     1      -4.297  12.685  20.468  0.00  0.00    +0.000 A 
ATOM      4  C   UNL     1      -3.234  12.531  19.576  0.00  0.00    +0.000 A 
ATOM      5  C   UNL     1      -3.362  11.681  18.461  0.00  0.00    +0.000 A 
ATOM      6  C   UNL     1      -4.588  11.022  18.277  0.00  0.00    +0.000 A 
ATOM      7  C   UNL     1      -5.676  11.203  19.164  0.00  0.00    +0.000 A 
ATOM      8  C   UNL     1      -6.977  10.527  18.835  0.00  0.00    +0.000 C 
ATOM      9  N   UNL     1      -2.242  11.430  17.620  0.00  0.00    +0.000 N 
ATOM     10  C   UNL     1      -2.502  11.167  16.210  0.00  0.00    +0.000 C 
ATOM     11  C   UNL     1      -1.065  11.048  18.204  0.00  0.00    +0.000 A 
ATOM     12  C   UNL     1      -0.425   9.853  17.956  0.00  0.00    +0.000 A 
ATOM     13  S   UNL     1       0.847   9.575  19.062  0.00  0.00    +0.000 S 
ATOM     14  C   UNL     1       0.532  11.051  19.868  0.00  0.00    +0.000 A 
ATOM     15  C   UNL     1      -0.453  11.811  19.264  0.00  0.00    +0.000 A 
ATOM     16  C   UNL     1      -0.918  13.141  19.673  0.00  0.00    +0.000 C 
ATOM     17  N   UNL     1      -0.001  14.172  19.862  0.00  0.00    +0.000 N 
ATOM     18  C   UNL     1       1.446  14.022  19.992  0.00  0.00    +0.000 C 
ATOM     19  C   UNL     1       2.089  15.248  20.676  0.00  0.00    +0.000 C 
ATOM     20  N   UNL     1       1.771  16.508  19.985  0.00  0.00    +0.000 NA
ATOM     21  C   UNL     1       2.439  17.635  20.629  0.00  0.00    +0.000 C 
ATOM     22  C   UNL     1       0.305  16.675  20.007  0.00  0.00    +0.000 C 
ATOM     23  C   UNL     1      -0.410  15.499  19.315  0.00  0.00    +0.000 C 
ATOM     24  N   UNL     1      -2.178  13.419  19.792  0.00  0.00    +0.000 NA
ENDROOT
TORSDOF 0
ENDMDL
MODEL 8
REMARK VINA RESULT:      -5.6      3.454      4.917
REMARK  Name = 
REMARK  4 active torsions:
REMARK  status: ('A' for Active; 'I' for Inactive)
REMARK    1  A    between atoms: C_1  and  C_2
REMARK    2  A    between atoms: C_7  and  C_8
REMARK    3  A    between atoms: N_9  and  C_10
REMARK    4  A    between atoms: N_20  and  C_21
REMARK                            x       y       z     vdW  Elec       q    Type
REMARK                         _______ _______ _______ _____ _____    ______ ____
ROOT
ATOM      1  C   UNL     1       0.611  18.467  17.670  0.00  0.00    +0.000 C 
ATOM      2  C   UNL     1       0.684  17.070  18.215  0.00  0.00    +0.000 A 
ATOM      3  C   UNL     1      -0.465  16.561  18.822  0.00  0.00    +0.000 A 
ATOM      4  C   UNL     1      -0.472  15.329  19.476  0.00  0.00    +0.000 A 
ATOM      5  C   UNL     1       0.687  14.529  19.494  0.00  0.00    +0.000 A 
ATOM      6  C   UNL     1       1.833  15.023  18.852  0.00  0.00    +0.000 A 
ATOM      7  C   UNL     1       1.849  16.288  18.216  0.00  0.00    +0.000 A 
ATOM      8  C   UNL     1       3.148  16.772  17.636  0.00  0.00    +0.000 C 
ATOM      9  N   UNL     1       0.646  13.222  20.054  0.00  0.00    +0.000 N 
ATOM     10  C   UNL     1       1.865  12.714  20.672  0.00  0.00    +0.000 C 
ATOM     11  C   UNL     1      -0.347  12.372  19.649  0.00  0.00    +0.000 A 
ATOM     12  C   UNL     1      -0.129  11.161  19.028  0.00  0.00    +0.000 A 
ATOM     13  S   UNL     1      -1.574  10.504  18.398  0.00  0.00    +0.000 S 
ATOM     14  C   UNL     1      -2.481  11.843  18.955  0.00  0.00    +0.000 A 
ATOM     15  C   UNL     1      -1.740  12.741  19.700  0.00  0.00    +0.000 A 
ATOM     16  C   UNL     1      -2.227  13.957  20.360  0.00  0.00    +0.000 C 
ATOM     17  N   UNL     1      -3.325  13.893  21.216  0.00  0.00    +0.000 N 
ATOM     18  C   UNL     1      -4.267  12.782  21.323  0.00  0.00    +0.000 C 
ATOM     19  C   UNL     1      -5.601  13.223  21.964  0.00  0.00    +0.000 C 
ATOM     20  N   UNL     1      -5.410  13.853  23.281  0.00  0.00    +0.000 NA
ATOM     21  C   UNL     1      -6.694  14.207  23.877  0.00  0.00    +0.000 C 
ATOM     22  C   UNL     1      -4.565  15.047  23.090  0.00  0.00    +0.000 C 
ATOM     23  C   UNL     1      -3.199  14.683  22.476  0.00  0.00    +0.000 C 
ATOM     24  N   UNL     1      -1.621  15.095  20.236  0.00  0.00    +0.000 NA
ENDROOT
TORSDOF 0
ENDMDL
MODEL 9
REMARK VINA RESULT:      -5.5      1.599      6.487
REMARK  Name = 
REMARK  4 active torsions:
REMARK  status: ('A' for Active; 'I' for Inactive)
REMARK    1  A    between atoms: C_1  and  C_2
REMARK    2  A    between atoms: C_7  and  C_8
REMARK    3  A    between atoms: N_9  and  C_10
REMARK    4  A    between atoms: N_20  and  C_21
REMARK                            x       y       z     vdW  Elec       q    Type
REMARK                         _______ _______ _______ _____ _____    ______ ____
ROOT
ATOM      1  C   UNL     1      -0.225  17.542  21.161  0.00  0.00    +0.000 C 
ATOM      2  C   UNL     1      -0.652  16.186  21.642  0.00  0.00    +0.000 A 
ATOM      3  C   UNL     1      -0.825  15.193  20.677  0.00  0.00    +0.000 A 
ATOM      4  C   UNL     1      -1.343  13.936  20.994  0.00  0.00    +0.000 A 
ATOM      5  C   UNL     1      -1.659  13.616  22.328  0.00  0.00    +0.000 A 
ATOM      6  C   UNL     1      -1.452  14.602  23.306  0.00  0.00    +0.000 A 
ATOM      7  C   UNL     1      -0.957  15.887  22.979  0.00  0.00    +0.000 A 
ATOM      8  C   UNL     1      -0.855  16.906  24.078  0.00  0.00    +0.000 C 
ATOM      9  N   UNL     1      -2.072  12.298  22.669  0.00  0.00    +0.000 N 
ATOM     10  C   UNL     1      -2.999  12.148  23.785  0.00  0.00    +0.000 C 
ATOM     11  C   UNL     1      -1.309  11.246  22.240  0.00  0.00    +0.000 A 
ATOM     12  C   UNL     1      -0.693  10.340  23.075  0.00  0.00    +0.000 A 
ATOM     13  S   UNL     1       0.410   9.347  22.228  0.00  0.00    +0.000 S 
ATOM     14  C   UNL     1       0.060  10.138  20.752  0.00  0.00    +0.000 A 
ATOM     15  C   UNL     1      -0.949  11.076  20.853  0.00  0.00    +0.000 A 
ATOM     16  C   UNL     1      -1.518  11.884  19.769  0.00  0.00    +0.000 C 
ATOM     17  N   UNL     1      -1.977  11.266  18.608  0.00  0.00    +0.000 N 
ATOM     18  C   UNL     1      -1.694   9.894  18.194  0.00  0.00    +0.000 C 
ATOM     19  C   UNL     1      -1.917   9.695  16.680  0.00  0.00    +0.000 C 
ATOM     20  N   UNL     1      -3.272  10.081  16.256  0.00  0.00    +0.000 NA
ATOM     21  C   UNL     1      -3.462   9.830  14.831  0.00  0.00    +0.000 C 
ATOM     22  C   UNL     1      -3.453  11.511  16.572  0.00  0.00    +0.000 C 
ATOM     23  C   UNL     1      -3.272  11.785  18.077  0.00  0.00    +0.000 C 
ATOM     24  N   UNL     1      -1.682  13.164  19.881  0.00  0.00    +0.000 NA
ENDROOT
TORSDOF 0
ENDMDL
