MODEL 1
REMARK VINA RESULT:      -7.6      0.000      0.000
REMARK  Name = 
REMARK  6 active torsions:
REMARK  status: ('A' for Active; 'I' for Inactive)
REMARK    1  A    between atoms: C_1  and  C_2
REMARK    2  A    between atoms: C_5  and  C_6
REMARK    3  A    between atoms: C_5  and  C_7
REMARK    4  A    between atoms: N_9  and  C_10
REMARK    5  A    between atoms: C_13  and  C_14
REMARK    6  A    between atoms: C_16  and  C_17
REMARK                            x       y       z     vdW  Elec       q    Type
REMARK                         _______ _______ _______ _____ _____    ______ ____
ROOT
ATOM      1  C   UNL     1       3.055   4.810  18.187  0.00  0.00    +0.000 C 
ATOM      2  O   UNL     1       1.966   4.577  17.663  0.00  0.00    +0.000 OA
ATOM      3  N   UNL     1       3.460   6.040  18.688  0.00  0.00    +0.000 N 
ATOM      4  H   UNL     1       4.451   6.086  18.932  0.00  0.00    +0.000 HD
ENDROOT
BRANCH   1   9
ATOM      5  C   UNL     1       7.153   4.897  16.356  0.00  0.00    +0.000 C 
ATOM      6  C   UNL     1       6.153   4.416  17.353  0.00  0.00    +0.000 C 
ATOM      7  N   UNL     1       6.310   4.529  18.637  0.00  0.00    +0.000 NA
ATOM      8  N   UNL     1       5.179   4.050  19.219  0.00  0.00    +0.000 N 
ATOM      9  C   UNL     1       4.137   3.710  18.228  0.00  0.00    +0.000 C 
ATOM     10  C   UNL     1       3.466   2.366  18.500  0.00  0.00    +0.000 C 
ATOM     11  C   UNL     1       4.903   3.725  16.910  0.00  0.00    +0.000 C 
ATOM     12  H   UNL     1       5.388   3.269  19.848  0.00  0.00    +0.000 HD
ENDBRANCH   1   9
BRANCH   3  13
ATOM     13  C   UNL     1       2.671   7.203  18.765  0.00  0.00    +0.000 A 
ATOM     14  C   UNL     1       2.533   8.083  17.693  0.00  0.00    +0.000 A 
ATOM     15  C   UNL     1       1.816   9.270  17.829  0.00  0.00    +0.000 A 
ATOM     16  C   UNL     1       1.204   9.598  19.043  0.00  0.00    +0.000 A 
ATOM     17  C   UNL     1       1.284   8.708  20.125  0.00  0.00    +0.000 A 
ATOM     18  C   UNL     1       2.008   7.499  19.963  0.00  0.00    +0.000 A 
BRANCH  17  19
ATOM     19  C   UNL     1       0.643   8.985  21.466  0.00  0.00    +0.000 C 
ATOM     20  F   UNL     1       0.422  10.293  21.744  0.00  0.00    +0.000 F 
ATOM     21  F   UNL     1      -0.566   8.371  21.587  0.00  0.00    +0.000 F 
ATOM     22  F   UNL     1       1.402   8.516  22.496  0.00  0.00    +0.000 F 
ENDBRANCH  17  19
BRANCH  16  23
ATOM     23  C   UNL     1       0.525  10.862  19.109  0.00  0.00    +0.000 C 
ATOM     24  N   UNL     1      -0.023  11.888  19.117  0.00  0.00    +0.000 NA
ENDBRANCH  16  23
ENDBRANCH   3  13
TORSDOF 4
ENDMDL
MODEL 2
REMARK VINA RESULT:      -7.4      0.801      1.144
REMARK  Name = 
REMARK  6 active torsions:
REMARK  status: ('A' for Active; 'I' for Inactive)
REMARK    1  A    between atoms: C_1  and  C_2
REMARK    2  A    between atoms: C_5  and  C_6
REMARK    3  A    between atoms: C_5  and  C_7
REMARK    4  A    between atoms: N_9  and  C_10
REMARK    5  A    between atoms: C_13  and  C_14
REMARK    6  A    between atoms: C_16  and  C_17
REMARK                            x       y       z     vdW  Elec       q    Type
REMARK                         _______ _______ _______ _____ _____    ______ ____
ROOT
ATOM      1  C   UNL     1       3.154   5.242  18.243  0.00  0.00    +0.000 C 
ATOM      2  O   UNL     1       2.031   4.777  18.047  0.00  0.00    +0.000 OA
ATOM      3  N   UNL     1       3.435   6.573  18.520  0.00  0.00    +0.000 N 
ATOM      4  H   UNL     1       4.430   6.805  18.487  0.00  0.00    +0.000 HD
ENDROOT
BRANCH   1   9
ATOM      5  C   UNL     1       7.443   6.500  17.825  0.00  0.00    +0.000 C 
ATOM      6  C   UNL     1       6.373   5.527  18.192  0.00  0.00    +0.000 C 
ATOM      7  N   UNL     1       6.241   5.022  19.381  0.00  0.00    +0.000 NA
ATOM      8  N   UNL     1       5.130   4.240  19.359  0.00  0.00    +0.000 N 
ATOM      9  C   UNL     1       4.396   4.341  18.080  0.00  0.00    +0.000 C 
ATOM     10  C   UNL     1       3.956   2.986  17.533  0.00  0.00    +0.000 C 
ATOM     11  C   UNL     1       5.396   5.043  17.169  0.00  0.00    +0.000 C 
ATOM     12  H   UNL     1       5.354   3.272  19.605  0.00  0.00    +0.000 HD
ENDBRANCH   1   9
BRANCH   3  13
ATOM     13  C   UNL     1       2.489   7.597  18.714  0.00  0.00    +0.000 A 
ATOM     14  C   UNL     1       2.061   8.421  17.675  0.00  0.00    +0.000 A 
ATOM     15  C   UNL     1       1.190   9.482  17.916  0.00  0.00    +0.000 A 
ATOM     16  C   UNL     1       0.713   9.734  19.207  0.00  0.00    +0.000 A 
ATOM     17  C   UNL     1       1.088   8.890  20.263  0.00  0.00    +0.000 A 
ATOM     18  C   UNL     1       1.966   7.808  19.996  0.00  0.00    +0.000 A 
BRANCH  17  19
ATOM     19  C   UNL     1       0.609   9.088  21.683  0.00  0.00    +0.000 C 
ATOM     20  F   UNL     1      -0.637   8.620  21.946  0.00  0.00    +0.000 F 
ATOM     21  F   UNL     1       1.429   8.483  22.586  0.00  0.00    +0.000 F 
ATOM     22  F   UNL     1       0.583  10.406  22.030  0.00  0.00    +0.000 F 
ENDBRANCH  17  19
BRANCH  16  23
ATOM     23  C   UNL     1      -0.144  10.874  19.374  0.00  0.00    +0.000 C 
ATOM     24  N   UNL     1      -0.850  11.782  19.550  0.00  0.00    +0.000 NA
ENDBRANCH  16  23
ENDBRANCH   3  13
TORSDOF 4
ENDMDL
MODEL 3
REMARK VINA RESULT:      -7.3      0.730      1.129
REMARK  Name = 
REMARK  6 active torsions:
REMARK  status: ('A' for Active; 'I' for Inactive)
REMARK    1  A    between atoms: C_1  and  C_2
REMARK    2  A    between atoms: C_5  and  C_6
REMARK    3  A    between atoms: C_5  and  C_7
REMARK    4  A    between atoms: N_9  and  C_10
REMARK    5  A    between atoms: C_13  and  C_14
REMARK    6  A    between atoms: C_16  and  C_17
REMARK                            x       y       z     vdW  Elec       q    Type
REMARK                         _______ _______ _______ _____ _____    ______ ____
ROOT
ATOM      1  C   UNL     1       2.941   4.807  18.989  0.00  0.00    +0.000 C 
ATOM      2  O   UNL     1       1.768   4.436  19.021  0.00  0.00    +0.000 OA
ATOM      3  N   UNL     1       3.365   6.126  18.897  0.00  0.00    +0.000 N 
ATOM      4  H   UNL     1       4.365   6.232  18.715  0.00  0.00    +0.000 HD
ENDROOT
BRANCH   1   9
ATOM      5  C   UNL     1       5.815   3.997  15.637  0.00  0.00    +0.000 C 
ATOM      6  C   UNL     1       5.411   3.984  17.073  0.00  0.00    +0.000 C 
ATOM      7  N   UNL     1       6.083   4.578  18.012  0.00  0.00    +0.000 NA
ATOM      8  N   UNL     1       5.384   4.412  19.166  0.00  0.00    +0.000 N 
ATOM      9  C   UNL     1       4.075   3.762  18.943  0.00  0.00    +0.000 C 
ATOM     10  C   UNL     1       3.773   2.660  19.955  0.00  0.00    +0.000 C 
ATOM     11  C   UNL     1       4.198   3.232  17.519  0.00  0.00    +0.000 C 
ATOM     12  H   UNL     1       5.945   3.927  19.872  0.00  0.00    +0.000 HD
ENDBRANCH   1   9
BRANCH   3  13
ATOM     13  C   UNL     1       2.537   7.266  18.915  0.00  0.00    +0.000 A 
ATOM     14  C   UNL     1       2.270   8.010  17.768  0.00  0.00    +0.000 A 
ATOM     15  C   UNL     1       1.519   9.182  17.834  0.00  0.00    +0.000 A 
ATOM     16  C   UNL     1       1.002   9.629  19.054  0.00  0.00    +0.000 A 
ATOM     17  C   UNL     1       1.213   8.873  20.217  0.00  0.00    +0.000 A 
ATOM     18  C   UNL     1       1.969   7.676  20.127  0.00  0.00    +0.000 A 
BRANCH  17  19
ATOM     19  C   UNL     1       0.679   9.282  21.571  0.00  0.00    +0.000 C 
ATOM     20  F   UNL     1       1.257   8.668  22.632  0.00  0.00    +0.000 F 
ATOM     21  F   UNL     1       0.825  10.618  21.793  0.00  0.00    +0.000 F 
ATOM     22  F   UNL     1      -0.656   9.031  21.687  0.00  0.00    +0.000 F 
ENDBRANCH  17  19
BRANCH  16  23
ATOM     23  C   UNL     1       0.278  10.870  19.039  0.00  0.00    +0.000 C 
ATOM     24  N   UNL     1      -0.342  11.854  19.048  0.00  0.00    +0.000 NA
ENDBRANCH  16  23
ENDBRANCH   3  13
TORSDOF 4
ENDMDL
MODEL 4
REMARK VINA RESULT:      -7.3      1.777      2.404
REMARK  Name = 
REMARK  6 active torsions:
REMARK  status: ('A' for Active; 'I' for Inactive)
REMARK    1  A    between atoms: C_1  and  C_2
REMARK    2  A    between atoms: C_5  and  C_6
REMARK    3  A    between atoms: C_5  and  C_7
REMARK    4  A    between atoms: N_9  and  C_10
REMARK    5  A    between atoms: C_13  and  C_14
REMARK    6  A    between atoms: C_16  and  C_17
REMARK                            x       y       z     vdW  Elec       q    Type
REMARK                         _______ _______ _______ _____ _____    ______ ____
ROOT
ATOM      1  C   UNL     1       2.922   4.476  18.390  0.00  0.00    +0.000 C 
ATOM      2  O   UNL     1       1.779   4.336  17.955  0.00  0.00    +0.000 OA
ATOM      3  N   UNL     1       3.370   5.555  19.141  0.00  0.00    +0.000 N 
ATOM      4  H   UNL     1       4.384   5.581  19.271  0.00  0.00    +0.000 HD
ENDROOT
BRANCH   1   9
ATOM      5  C   UNL     1       6.877   5.249  16.413  0.00  0.00    +0.000 C 
ATOM      6  C   UNL     1       5.956   4.454  17.276  0.00  0.00    +0.000 C 
ATOM      7  N   UNL     1       6.203   4.172  18.519  0.00  0.00    +0.000 NA
ATOM      8  N   UNL     1       5.122   3.503  18.998  0.00  0.00    +0.000 N 
ATOM      9  C   UNL     1       4.014   3.451  18.020  0.00  0.00    +0.000 C 
ATOM     10  C   UNL     1       3.377   2.068  17.908  0.00  0.00    +0.000 C 
ATOM     11  C   UNL     1       4.685   3.894  16.724  0.00  0.00    +0.000 C 
ATOM     12  H   UNL     1       5.383   2.574  19.340  0.00  0.00    +0.000 HD
ENDBRANCH   1   9
BRANCH   3  13
ATOM     13  C   UNL     1       2.582   6.624  19.607  0.00  0.00    +0.000 A 
ATOM     14  C   UNL     1       1.957   6.601  20.852  0.00  0.00    +0.000 A 
ATOM     15  C   UNL     1       1.113   7.636  21.249  0.00  0.00    +0.000 A 
ATOM     16  C   UNL     1       0.887   8.732  20.411  0.00  0.00    +0.000 A 
ATOM     17  C   UNL     1       1.543   8.807  19.172  0.00  0.00    +0.000 A 
ATOM     18  C   UNL     1       2.408   7.749  18.791  0.00  0.00    +0.000 A 
BRANCH  17  19
ATOM     19  C   UNL     1       1.360   9.962  18.214  0.00  0.00    +0.000 C 
ATOM     20  F   UNL     1       1.595  11.191  18.735  0.00  0.00    +0.000 F 
ATOM     21  F   UNL     1       2.177   9.858  17.130  0.00  0.00    +0.000 F 
ATOM     22  F   UNL     1       0.091  10.012  17.718  0.00  0.00    +0.000 F 
ENDBRANCH  17  19
BRANCH  16  23
ATOM     23  C   UNL     1      -0.032   9.732  20.879  0.00  0.00    +0.000 C 
ATOM     24  N   UNL     1      -0.779  10.558  21.215  0.00  0.00    +0.000 NA
ENDBRANCH  16  23
ENDBRANCH   3  13
TORSDOF 4
ENDMDL
MODEL 5
REMARK VINA RESULT:      -7.3      2.683      3.465
REMARK  Name = 
REMARK  6 active torsions:
REMARK  status: ('A' for Active; 'I' for Inactive)
REMARK    1  A    between atoms: C_1  and  C_2
REMARK    2  A    between atoms: C_5  and  C_6
REMARK    3  A    between atoms: C_5  and  C_7
REMARK    4  A    between atoms: N_9  and  C_10
REMARK    5  A    between atoms: C_13  and  C_14
REMARK    6  A    between atoms: C_16  and  C_17
REMARK                            x       y       z     vdW  Elec       q    Type
REMARK                         _______ _______ _______ _____ _____    ______ ____
ROOT
ATOM      1  C   UNL     1       5.572   5.874  15.974  0.00  0.00    +0.000 C 
ATOM      2  O   UNL     1       5.232   6.739  15.169  0.00  0.00    +0.000 OA
ATOM      3  N   UNL     1       5.062   5.725  17.257  0.00  0.00    +0.000 N 
ATOM      4  H   UNL     1       5.579   5.061  17.838  0.00  0.00    +0.000 HD
ENDROOT
BRANCH   1   9
ATOM      5  C   UNL     1       6.030   3.337  12.299  0.00  0.00    +0.000 C 
ATOM      6  C   UNL     1       6.567   4.083  13.475  0.00  0.00    +0.000 C 
ATOM      7  N   UNL     1       7.430   5.048  13.378  0.00  0.00    +0.000 NA
ATOM      8  N   UNL     1       7.631   5.529  14.633  0.00  0.00    +0.000 N 
ATOM      9  C   UNL     1       6.725   4.910  15.624  0.00  0.00    +0.000 C 
ATOM     10  C   UNL     1       7.435   4.500  16.911  0.00  0.00    +0.000 C 
ATOM     11  C   UNL     1       6.155   3.717  14.864  0.00  0.00    +0.000 C 
ATOM     12  H   UNL     1       8.615   5.455  14.905  0.00  0.00    +0.000 HD
ENDBRANCH   1   9
BRANCH   3  13
ATOM     13  C   UNL     1       4.014   6.474  17.824  0.00  0.00    +0.000 A 
ATOM     14  C   UNL     1       3.649   7.729  17.341  0.00  0.00    +0.000 A 
ATOM     15  C   UNL     1       2.666   8.484  17.978  0.00  0.00    +0.000 A 
ATOM     16  C   UNL     1       2.010   7.989  19.110  0.00  0.00    +0.000 A 
ATOM     17  C   UNL     1       2.321   6.708  19.590  0.00  0.00    +0.000 A 
ATOM     18  C   UNL     1       3.316   5.950  18.920  0.00  0.00    +0.000 A 
BRANCH  17  19
ATOM     19  C   UNL     1       1.652   6.098  20.800  0.00  0.00    +0.000 C 
ATOM     20  F   UNL     1       0.500   5.427  20.550  0.00  0.00    +0.000 F 
ATOM     21  F   UNL     1       2.464   5.211  21.438  0.00  0.00    +0.000 F 
ATOM     22  F   UNL     1       1.330   7.041  21.730  0.00  0.00    +0.000 F 
ENDBRANCH  17  19
BRANCH  16  23
ATOM     23  C   UNL     1       1.043   8.851  19.731  0.00  0.00    +0.000 C 
ATOM     24  N   UNL     1       0.274   9.582  20.207  0.00  0.00    +0.000 NA
ENDBRANCH  16  23
ENDBRANCH   3  13
TORSDOF 4
ENDMDL
MODEL 6
REMARK VINA RESULT:      -7.2      1.210      1.317
REMARK  Name = 
REMARK  6 active torsions:
REMARK  status: ('A' for Active; 'I' for Inactive)
REMARK    1  A    between atoms: C_1  and  C_2
REMARK    2  A    between atoms: C_5  and  C_6
REMARK    3  A    between atoms: C_5  and  C_7
REMARK    4  A    between atoms: N_9  and  C_10
REMARK    5  A    between atoms: C_13  and  C_14
REMARK    6  A    between atoms: C_16  and  C_17
REMARK                            x       y       z     vdW  Elec       q    Type
REMARK                         _______ _______ _______ _____ _____    ______ ____
ROOT
ATOM      1  C   UNL     1       3.528   5.661  18.912  0.00  0.00    +0.000 C 
ATOM      2  O   UNL     1       2.809   5.201  19.799  0.00  0.00    +0.000 OA
ATOM      3  N   UNL     1       3.338   6.879  18.274  0.00  0.00    +0.000 N 
ATOM      4  H   UNL     1       3.933   7.019  17.455  0.00  0.00    +0.000 HD
ENDROOT
BRANCH   1   9
ATOM      5  C   UNL     1       7.800   6.901  18.306  0.00  0.00    +0.000 C 
ATOM      6  C   UNL     1       6.730   5.885  18.529  0.00  0.00    +0.000 C 
ATOM      7  N   UNL     1       6.712   5.074  19.543  0.00  0.00    +0.000 NA
ATOM      8  N   UNL     1       5.565   4.351  19.452  0.00  0.00    +0.000 N 
ATOM      9  C   UNL     1       4.692   4.815  18.353  0.00  0.00    +0.000 C 
ATOM     10  C   UNL     1       4.117   3.673  17.520  0.00  0.00    +0.000 C 
ATOM     11  C   UNL     1       5.615   5.722  17.547  0.00  0.00    +0.000 C 
ATOM     12  H   UNL     1       5.763   3.348  19.394  0.00  0.00    +0.000 HD
ENDBRANCH   1   9
BRANCH   3  13
ATOM     13  C   UNL     1       2.352   7.834  18.588  0.00  0.00    +0.000 A 
ATOM     14  C   UNL     1       1.799   8.677  17.626  0.00  0.00    +0.000 A 
ATOM     15  C   UNL     1       0.889   9.670  17.983  0.00  0.00    +0.000 A 
ATOM     16  C   UNL     1       0.499   9.834  19.315  0.00  0.00    +0.000 A 
ATOM     17  C   UNL     1       1.001   8.967  20.298  0.00  0.00    +0.000 A 
ATOM     18  C   UNL     1       1.917   7.954  19.914  0.00  0.00    +0.000 A 
BRANCH  17  19
ATOM     19  C   UNL     1       0.621   9.071  21.758  0.00  0.00    +0.000 C 
ATOM     20  F   UNL     1       0.517  10.334  22.242  0.00  0.00    +0.000 F 
ATOM     21  F   UNL     1      -0.577   8.477  22.015  0.00  0.00    +0.000 F 
ATOM     22  F   UNL     1       1.526   8.445  22.563  0.00  0.00    +0.000 F 
ENDBRANCH  17  19
BRANCH  16  23
ATOM     23  C   UNL     1      -0.407  10.911  19.602  0.00  0.00    +0.000 C 
ATOM     24  N   UNL     1      -1.112  11.798  19.865  0.00  0.00    +0.000 NA
ENDBRANCH  16  23
ENDBRANCH   3  13
TORSDOF 4
ENDMDL
MODEL 7
REMARK VINA RESULT:      -7.2      1.351      1.729
REMARK  Name = 
REMARK  6 active torsions:
REMARK  status: ('A' for Active; 'I' for Inactive)
REMARK    1  A    between atoms: C_1  and  C_2
REMARK    2  A    between atoms: C_5  and  C_6
REMARK    3  A    between atoms: C_5  and  C_7
REMARK    4  A    between atoms: N_9  and  C_10
REMARK    5  A    between atoms: C_13  and  C_14
REMARK    6  A    between atoms: C_16  and  C_17
REMARK                            x       y       z     vdW  Elec       q    Type
REMARK                         _______ _______ _______ _____ _____    ______ ____
ROOT
ATOM      1  C   UNL     1       4.719   6.014  17.848  0.00  0.00    +0.000 C 
ATOM      2  O   UNL     1       5.404   6.983  17.521  0.00  0.00    +0.000 OA
ATOM      3  N   UNL     1       3.436   6.077  18.375  0.00  0.00    +0.000 N 
ATOM      4  H   UNL     1       3.091   5.188  18.742  0.00  0.00    +0.000 HD
ENDROOT
BRANCH   1   9
ATOM      5  C   UNL     1       6.310   3.846  14.253  0.00  0.00    +0.000 C 
ATOM      6  C   UNL     1       6.230   4.107  15.720  0.00  0.00    +0.000 C 
ATOM      7  N   UNL     1       7.255   4.439  16.445  0.00  0.00    +0.000 NA
ATOM      8  N   UNL     1       6.795   4.662  17.704  0.00  0.00    +0.000 N 
ATOM      9  C   UNL     1       5.320   4.594  17.785  0.00  0.00    +0.000 C 
ATOM     10  C   UNL     1       4.822   3.792  18.984  0.00  0.00    +0.000 C 
ATOM     11  C   UNL     1       4.937   3.957  16.454  0.00  0.00    +0.000 C 
ATOM     12  H   UNL     1       7.251   4.043  18.380  0.00  0.00    +0.000 HD
ENDBRANCH   1   9
BRANCH   3  13
ATOM     13  C   UNL     1       2.666   7.244  18.542  0.00  0.00    +0.000 A 
ATOM     14  C   UNL     1       2.475   8.163  17.513  0.00  0.00    +0.000 A 
ATOM     15  C   UNL     1       1.780   9.351  17.735  0.00  0.00    +0.000 A 
ATOM     16  C   UNL     1       1.243   9.638  18.994  0.00  0.00    +0.000 A 
ATOM     17  C   UNL     1       1.377   8.708  20.035  0.00  0.00    +0.000 A 
ATOM     18  C   UNL     1       2.077   7.499  19.787  0.00  0.00    +0.000 A 
BRANCH  17  19
ATOM     19  C   UNL     1       0.818   8.939  21.421  0.00  0.00    +0.000 C 
ATOM     20  F   UNL     1       1.322   8.136  22.391  0.00  0.00    +0.000 F 
ATOM     21  F   UNL     1       1.030  10.214  21.849  0.00  0.00    +0.000 F 
ATOM     22  F   UNL     1      -0.532   8.754  21.460  0.00  0.00    +0.000 F 
ENDBRANCH  17  19
BRANCH  16  23
ATOM     23  C   UNL     1       0.582  10.905  19.146  0.00  0.00    +0.000 C 
ATOM     24  N   UNL     1       0.056  11.938  19.226  0.00  0.00    +0.000 NA
ENDBRANCH  16  23
ENDBRANCH   3  13
TORSDOF 4
ENDMDL
MODEL 8
REMARK VINA RESULT:      -7.1      2.060      2.650
REMARK  Name = 
REMARK  6 active torsions:
REMARK  status: ('A' for Active; 'I' for Inactive)
REMARK    1  A    between atoms: C_1  and  C_2
REMARK    2  A    between atoms: C_5  and  C_6
REMARK    3  A    between atoms: C_5  and  C_7
REMARK    4  A    between atoms: N_9  and  C_10
REMARK    5  A    between atoms: C_13  and  C_14
REMARK    6  A    between atoms: C_16  and  C_17
REMARK                            x       y       z     vdW  Elec       q    Type
REMARK                         _______ _______ _______ _____ _____    ______ ____
ROOT
ATOM      1  C   UNL     1       4.346   5.203  18.968  0.00  0.00    +0.000 C 
ATOM      2  O   UNL     1       5.146   5.762  19.717  0.00  0.00    +0.000 OA
ATOM      3  N   UNL     1       3.007   5.543  18.824  0.00  0.00    +0.000 N 
ATOM      4  H   UNL     1       2.460   4.868  18.287  0.00  0.00    +0.000 HD
ENDROOT
BRANCH   1   9
ATOM      5  C   UNL     1       5.812   4.996  14.730  0.00  0.00    +0.000 C 
ATOM      6  C   UNL     1       5.707   4.482  16.126  0.00  0.00    +0.000 C 
ATOM      7  N   UNL     1       6.735   4.275  16.892  0.00  0.00    +0.000 NA
ATOM      8  N   UNL     1       6.256   3.878  18.100  0.00  0.00    +0.000 N 
ATOM      9  C   UNL     1       4.781   3.954  18.174  0.00  0.00    +0.000 C 
ATOM     10  C   UNL     1       4.149   2.719  18.810  0.00  0.00    +0.000 C 
ATOM     11  C   UNL     1       4.378   4.133  16.715  0.00  0.00    +0.000 C 
ATOM     12  H   UNL     1       6.612   2.952  18.355  0.00  0.00    +0.000 HD
ENDBRANCH   1   9
BRANCH   3  13
ATOM     13  C   UNL     1       2.359   6.633  19.436  0.00  0.00    +0.000 A 
ATOM     14  C   UNL     1       1.812   6.552  20.715  0.00  0.00    +0.000 A 
ATOM     15  C   UNL     1       1.100   7.619  21.258  0.00  0.00    +0.000 A 
ATOM     16  C   UNL     1       0.932   8.805  20.537  0.00  0.00    +0.000 A 
ATOM     17  C   UNL     1       1.515   8.934  19.266  0.00  0.00    +0.000 A 
ATOM     18  C   UNL     1       2.246   7.840  18.735  0.00  0.00    +0.000 A 
BRANCH  17  19
ATOM     19  C   UNL     1       1.388  10.185  18.427  0.00  0.00    +0.000 C 
ATOM     20  F   UNL     1       1.740  11.338  19.048  0.00  0.00    +0.000 F 
ATOM     21  F   UNL     1       2.153  10.123  17.302  0.00  0.00    +0.000 F 
ATOM     22  F   UNL     1       0.110  10.378  17.996  0.00  0.00    +0.000 F 
ENDBRANCH  17  19
BRANCH  16  23
ATOM     23  C   UNL     1       0.146   9.837  21.153  0.00  0.00    +0.000 C 
ATOM     24  N   UNL     1      -0.527  10.653  21.636  0.00  0.00    +0.000 NA
ENDBRANCH  16  23
ENDBRANCH   3  13
TORSDOF 4
ENDMDL
MODEL 9
REMARK VINA RESULT:      -7.1      1.419      1.589
REMARK  Name = 
REMARK  6 active torsions:
REMARK  status: ('A' for Active; 'I' for Inactive)
REMARK    1  A    between atoms: C_1  and  C_2
REMARK    2  A    between atoms: C_5  and  C_6
REMARK    3  A    between atoms: C_5  and  C_7
REMARK    4  A    between atoms: N_9  and  C_10
REMARK    5  A    between atoms: C_13  and  C_14
REMARK    6  A    between atoms: C_16  and  C_17
REMARK                            x       y       z     vdW  Elec       q    Type
REMARK                         _______ _______ _______ _____ _____    ______ ____
ROOT
ATOM      1  C   UNL     1       3.480   5.877  18.044  0.00  0.00    +0.000 C 
ATOM      2  O   UNL     1       2.467   5.240  17.756  0.00  0.00    +0.000 OA
ATOM      3  N   UNL     1       3.508   7.206  18.442  0.00  0.00    +0.000 N 
ATOM      4  H   UNL     1       4.445   7.612  18.478  0.00  0.00    +0.000 HD
ENDROOT
BRANCH   1   9
ATOM      5  C   UNL     1       5.389   4.409  14.255  0.00  0.00    +0.000 C 
ATOM      6  C   UNL     1       5.437   4.927  15.654  0.00  0.00    +0.000 C 
ATOM      7  N   UNL     1       6.059   6.015  15.993  0.00  0.00    +0.000 NA
ATOM      8  N   UNL     1       5.830   6.206  17.319  0.00  0.00    +0.000 N 
ATOM      9  C   UNL     1       4.869   5.227  17.870  0.00  0.00    +0.000 C 
ATOM     10  C   UNL     1       5.311   4.641  19.209  0.00  0.00    +0.000 C 
ATOM     11  C   UNL     1       4.786   4.176  16.770  0.00  0.00    +0.000 C 
ATOM     12  H   UNL     1       6.707   6.230  17.847  0.00  0.00    +0.000 HD
ENDBRANCH   1   9
BRANCH   3  13
ATOM     13  C   UNL     1       2.386   8.027  18.671  0.00  0.00    +0.000 A 
ATOM     14  C   UNL     1       1.782   8.763  17.654  0.00  0.00    +0.000 A 
ATOM     15  C   UNL     1       0.729   9.633  17.929  0.00  0.00    +0.000 A 
ATOM     16  C   UNL     1       0.243   9.774  19.233  0.00  0.00    +0.000 A 
ATOM     17  C   UNL     1       0.799   9.007  20.269  0.00  0.00    +0.000 A 
ATOM     18  C   UNL     1       1.862   8.118  19.967  0.00  0.00    +0.000 A 
BRANCH  17  19
ATOM     19  C   UNL     1       0.324   9.094  21.701  0.00  0.00    +0.000 C 
ATOM     20  F   UNL     1       0.044  10.344  22.146  0.00  0.00    +0.000 F 
ATOM     21  F   UNL     1      -0.809   8.367  21.907  0.00  0.00    +0.000 F 
ATOM     22  F   UNL     1       1.247   8.595  22.572  0.00  0.00    +0.000 F 
ENDBRANCH  17  19
BRANCH  16  23
ATOM     23  C   UNL     1      -0.814  10.726  19.435  0.00  0.00    +0.000 C 
ATOM     24  N   UNL     1      -1.638  11.528  19.605  0.00  0.00    +0.000 NA
ENDBRANCH  16  23
ENDBRANCH   3  13
TORSDOF 4
ENDMDL
