MODEL 1
REMARK VINA RESULT:      -7.1      0.000      0.000
REMARK  Name = 
REMARK  9 active torsions:
REMARK  status: ('A' for Active; 'I' for Inactive)
REMARK    1  A    between atoms: C_1  and  C_2
REMARK    2  A    between atoms: C_2  and  N_3
REMARK    3  A    between atoms: N_3  and  C_4
REMARK    4  A    between atoms: N_3  and  C_6
REMARK    5  A    between atoms: C_4  and  C_5
REMARK    6  A    between atoms: C_6  and  C_7
REMARK    7  A    between atoms: C_7  and  C_8
REMARK    8  A    between atoms: C_8  and  C_9
REMARK    9  A    between atoms: C_11  and  C_12
REMARK                            x       y       z     vdW  Elec       q    Type
REMARK                         _______ _______ _______ _____ _____    ______ ____
ROOT
ATOM      1  C   UNL     1       5.420   4.816  16.233  0.00  0.00    +0.000 C 
ATOM      2  C   UNL     1       5.414   6.204  15.576  0.00  0.00    +0.000 C 
ATOM      3  O   UNL     1       4.242   4.597  16.929  0.00  0.00    +0.000 OA
ATOM      4  C   UNL     1       4.477   4.327  18.242  0.00  0.00    +0.000 C 
ATOM      5  C   UNL     1       5.768   4.419  18.545  0.00  0.00    +0.000 C 
ATOM      6  C   UNL     1       6.441   4.751  17.319  0.00  0.00    +0.000 C 
ATOM      7  O   UNL     1       7.643   4.895  17.187  0.00  0.00    +0.000 OA
ENDROOT
BRANCH   4   8
ATOM      8  C   UNL     1       3.405   3.904  19.183  0.00  0.00    +0.000 A 
ATOM      9  C   UNL     1       3.654   2.996  20.232  0.00  0.00    +0.000 A 
ATOM     10  C   UNL     1       2.616   2.562  21.060  0.00  0.00    +0.000 A 
ATOM     11  C   UNL     1       1.317   3.026  20.858  0.00  0.00    +0.000 A 
ATOM     12  C   UNL     1       1.054   3.937  19.831  0.00  0.00    +0.000 A 
ATOM     13  C   UNL     1       2.092   4.378  19.002  0.00  0.00    +0.000 A 
ENDBRANCH   4   8
BRANCH   1  14
ATOM     14  C   UNL     1       5.645   3.709  15.172  0.00  0.00    +0.000 C 
BRANCH  14  15
ATOM     15  C   UNL     1       5.484   4.185  13.705  0.00  0.00    +0.000 C 
BRANCH  15  16
ATOM     16  N   UNL     1       6.269   3.388  12.723  0.00  0.00    +0.000 NA
BRANCH  16  18
ATOM     17  C   UNL     1       4.156   3.286  11.319  0.00  0.00    +0.000 C 
ATOM     18  C   UNL     1       5.397   2.559  11.849  0.00  0.00    +0.000 C 
ENDBRANCH  16  18
BRANCH  16  19
ATOM     19  C   UNL     1       7.256   4.232  12.003  0.00  0.00    +0.000 C 
ATOM     20  C   UNL     1       7.917   5.308  12.872  0.00  0.00    +0.000 C 
ENDBRANCH  16  19
ENDBRANCH  15  16
ENDBRANCH  14  15
ENDBRANCH   1  14
TORSDOF 6
ENDMDL
MODEL 2
REMARK VINA RESULT:      -7.0      3.205      5.220
REMARK  Name = 
REMARK  9 active torsions:
REMARK  status: ('A' for Active; 'I' for Inactive)
REMARK    1  A    between atoms: C_1  and  C_2
REMARK    2  A    between atoms: C_2  and  N_3
REMARK    3  A    between atoms: N_3  and  C_4
REMARK    4  A    between atoms: N_3  and  C_6
REMARK    5  A    between atoms: C_4  and  C_5
REMARK    6  A    between atoms: C_6  and  C_7
REMARK    7  A    between atoms: C_7  and  C_8
REMARK    8  A    between atoms: C_8  and  C_9
REMARK    9  A    between atoms: C_11  and  C_12
REMARK                            x       y       z     vdW  Elec       q    Type
REMARK                         _______ _______ _______ _____ _____    ______ ____
ROOT
ATOM      1  C   UNL     1       3.749   4.076  19.276  0.00  0.00    +0.000 C 
ATOM      2  C   UNL     1       3.431   3.018  20.343  0.00  0.00    +0.000 C 
ATOM      3  O   UNL     1       3.407   5.342  19.724  0.00  0.00    +0.000 OA
ATOM      4  C   UNL     1       2.514   5.944  18.891  0.00  0.00    +0.000 C 
ATOM      5  C   UNL     1       2.132   5.138  17.905  0.00  0.00    +0.000 C 
ATOM      6  C   UNL     1       2.859   3.912  18.090  0.00  0.00    +0.000 C 
ATOM      7  O   UNL     1       2.798   2.936  17.364  0.00  0.00    +0.000 OA
ENDROOT
BRANCH   4   8
ATOM      8  C   UNL     1       2.093   7.363  19.050  0.00  0.00    +0.000 A 
ATOM      9  C   UNL     1       1.614   7.861  20.278  0.00  0.00    +0.000 A 
ATOM     10  C   UNL     1       1.161   9.178  20.383  0.00  0.00    +0.000 A 
ATOM     11  C   UNL     1       1.180  10.018  19.270  0.00  0.00    +0.000 A 
ATOM     12  C   UNL     1       1.665   9.544  18.048  0.00  0.00    +0.000 A 
ATOM     13  C   UNL     1       2.124   8.226  17.939  0.00  0.00    +0.000 A 
ENDBRANCH   4   8
BRANCH   1  14
ATOM     14  C   UNL     1       5.246   4.020  18.879  0.00  0.00    +0.000 C 
BRANCH  14  15
ATOM     15  C   UNL     1       6.040   5.315  19.188  0.00  0.00    +0.000 C 
BRANCH  15  16
ATOM     16  N   UNL     1       6.604   5.979  17.982  0.00  0.00    +0.000 NA
BRANCH  16  18
ATOM     17  C   UNL     1       5.228   6.124  15.852  0.00  0.00    +0.000 C 
ATOM     18  C   UNL     1       5.570   6.728  17.219  0.00  0.00    +0.000 C 
ENDBRANCH  16  18
BRANCH  16  19
ATOM     19  C   UNL     1       7.825   6.758  18.311  0.00  0.00    +0.000 C 
ATOM     20  C   UNL     1       7.870   8.155  17.681  0.00  0.00    +0.000 C 
ENDBRANCH  16  19
ENDBRANCH  15  16
ENDBRANCH  14  15
ENDBRANCH   1  14
TORSDOF 6
ENDMDL
MODEL 3
REMARK VINA RESULT:      -6.9      1.989      6.746
REMARK  Name = 
REMARK  9 active torsions:
REMARK  status: ('A' for Active; 'I' for Inactive)
REMARK    1  A    between atoms: C_1  and  C_2
REMARK    2  A    between atoms: C_2  and  N_3
REMARK    3  A    between atoms: N_3  and  C_4
REMARK    4  A    between atoms: N_3  and  C_6
REMARK    5  A    between atoms: C_4  and  C_5
REMARK    6  A    between atoms: C_6  and  C_7
REMARK    7  A    between atoms: C_7  and  C_8
REMARK    8  A    between atoms: C_8  and  C_9
REMARK    9  A    between atoms: C_11  and  C_12
REMARK                            x       y       z     vdW  Elec       q    Type
REMARK                         _______ _______ _______ _____ _____    ______ ____
ROOT
ATOM      1  C   UNL     1       5.884   4.964  18.192  0.00  0.00    +0.000 C 
ATOM      2  C   UNL     1       6.871   5.653  19.146  0.00  0.00    +0.000 C 
ATOM      3  O   UNL     1       6.529   4.547  17.037  0.00  0.00    +0.000 OA
ATOM      4  C   UNL     1       5.968   5.093  15.924  0.00  0.00    +0.000 C 
ATOM      5  C   UNL     1       4.998   5.950  16.225  0.00  0.00    +0.000 C 
ATOM      6  C   UNL     1       4.894   5.945  17.659  0.00  0.00    +0.000 C 
ATOM      7  O   UNL     1       4.093   6.588  18.314  0.00  0.00    +0.000 OA
ENDROOT
BRANCH   4   8
ATOM      8  C   UNL     1       6.364   4.698  14.545  0.00  0.00    +0.000 A 
ATOM      9  C   UNL     1       7.469   5.283  13.895  0.00  0.00    +0.000 A 
ATOM     10  C   UNL     1       7.779   4.945  12.576  0.00  0.00    +0.000 A 
ATOM     11  C   UNL     1       6.997   4.019  11.886  0.00  0.00    +0.000 A 
ATOM     12  C   UNL     1       5.906   3.420  12.520  0.00  0.00    +0.000 A 
ATOM     13  C   UNL     1       5.594   3.752  13.843  0.00  0.00    +0.000 A 
ENDBRANCH   4   8
BRANCH   1  14
ATOM     14  C   UNL     1       5.186   3.772  18.892  0.00  0.00    +0.000 C 
BRANCH  14  15
ATOM     15  C   UNL     1       3.908   3.266  18.174  0.00  0.00    +0.000 C 
BRANCH  15  16
ATOM     16  N   UNL     1       2.803   2.894  19.099  0.00  0.00    +0.000 NA
BRANCH  16  18
ATOM     17  C   UNL     1       2.196   2.787  21.563  0.00  0.00    +0.000 C 
ATOM     18  C   UNL     1       3.285   2.676  20.489  0.00  0.00    +0.000 C 
ENDBRANCH  16  18
BRANCH  16  19
ATOM     19  C   UNL     1       1.653   3.826  18.975  0.00  0.00    +0.000 C 
ATOM     20  C   UNL     1       1.456   4.399  17.566  0.00  0.00    +0.000 C 
ENDBRANCH  16  19
ENDBRANCH  15  16
ENDBRANCH  14  15
ENDBRANCH   1  14
TORSDOF 6
ENDMDL
MODEL 4
REMARK VINA RESULT:      -6.9      2.462      7.064
REMARK  Name = 
REMARK  9 active torsions:
REMARK  status: ('A' for Active; 'I' for Inactive)
REMARK    1  A    between atoms: C_1  and  C_2
REMARK    2  A    between atoms: C_2  and  N_3
REMARK    3  A    between atoms: N_3  and  C_4
REMARK    4  A    between atoms: N_3  and  C_6
REMARK    5  A    between atoms: C_4  and  C_5
REMARK    6  A    between atoms: C_6  and  C_7
REMARK    7  A    between atoms: C_7  and  C_8
REMARK    8  A    between atoms: C_8  and  C_9
REMARK    9  A    between atoms: C_11  and  C_12
REMARK                            x       y       z     vdW  Elec       q    Type
REMARK                         _______ _______ _______ _____ _____    ______ ____
ROOT
ATOM      1  C   UNL     1       4.911   4.405  17.968  0.00  0.00    +0.000 C 
ATOM      2  C   UNL     1       4.446   3.146  18.715  0.00  0.00    +0.000 C 
ATOM      3  O   UNL     1       4.943   4.180  16.601  0.00  0.00    +0.000 OA
ATOM      4  C   UNL     1       6.183   4.401  16.085  0.00  0.00    +0.000 C 
ATOM      5  C   UNL     1       7.069   4.698  17.030  0.00  0.00    +0.000 C 
ATOM      6  C   UNL     1       6.342   4.699  18.271  0.00  0.00    +0.000 C 
ATOM      7  O   UNL     1       6.808   4.956  19.366  0.00  0.00    +0.000 OA
ENDROOT
BRANCH   4   8
ATOM      8  C   UNL     1       6.464   4.382  14.624  0.00  0.00    +0.000 A 
ATOM      9  C   UNL     1       5.774   3.521  13.748  0.00  0.00    +0.000 A 
ATOM     10  C   UNL     1       6.103   3.472  12.391  0.00  0.00    +0.000 A 
ATOM     11  C   UNL     1       7.121   4.281  11.887  0.00  0.00    +0.000 A 
ATOM     12  C   UNL     1       7.806   5.151  12.739  0.00  0.00    +0.000 A 
ATOM     13  C   UNL     1       7.477   5.206  14.098  0.00  0.00    +0.000 A 
ENDBRANCH   4   8
BRANCH   1  14
ATOM     14  C   UNL     1       3.997   5.610  18.305  0.00  0.00    +0.000 C 
BRANCH  14  15
ATOM     15  C   UNL     1       2.489   5.261  18.412  0.00  0.00    +0.000 C 
BRANCH  15  16
ATOM     16  N   UNL     1       1.806   5.890  19.576  0.00  0.00    +0.000 NA
BRANCH  16  18
ATOM     17  C   UNL     1       1.220   3.662  20.644  0.00  0.00    +0.000 C 
ATOM     18  C   UNL     1       1.876   5.039  20.794  0.00  0.00    +0.000 C 
ENDBRANCH  16  18
BRANCH  16  19
ATOM     19  C   UNL     1       2.244   7.296  19.768  0.00  0.00    +0.000 C 
ATOM     20  C   UNL     1       1.455   8.060  20.837  0.00  0.00    +0.000 C 
ENDBRANCH  16  19
ENDBRANCH  15  16
ENDBRANCH  14  15
ENDBRANCH   1  14
TORSDOF 6
ENDMDL
MODEL 5
REMARK VINA RESULT:      -6.9      2.187      6.982
REMARK  Name = 
REMARK  9 active torsions:
REMARK  status: ('A' for Active; 'I' for Inactive)
REMARK    1  A    between atoms: C_1  and  C_2
REMARK    2  A    between atoms: C_2  and  N_3
REMARK    3  A    between atoms: N_3  and  C_4
REMARK    4  A    between atoms: N_3  and  C_6
REMARK    5  A    between atoms: C_4  and  C_5
REMARK    6  A    between atoms: C_6  and  C_7
REMARK    7  A    between atoms: C_7  and  C_8
REMARK    8  A    between atoms: C_8  and  C_9
REMARK    9  A    between atoms: C_11  and  C_12
REMARK                            x       y       z     vdW  Elec       q    Type
REMARK                         _______ _______ _______ _____ _____    ______ ____
ROOT
ATOM      1  C   UNL     1       5.255   4.945  17.941  0.00  0.00    +0.000 C 
ATOM      2  C   UNL     1       6.204   5.287  19.099  0.00  0.00    +0.000 C 
ATOM      3  O   UNL     1       5.960   4.423  16.868  0.00  0.00    +0.000 OA
ATOM      4  C   UNL     1       5.768   5.156  15.737  0.00  0.00    +0.000 C 
ATOM      5  C   UNL     1       5.021   6.232  15.963  0.00  0.00    +0.000 C 
ATOM      6  C   UNL     1       4.669   6.186  17.356  0.00  0.00    +0.000 C 
ATOM      7  O   UNL     1       3.963   6.992  17.936  0.00  0.00    +0.000 OA
ENDROOT
BRANCH   4   8
ATOM      8  C   UNL     1       6.283   4.735  14.406  0.00  0.00    +0.000 A 
ATOM      9  C   UNL     1       7.418   5.336  13.826  0.00  0.00    +0.000 A 
ATOM     10  C   UNL     1       7.841   4.971  12.546  0.00  0.00    +0.000 A 
ATOM     11  C   UNL     1       7.142   4.003  11.826  0.00  0.00    +0.000 A 
ATOM     12  C   UNL     1       6.022   3.387  12.391  0.00  0.00    +0.000 A 
ATOM     13  C   UNL     1       5.598   3.747  13.675  0.00  0.00    +0.000 A 
ENDBRANCH   4   8
BRANCH   1  14
ATOM     14  C   UNL     1       4.155   3.959  18.408  0.00  0.00    +0.000 C 
BRANCH  14  15
ATOM     15  C   UNL     1       3.439   4.371  19.720  0.00  0.00    +0.000 C 
BRANCH  15  16
ATOM     16  N   UNL     1       1.954   4.358  19.626  0.00  0.00    +0.000 NA
BRANCH  16  18
ATOM     17  C   UNL     1       0.748   2.349  18.648  0.00  0.00    +0.000 C 
ATOM     18  C   UNL     1       1.475   3.675  18.395  0.00  0.00    +0.000 C 
ENDBRANCH  16  18
BRANCH  16  19
ATOM     19  C   UNL     1       1.334   3.881  20.889  0.00  0.00    +0.000 C 
ATOM     20  C   UNL     1       2.243   2.983  21.736  0.00  0.00    +0.000 C 
ENDBRANCH  16  19
ENDBRANCH  15  16
ENDBRANCH  14  15
ENDBRANCH   1  14
TORSDOF 6
ENDMDL
MODEL 6
REMARK VINA RESULT:      -6.9      3.252      6.935
REMARK  Name = 
REMARK  9 active torsions:
REMARK  status: ('A' for Active; 'I' for Inactive)
REMARK    1  A    between atoms: C_1  and  C_2
REMARK    2  A    between atoms: C_2  and  N_3
REMARK    3  A    between atoms: N_3  and  C_4
REMARK    4  A    between atoms: N_3  and  C_6
REMARK    5  A    between atoms: C_4  and  C_5
REMARK    6  A    between atoms: C_6  and  C_7
REMARK    7  A    between atoms: C_7  and  C_8
REMARK    8  A    between atoms: C_8  and  C_9
REMARK    9  A    between atoms: C_11  and  C_12
REMARK                            x       y       z     vdW  Elec       q    Type
REMARK                         _______ _______ _______ _____ _____    ______ ____
ROOT
ATOM      1  C   UNL     1       2.021   3.849  19.694  0.00  0.00    +0.000 C 
ATOM      2  C   UNL     1       0.796   2.981  19.371  0.00  0.00    +0.000 C 
ATOM      3  O   UNL     1       2.708   4.178  18.536  0.00  0.00    +0.000 OA
ATOM      4  C   UNL     1       4.003   3.761  18.586  0.00  0.00    +0.000 C 
ATOM      5  C   UNL     1       4.262   3.074  19.693  0.00  0.00    +0.000 C 
ATOM      6  C   UNL     1       3.039   3.063  20.450  0.00  0.00    +0.000 C 
ATOM      7  O   UNL     1       2.887   2.550  21.544  0.00  0.00    +0.000 OA
ENDROOT
BRANCH   4   8
ATOM      8  C   UNL     1       5.004   4.116  17.543  0.00  0.00    +0.000 A 
ATOM      9  C   UNL     1       4.688   4.084  16.170  0.00  0.00    +0.000 A 
ATOM     10  C   UNL     1       5.665   4.355  15.209  0.00  0.00    +0.000 A 
ATOM     11  C   UNL     1       6.967   4.662  15.599  0.00  0.00    +0.000 A 
ATOM     12  C   UNL     1       7.295   4.711  16.957  0.00  0.00    +0.000 A 
ATOM     13  C   UNL     1       6.319   4.445  17.924  0.00  0.00    +0.000 A 
ENDBRANCH   4   8
BRANCH   1  14
ATOM     14  C   UNL     1       1.599   5.127  20.464  0.00  0.00    +0.000 C 
BRANCH  14  15
ATOM     15  C   UNL     1       2.439   6.385  20.125  0.00  0.00    +0.000 C 
BRANCH  15  16
ATOM     16  N   UNL     1       1.623   7.580  19.779  0.00  0.00    +0.000 NA
BRANCH  16  18
ATOM     17  C   UNL     1       0.001   8.507  21.500  0.00  0.00    +0.000 C 
ATOM     18  C   UNL     1       1.430   8.484  20.945  0.00  0.00    +0.000 C 
ENDBRANCH  16  18
BRANCH  16  19
ATOM     19  C   UNL     1       2.124   8.244  18.549  0.00  0.00    +0.000 C 
ATOM     20  C   UNL     1       3.281   7.508  17.864  0.00  0.00    +0.000 C 
ENDBRANCH  16  19
ENDBRANCH  15  16
ENDBRANCH  14  15
ENDBRANCH   1  14
TORSDOF 6
ENDMDL
MODEL 7
REMARK VINA RESULT:      -6.8      0.978      1.083
REMARK  Name = 
REMARK  9 active torsions:
REMARK  status: ('A' for Active; 'I' for Inactive)
REMARK    1  A    between atoms: C_1  and  C_2
REMARK    2  A    between atoms: C_2  and  N_3
REMARK    3  A    between atoms: N_3  and  C_4
REMARK    4  A    between atoms: N_3  and  C_6
REMARK    5  A    between atoms: C_4  and  C_5
REMARK    6  A    between atoms: C_6  and  C_7
REMARK    7  A    between atoms: C_7  and  C_8
REMARK    8  A    between atoms: C_8  and  C_9
REMARK    9  A    between atoms: C_11  and  C_12
REMARK                            x       y       z     vdW  Elec       q    Type
REMARK                         _______ _______ _______ _____ _____    ______ ____
ROOT
ATOM      1  C   UNL     1       5.336   5.305  16.532  0.00  0.00    +0.000 C 
ATOM      2  C   UNL     1       5.162   6.537  15.633  0.00  0.00    +0.000 C 
ATOM      3  O   UNL     1       4.106   4.835  16.965  0.00  0.00    +0.000 OA
ATOM      4  C   UNL     1       4.028   4.809  18.323  0.00  0.00    +0.000 C 
ATOM      5  C   UNL     1       5.117   5.315  18.893  0.00  0.00    +0.000 C 
ATOM      6  C   UNL     1       5.997   5.678  17.816  0.00  0.00    +0.000 C 
ATOM      7  O   UNL     1       7.112   6.152  17.940  0.00  0.00    +0.000 OA
ENDROOT
BRANCH   4   8
ATOM      8  C   UNL     1       2.880   4.208  19.054  0.00  0.00    +0.000 A 
ATOM      9  C   UNL     1       2.714   4.380  20.443  0.00  0.00    +0.000 A 
ATOM     10  C   UNL     1       1.666   3.748  21.118  0.00  0.00    +0.000 A 
ATOM     11  C   UNL     1       0.768   2.941  20.421  0.00  0.00    +0.000 A 
ATOM     12  C   UNL     1       0.910   2.771  19.041  0.00  0.00    +0.000 A 
ATOM     13  C   UNL     1       1.956   3.405  18.360  0.00  0.00    +0.000 A 
ENDBRANCH   4   8
BRANCH   1  14
ATOM     14  C   UNL     1       6.118   4.191  15.790  0.00  0.00    +0.000 C 
BRANCH  14  15
ATOM     15  C   UNL     1       6.845   4.667  14.505  0.00  0.00    +0.000 C 
BRANCH  15  16
ATOM     16  N   UNL     1       6.529   3.856  13.298  0.00  0.00    +0.000 NA
BRANCH  16  18
ATOM     17  C   UNL     1       4.645   3.290  11.692  0.00  0.00    +0.000 C 
ATOM     18  C   UNL     1       5.065   3.667  13.117  0.00  0.00    +0.000 C 
ENDBRANCH  16  18
BRANCH  16  19
ATOM     19  C   UNL     1       7.247   4.361  12.100  0.00  0.00    +0.000 C 
ATOM     20  C   UNL     1       8.094   5.613  12.355  0.00  0.00    +0.000 C 
ENDBRANCH  16  19
ENDBRANCH  15  16
ENDBRANCH  14  15
ENDBRANCH   1  14
TORSDOF 6
ENDMDL
MODEL 8
REMARK VINA RESULT:      -6.8      3.046      4.761
REMARK  Name = 
REMARK  9 active torsions:
REMARK  status: ('A' for Active; 'I' for Inactive)
REMARK    1  A    between atoms: C_1  and  C_2
REMARK    2  A    between atoms: C_2  and  N_3
REMARK    3  A    between atoms: N_3  and  C_4
REMARK    4  A    between atoms: N_3  and  C_6
REMARK    5  A    between atoms: C_4  and  C_5
REMARK    6  A    between atoms: C_6  and  C_7
REMARK    7  A    between atoms: C_7  and  C_8
REMARK    8  A    between atoms: C_8  and  C_9
REMARK    9  A    between atoms: C_11  and  C_12
REMARK                            x       y       z     vdW  Elec       q    Type
REMARK                         _______ _______ _______ _____ _____    ______ ____
ROOT
ATOM      1  C   UNL     1       3.969   4.454  17.854  0.00  0.00    +0.000 C 
ATOM      2  C   UNL     1       4.738   3.563  18.840  0.00  0.00    +0.000 C 
ATOM      3  O   UNL     1       3.823   5.735  18.361  0.00  0.00    +0.000 OA
ATOM      4  C   UNL     1       2.513   6.093  18.448  0.00  0.00    +0.000 C 
ATOM      5  C   UNL     1       1.701   5.099  18.103  0.00  0.00    +0.000 C 
ATOM      6  C   UNL     1       2.553   4.003  17.729  0.00  0.00    +0.000 C 
ATOM      7  O   UNL     1       2.175   2.918  17.325  0.00  0.00    +0.000 OA
ENDROOT
BRANCH   4   8
ATOM      8  C   UNL     1       2.075   7.468  18.816  0.00  0.00    +0.000 A 
ATOM      9  C   UNL     1       1.679   7.793  20.128  0.00  0.00    +0.000 A 
ATOM     10  C   UNL     1       1.207   9.072  20.433  0.00  0.00    +0.000 A 
ATOM     11  C   UNL     1       1.125  10.045  19.437  0.00  0.00    +0.000 A 
ATOM     12  C   UNL     1       1.526   9.743  18.133  0.00  0.00    +0.000 A 
ATOM     13  C   UNL     1       2.004   8.464  17.825  0.00  0.00    +0.000 A 
ENDBRANCH   4   8
BRANCH   1  14
ATOM     14  C   UNL     1       4.681   4.487  16.477  0.00  0.00    +0.000 C 
BRANCH  14  15
ATOM     15  C   UNL     1       5.206   5.885  16.061  0.00  0.00    +0.000 C 
BRANCH  15  16
ATOM     16  N   UNL     1       6.690   5.977  15.998  0.00  0.00    +0.000 NA
BRANCH  16  18
ATOM     17  C   UNL     1       7.644   7.748  17.549  0.00  0.00    +0.000 C 
ATOM     18  C   UNL     1       7.290   6.273  17.327  0.00  0.00    +0.000 C 
ENDBRANCH  16  18
BRANCH  16  19
ATOM     19  C   UNL     1       7.278   4.810  15.292  0.00  0.00    +0.000 C 
ATOM     20  C   UNL     1       7.133   4.858  13.767  0.00  0.00    +0.000 C 
ENDBRANCH  16  19
ENDBRANCH  15  16
ENDBRANCH  14  15
ENDBRANCH   1  14
TORSDOF 6
ENDMDL
MODEL 9
REMARK VINA RESULT:      -6.8      0.959      1.208
REMARK  Name = 
REMARK  9 active torsions:
REMARK  status: ('A' for Active; 'I' for Inactive)
REMARK    1  A    between atoms: C_1  and  C_2
REMARK    2  A    between atoms: C_2  and  N_3
REMARK    3  A    between atoms: N_3  and  C_4
REMARK    4  A    between atoms: N_3  and  C_6
REMARK    5  A    between atoms: C_4  and  C_5
REMARK    6  A    between atoms: C_6  and  C_7
REMARK    7  A    between atoms: C_7  and  C_8
REMARK    8  A    between atoms: C_8  and  C_9
REMARK    9  A    between atoms: C_11  and  C_12
REMARK                            x       y       z     vdW  Elec       q    Type
REMARK                         _______ _______ _______ _____ _____    ______ ____
ROOT
ATOM      1  C   UNL     1       5.407   5.193  16.518  0.00  0.00    +0.000 C 
ATOM      2  C   UNL     1       5.293   6.477  15.683  0.00  0.00    +0.000 C 
ATOM      3  O   UNL     1       4.154   4.756  16.920  0.00  0.00    +0.000 OA
ATOM      4  C   UNL     1       4.066   4.664  18.275  0.00  0.00    +0.000 C 
ATOM      5  C   UNL     1       5.172   5.092  18.875  0.00  0.00    +0.000 C 
ATOM      6  C   UNL     1       6.075   5.471  17.823  0.00  0.00    +0.000 C 
ATOM      7  O   UNL     1       7.208   5.888  17.977  0.00  0.00    +0.000 OA
ENDROOT
BRANCH   4   8
ATOM      8  C   UNL     1       2.887   4.077  18.968  0.00  0.00    +0.000 A 
ATOM      9  C   UNL     1       2.040   3.147  18.332  0.00  0.00    +0.000 A 
ATOM     10  C   UNL     1       0.901   2.663  18.979  0.00  0.00    +0.000 A 
ATOM     11  C   UNL     1       0.590   3.094  20.268  0.00  0.00    +0.000 A 
ATOM     12  C   UNL     1       1.426   4.005  20.919  0.00  0.00    +0.000 A 
ATOM     13  C   UNL     1       2.571   4.490  20.275  0.00  0.00    +0.000 A 
ENDBRANCH   4   8
BRANCH   1  14
ATOM     14  C   UNL     1       6.145   4.086  15.723  0.00  0.00    +0.000 C 
BRANCH  14  15
ATOM     15  C   UNL     1       6.798   4.572  14.403  0.00  0.00    +0.000 C 
BRANCH  15  16
ATOM     16  N   UNL     1       6.444   3.748  13.216  0.00  0.00    +0.000 NA
BRANCH  16  18
ATOM     17  C   UNL     1       4.547   3.270  11.596  0.00  0.00    +0.000 C 
ATOM     18  C   UNL     1       4.973   3.653  13.018  0.00  0.00    +0.000 C 
ENDBRANCH  16  18
BRANCH  16  19
ATOM     19  C   UNL     1       7.211   4.167  12.015  0.00  0.00    +0.000 C 
ATOM     20  C   UNL     1       7.905   5.527  12.154  0.00  0.00    +0.000 C 
ENDBRANCH  16  19
ENDBRANCH  15  16
ENDBRANCH  14  15
ENDBRANCH   1  14
TORSDOF 6
ENDMDL
