MODEL 1
REMARK VINA RESULT:      -8.2      0.000      0.000
REMARK  Name = 
REMARK  10 active torsions:
REMARK  status: ('A' for Active; 'I' for Inactive)
REMARK    1  A    between atoms: C_1  and  O_2
REMARK    2  A    between atoms: O_2  and  C_3
REMARK    3  A    between atoms: C_6  and  C_7
REMARK    4  A    between atoms: C_8  and  C_9
REMARK    5  A    between atoms: C_14  and  O_15
REMARK    6  A    between atoms: O_15  and  C_16
REMARK    7  A    between atoms: C_19  and  C_20
REMARK    8  A    between atoms: C_19  and  C_21
REMARK    9  A    between atoms: C_24  and  O_25
REMARK   10  A    between atoms: O_25  and  C_26
REMARK                            x       y       z     vdW  Elec       q    Type
REMARK                         _______ _______ _______ _____ _____    ______ ____
ROOT
ATOM      1  C   UNL     1       7.284   6.939  17.733  0.00  0.00    +0.000 A 
ATOM      2  C   UNL     1       7.908   6.203  18.750  0.00  0.00    +0.000 A 
ATOM      3  C   UNL     1       7.297   5.057  19.228  0.00  0.00    +0.000 A 
ATOM      4  C   UNL     1       6.154   4.622  18.586  0.00  0.00    +0.000 A 
ATOM      5  C   UNL     1       5.851   5.076  17.321  0.00  0.00    +0.000 A 
ATOM      6  C   UNL     1       6.226   6.378  17.012  0.00  0.00    +0.000 A 
ATOM      7  C   UNL     1       5.023   4.222  16.502  0.00  0.00    +0.000 C 
ATOM      8  C   UNL     1       4.069   3.543  17.150  0.00  0.00    +0.000 C 
ATOM      9  C   UNL     1       4.023   3.469  18.663  0.00  0.00    +0.000 C 
ATOM     10  C   UNL     1       4.002   2.041  19.220  0.00  0.00    +0.000 C 
ATOM     11  C   UNL     1       2.727   4.166  19.103  0.00  0.00    +0.000 C 
ATOM     12  O   UNL     1       5.219   3.955  19.326  0.00  0.00    +0.000 OA
ENDROOT
BRANCH   1  14
ATOM     13  C   UNL     1       8.628   8.886  18.426  0.00  0.00    +0.000 C 
ATOM     14  C   UNL     1       7.683   8.333  17.657  0.00  0.00    +0.000 C 
BRANCH  13  18
ATOM     15  C   UNL     1       9.293  13.114  18.337  0.00  0.00    +0.000 A 
ATOM     16  C   UNL     1       8.339  12.515  17.504  0.00  0.00    +0.000 A 
ATOM     17  C   UNL     1       8.098  11.145  17.535  0.00  0.00    +0.000 A 
ATOM     18  C   UNL     1       8.843  10.330  18.392  0.00  0.00    +0.000 A 
ATOM     19  C   UNL     1       9.853  10.926  19.160  0.00  0.00    +0.000 A 
ATOM     20  C   UNL     1      10.092  12.297  19.149  0.00  0.00    +0.000 A 
BRANCH  15  22
ATOM     21  C   UNL     1      10.525  14.922  17.476  0.00  0.00    +0.000 C 
ATOM     22  O   UNL     1       9.499  14.464  18.352  0.00  0.00    +0.000 OA
ENDBRANCH  15  22
BRANCH  20  23
ATOM     23  O   UNL     1      11.081  12.656  20.017  0.00  0.00    +0.000 OA
ATOM     24  C   UNL     1      12.332  11.994  19.939  0.00  0.00    +0.000 C 
ENDBRANCH  20  23
ENDBRANCH  13  18
ENDBRANCH   1  14
BRANCH   6  25
ATOM     25  O   UNL     1       5.447   7.097  16.137  0.00  0.00    +0.000 OA
ATOM     26  C   UNL     1       4.195   7.479  16.737  0.00  0.00    +0.000 C 
ENDBRANCH   6  25
TORSDOF 5
ENDMDL
MODEL 2
REMARK VINA RESULT:      -8.1      0.870      1.887
REMARK  Name = 
REMARK  10 active torsions:
REMARK  status: ('A' for Active; 'I' for Inactive)
REMARK    1  A    between atoms: C_1  and  O_2
REMARK    2  A    between atoms: O_2  and  C_3
REMARK    3  A    between atoms: C_6  and  C_7
REMARK    4  A    between atoms: C_8  and  C_9
REMARK    5  A    between atoms: C_14  and  O_15
REMARK    6  A    between atoms: O_15  and  C_16
REMARK    7  A    between atoms: C_19  and  C_20
REMARK    8  A    between atoms: C_19  and  C_21
REMARK    9  A    between atoms: C_24  and  O_25
REMARK   10  A    between atoms: O_25  and  C_26
REMARK                            x       y       z     vdW  Elec       q    Type
REMARK                         _______ _______ _______ _____ _____    ______ ____
ROOT
ATOM      1  C   UNL     1       7.496   6.896  17.845  0.00  0.00    +0.000 A 
ATOM      2  C   UNL     1       7.874   6.285  19.049  0.00  0.00    +0.000 A 
ATOM      3  C   UNL     1       7.105   5.249  19.551  0.00  0.00    +0.000 A 
ATOM      4  C   UNL     1       6.066   4.781  18.771  0.00  0.00    +0.000 A 
ATOM      5  C   UNL     1       6.027   5.063  17.423  0.00  0.00    +0.000 A 
ATOM      6  C   UNL     1       6.545   6.287  17.020  0.00  0.00    +0.000 A 
ATOM      7  C   UNL     1       5.298   4.140  16.585  0.00  0.00    +0.000 C 
ATOM      8  C   UNL     1       4.197   3.608  17.128  0.00  0.00    +0.000 C 
ATOM      9  C   UNL     1       3.877   3.754  18.601  0.00  0.00    +0.000 C 
ATOM     10  C   UNL     1       3.652   2.425  19.329  0.00  0.00    +0.000 C 
ATOM     11  C   UNL     1       2.577   4.569  18.696  0.00  0.00    +0.000 C 
ATOM     12  O   UNL     1       4.968   4.274  19.406  0.00  0.00    +0.000 OA
ENDROOT
BRANCH   1  14
ATOM     13  C   UNL     1       8.716   8.909  18.577  0.00  0.00    +0.000 C 
ATOM     14  C   UNL     1       8.003   8.244  17.661  0.00  0.00    +0.000 C 
BRANCH  13  18
ATOM     15  C   UNL     1       9.630  13.047  17.964  0.00  0.00    +0.000 A 
ATOM     16  C   UNL     1      10.546  12.189  18.588  0.00  0.00    +0.000 A 
ATOM     17  C   UNL     1      10.271  10.838  18.778  0.00  0.00    +0.000 A 
ATOM     18  C   UNL     1       9.040  10.317  18.367  0.00  0.00    +0.000 A 
ATOM     19  C   UNL     1       8.098  11.199  17.820  0.00  0.00    +0.000 A 
ATOM     20  C   UNL     1       8.367  12.549  17.612  0.00  0.00    +0.000 A 
BRANCH  15  22
ATOM     21  C   UNL     1      11.200  14.606  17.170  0.00  0.00    +0.000 C 
ATOM     22  O   UNL     1       9.912  14.361  17.726  0.00  0.00    +0.000 OA
ENDBRANCH  15  22
BRANCH  20  23
ATOM     23  O   UNL     1       7.326  13.198  17.016  0.00  0.00    +0.000 OA
ATOM     24  C   UNL     1       6.619  14.177  17.756  0.00  0.00    +0.000 C 
ENDBRANCH  20  23
ENDBRANCH  13  18
ENDBRANCH   1  14
BRANCH   6  25
ATOM     25  O   UNL     1       5.990   6.910  15.928  0.00  0.00    +0.000 OA
ATOM     26  C   UNL     1       4.613   7.261  16.163  0.00  0.00    +0.000 C 
ENDBRANCH   6  25
TORSDOF 5
ENDMDL
MODEL 3
REMARK VINA RESULT:      -7.9      0.966      1.089
REMARK  Name = 
REMARK  10 active torsions:
REMARK  status: ('A' for Active; 'I' for Inactive)
REMARK    1  A    between atoms: C_1  and  O_2
REMARK    2  A    between atoms: O_2  and  C_3
REMARK    3  A    between atoms: C_6  and  C_7
REMARK    4  A    between atoms: C_8  and  C_9
REMARK    5  A    between atoms: C_14  and  O_15
REMARK    6  A    between atoms: O_15  and  C_16
REMARK    7  A    between atoms: C_19  and  C_20
REMARK    8  A    between atoms: C_19  and  C_21
REMARK    9  A    between atoms: C_24  and  O_25
REMARK   10  A    between atoms: O_25  and  C_26
REMARK                            x       y       z     vdW  Elec       q    Type
REMARK                         _______ _______ _______ _____ _____    ______ ____
ROOT
ATOM      1  C   UNL     1       7.414   6.856  17.836  0.00  0.00    +0.000 A 
ATOM      2  C   UNL     1       7.849   6.081  18.921  0.00  0.00    +0.000 A 
ATOM      3  C   UNL     1       7.130   4.953  19.276  0.00  0.00    +0.000 A 
ATOM      4  C   UNL     1       6.083   4.573  18.459  0.00  0.00    +0.000 A 
ATOM      5  C   UNL     1       5.993   5.057  17.173  0.00  0.00    +0.000 A 
ATOM      6  C   UNL     1       6.458   6.347  16.951  0.00  0.00    +0.000 A 
ATOM      7  C   UNL     1       5.269   4.248  16.220  0.00  0.00    +0.000 C 
ATOM      8  C   UNL     1       4.204   3.597  16.702  0.00  0.00    +0.000 C 
ATOM      9  C   UNL     1       3.925   3.503  18.188  0.00  0.00    +0.000 C 
ATOM     10  C   UNL     1       3.767   2.070  18.707  0.00  0.00    +0.000 C 
ATOM     11  C   UNL     1       2.603   4.245  18.441  0.00  0.00    +0.000 C 
ATOM     12  O   UNL     1       5.023   3.933  19.035  0.00  0.00    +0.000 OA
ENDROOT
BRANCH   1  14
ATOM     13  C   UNL     1       8.684   8.746  18.781  0.00  0.00    +0.000 C 
ATOM     14  C   UNL     1       7.871   8.234  17.850  0.00  0.00    +0.000 C 
BRANCH  13  18
ATOM     15  C   UNL     1       9.500  12.948  18.875  0.00  0.00    +0.000 A 
ATOM     16  C   UNL     1       9.059  12.323  17.701  0.00  0.00    +0.000 A 
ATOM     17  C   UNL     1       8.771  10.962  17.660  0.00  0.00    +0.000 A 
ATOM     18  C   UNL     1       8.954  10.181  18.804  0.00  0.00    +0.000 A 
ATOM     19  C   UNL     1       9.476  10.797  19.950  0.00  0.00    +0.000 A 
ATOM     20  C   UNL     1       9.752  12.160  20.008  0.00  0.00    +0.000 A 
BRANCH  15  22
ATOM     21  C   UNL     1       8.585  15.086  19.215  0.00  0.00    +0.000 C 
ATOM     22  O   UNL     1       9.734  14.291  18.940  0.00  0.00    +0.000 OA
ENDBRANCH  15  22
BRANCH  20  23
ATOM     23  O   UNL     1      10.196  12.546  21.239  0.00  0.00    +0.000 OA
ATOM     24  C   UNL     1       9.245  12.795  22.260  0.00  0.00    +0.000 C 
ENDBRANCH  20  23
ENDBRANCH  13  18
ENDBRANCH   1  14
BRANCH   6  25
ATOM     25  O   UNL     1       5.849   7.109  15.983  0.00  0.00    +0.000 OA
ATOM     26  C   UNL     1       4.493   7.435  16.343  0.00  0.00    +0.000 C 
ENDBRANCH   6  25
TORSDOF 5
ENDMDL
MODEL 4
REMARK VINA RESULT:      -7.7      5.126      8.268
REMARK  Name = 
REMARK  10 active torsions:
REMARK  status: ('A' for Active; 'I' for Inactive)
REMARK    1  A    between atoms: C_1  and  O_2
REMARK    2  A    between atoms: O_2  and  C_3
REMARK    3  A    between atoms: C_6  and  C_7
REMARK    4  A    between atoms: C_8  and  C_9
REMARK    5  A    between atoms: C_14  and  O_15
REMARK    6  A    between atoms: O_15  and  C_16
REMARK    7  A    between atoms: C_19  and  C_20
REMARK    8  A    between atoms: C_19  and  C_21
REMARK    9  A    between atoms: C_24  and  O_25
REMARK   10  A    between atoms: O_25  and  C_26
REMARK                            x       y       z     vdW  Elec       q    Type
REMARK                         _______ _______ _______ _____ _____    ______ ____
ROOT
ATOM      1  C   UNL     1       1.562   8.505  19.331  0.00  0.00    +0.000 A 
ATOM      2  C   UNL     1       1.469   8.005  20.638  0.00  0.00    +0.000 A 
ATOM      3  C   UNL     1       0.882   8.785  21.620  0.00  0.00    +0.000 A 
ATOM      4  C   UNL     1       0.299   9.976  21.233  0.00  0.00    +0.000 A 
ATOM      5  C   UNL     1      -0.016  10.198  19.911  0.00  0.00    +0.000 A 
ATOM      6  C   UNL     1       0.821   9.630  18.959  0.00  0.00    +0.000 A 
ATOM      7  C   UNL     1      -1.079  11.139  19.643  0.00  0.00    +0.000 C 
ATOM      8  C   UNL     1      -1.148  12.188  20.470  0.00  0.00    +0.000 C 
ATOM      9  C   UNL     1      -0.341  12.256  21.751  0.00  0.00    +0.000 C 
ATOM     10  C   UNL     1      -1.181  12.494  23.009  0.00  0.00    +0.000 C 
ATOM     11  C   UNL     1       0.633  13.436  21.603  0.00  0.00    +0.000 C 
ATOM     12  O   UNL     1       0.290  11.004  22.131  0.00  0.00    +0.000 OA
ENDROOT
BRANCH   1  14
ATOM     13  C   UNL     1       2.744   6.583  18.339  0.00  0.00    +0.000 C 
ATOM     14  C   UNL     1       2.605   7.901  18.521  0.00  0.00    +0.000 C 
BRANCH  13  18
ATOM     15  C   UNL     1       6.209   5.083  16.320  0.00  0.00    +0.000 A 
ATOM     16  C   UNL     1       5.113   4.253  16.588  0.00  0.00    +0.000 A 
ATOM     17  C   UNL     1       3.972   4.730  17.226  0.00  0.00    +0.000 A 
ATOM     18  C   UNL     1       3.919   6.063  17.644  0.00  0.00    +0.000 A 
ATOM     19  C   UNL     1       5.053   6.863  17.448  0.00  0.00    +0.000 A 
ATOM     20  C   UNL     1       6.193   6.402  16.797  0.00  0.00    +0.000 A 
BRANCH  15  22
ATOM     21  C   UNL     1       7.230   4.745  14.230  0.00  0.00    +0.000 C 
ATOM     22  O   UNL     1       7.310   4.638  15.648  0.00  0.00    +0.000 OA
ENDBRANCH  15  22
BRANCH  20  23
ATOM     23  O   UNL     1       7.144   7.371  16.669  0.00  0.00    +0.000 OA
ATOM     24  C   UNL     1       7.808   7.833  17.832  0.00  0.00    +0.000 C 
ENDBRANCH  20  23
ENDBRANCH  13  18
ENDBRANCH   1  14
BRANCH   6  25
ATOM     25  O   UNL     1       1.001  10.286  17.764  0.00  0.00    +0.000 OA
ATOM     26  C   UNL     1       2.034  11.284  17.860  0.00  0.00    +0.000 C 
ENDBRANCH   6  25
TORSDOF 5
ENDMDL
MODEL 5
REMARK VINA RESULT:      -7.6      5.915      9.394
REMARK  Name = 
REMARK  10 active torsions:
REMARK  status: ('A' for Active; 'I' for Inactive)
REMARK    1  A    between atoms: C_1  and  O_2
REMARK    2  A    between atoms: O_2  and  C_3
REMARK    3  A    between atoms: C_6  and  C_7
REMARK    4  A    between atoms: C_8  and  C_9
REMARK    5  A    between atoms: C_14  and  O_15
REMARK    6  A    between atoms: O_15  and  C_16
REMARK    7  A    between atoms: C_19  and  C_20
REMARK    8  A    between atoms: C_19  and  C_21
REMARK    9  A    between atoms: C_24  and  O_25
REMARK   10  A    between atoms: O_25  and  C_26
REMARK                            x       y       z     vdW  Elec       q    Type
REMARK                         _______ _______ _______ _____ _____    ______ ____
ROOT
ATOM      1  C   UNL     1       0.824   9.004  20.379  0.00  0.00    +0.000 A 
ATOM      2  C   UNL     1       0.697   8.668  21.735  0.00  0.00    +0.000 A 
ATOM      3  C   UNL     1       0.183   9.603  22.617  0.00  0.00    +0.000 A 
ATOM      4  C   UNL     1      -0.301  10.785  22.093  0.00  0.00    +0.000 A 
ATOM      5  C   UNL     1      -0.604  10.879  20.753  0.00  0.00    +0.000 A 
ATOM      6  C   UNL     1       0.177  10.137  19.876  0.00  0.00    +0.000 A 
ATOM      7  C   UNL     1      -1.586  11.869  20.374  0.00  0.00    +0.000 C 
ATOM      8  C   UNL     1      -1.562  13.009  21.075  0.00  0.00    +0.000 C 
ATOM      9  C   UNL     1      -0.744  13.155  22.341  0.00  0.00    +0.000 C 
ATOM     10  C   UNL     1      -1.554  13.607  23.561  0.00  0.00    +0.000 C 
ATOM     11  C   UNL     1       0.323  14.225  22.061  0.00  0.00    +0.000 C 
ATOM     12  O   UNL     1      -0.218  11.908  22.866  0.00  0.00    +0.000 OA
ENDROOT
BRANCH   1  14
ATOM     13  C   UNL     1       2.002   6.913  19.818  0.00  0.00    +0.000 C 
ATOM     14  C   UNL     1       1.807   8.225  19.648  0.00  0.00    +0.000 C 
BRANCH  13  18
ATOM     15  C   UNL     1       5.281   4.940  17.899  0.00  0.00    +0.000 A 
ATOM     16  C   UNL     1       4.716   6.100  17.353  0.00  0.00    +0.000 A 
ATOM     17  C   UNL     1       3.662   6.763  17.975  0.00  0.00    +0.000 A 
ATOM     18  C   UNL     1       3.124   6.250  19.159  0.00  0.00    +0.000 A 
ATOM     19  C   UNL     1       3.640   5.044  19.652  0.00  0.00    +0.000 A 
ATOM     20  C   UNL     1       4.704   4.381  19.048  0.00  0.00    +0.000 A 
BRANCH  15  22
ATOM     21  C   UNL     1       7.622   4.757  17.783  0.00  0.00    +0.000 C 
ATOM     22  O   UNL     1       6.349   4.312  17.325  0.00  0.00    +0.000 OA
ENDBRANCH  15  22
BRANCH  20  23
ATOM     23  O   UNL     1       5.072   3.262  19.735  0.00  0.00    +0.000 OA
ATOM     24  C   UNL     1       4.261   2.104  19.641  0.00  0.00    +0.000 C 
ENDBRANCH  20  23
ENDBRANCH  13  18
ENDBRANCH   1  14
BRANCH   6  25
ATOM     25  O   UNL     1       0.403  10.633  18.614  0.00  0.00    +0.000 OA
ATOM     26  C   UNL     1       1.457  11.614  18.614  0.00  0.00    +0.000 C 
ENDBRANCH   6  25
TORSDOF 5
ENDMDL
MODEL 6
REMARK VINA RESULT:      -7.6      0.944      1.943
REMARK  Name = 
REMARK  10 active torsions:
REMARK  status: ('A' for Active; 'I' for Inactive)
REMARK    1  A    between atoms: C_1  and  O_2
REMARK    2  A    between atoms: O_2  and  C_3
REMARK    3  A    between atoms: C_6  and  C_7
REMARK    4  A    between atoms: C_8  and  C_9
REMARK    5  A    between atoms: C_14  and  O_15
REMARK    6  A    between atoms: O_15  and  C_16
REMARK    7  A    between atoms: C_19  and  C_20
REMARK    8  A    between atoms: C_19  and  C_21
REMARK    9  A    between atoms: C_24  and  O_25
REMARK   10  A    between atoms: O_25  and  C_26
REMARK                            x       y       z     vdW  Elec       q    Type
REMARK                         _______ _______ _______ _____ _____    ______ ____
ROOT
ATOM      1  C   UNL     1       7.047   6.870  17.665  0.00  0.00    +0.000 A 
ATOM      2  C   UNL     1       7.825   5.962  18.398  0.00  0.00    +0.000 A 
ATOM      3  C   UNL     1       7.263   4.765  18.804  0.00  0.00    +0.000 A 
ATOM      4  C   UNL     1       5.991   4.465  18.355  0.00  0.00    +0.000 A 
ATOM      5  C   UNL     1       5.462   5.131  17.271  0.00  0.00    +0.000 A 
ATOM      6  C   UNL     1       5.835   6.458  17.102  0.00  0.00    +0.000 A 
ATOM      7  C   UNL     1       4.439   4.442  16.519  0.00  0.00    +0.000 C 
ATOM      8  C   UNL     1       3.603   3.683  17.236  0.00  0.00    +0.000 C 
ATOM      9  C   UNL     1       3.862   3.358  18.693  0.00  0.00    +0.000 C 
ATOM     10  C   UNL     1       3.878   1.858  19.008  0.00  0.00    +0.000 C 
ATOM     11  C   UNL     1       2.723   3.997  19.502  0.00  0.00    +0.000 C 
ATOM     12  O   UNL     1       5.193   3.703  19.159  0.00  0.00    +0.000 OA
ENDROOT
BRANCH   1  14
ATOM     13  C   UNL     1       8.606   8.647  18.363  0.00  0.00    +0.000 C 
ATOM     14  C   UNL     1       7.497   8.249  17.730  0.00  0.00    +0.000 C 
BRANCH  13  18
ATOM     15  C   UNL     1       9.398  12.832  18.796  0.00  0.00    +0.000 A 
ATOM     16  C   UNL     1      10.040  11.888  19.608  0.00  0.00    +0.000 A 
ATOM     17  C   UNL     1       9.807  10.523  19.466  0.00  0.00    +0.000 A 
ATOM     18  C   UNL     1       8.888  10.072  18.515  0.00  0.00    +0.000 A 
ATOM     19  C   UNL     1       8.189  11.028  17.766  0.00  0.00    +0.000 A 
ATOM     20  C   UNL     1       8.424  12.395  17.887  0.00  0.00    +0.000 A 
BRANCH  15  22
ATOM     21  C   UNL     1       9.658  14.686  20.219  0.00  0.00    +0.000 C 
ATOM     22  O   UNL     1       9.660  14.169  18.892  0.00  0.00    +0.000 OA
ENDBRANCH  15  22
BRANCH  20  23
ATOM     23  O   UNL     1       7.671  13.129  17.019  0.00  0.00    +0.000 OA
ATOM     24  C   UNL     1       6.758  14.078  17.541  0.00  0.00    +0.000 C 
ENDBRANCH  20  23
ENDBRANCH  13  18
ENDBRANCH   1  14
BRANCH   6  25
ATOM     25  O   UNL     1       4.935   7.328  16.537  0.00  0.00    +0.000 OA
ATOM     26  C   UNL     1       3.834   7.600  17.424  0.00  0.00    +0.000 C 
ENDBRANCH   6  25
TORSDOF 5
ENDMDL
MODEL 7
REMARK VINA RESULT:      -7.5      5.657      8.921
REMARK  Name = 
REMARK  10 active torsions:
REMARK  status: ('A' for Active; 'I' for Inactive)
REMARK    1  A    between atoms: C_1  and  O_2
REMARK    2  A    between atoms: O_2  and  C_3
REMARK    3  A    between atoms: C_6  and  C_7
REMARK    4  A    between atoms: C_8  and  C_9
REMARK    5  A    between atoms: C_14  and  O_15
REMARK    6  A    between atoms: O_15  and  C_16
REMARK    7  A    between atoms: C_19  and  C_20
REMARK    8  A    between atoms: C_19  and  C_21
REMARK    9  A    between atoms: C_24  and  O_25
REMARK   10  A    between atoms: O_25  and  C_26
REMARK                            x       y       z     vdW  Elec       q    Type
REMARK                         _______ _______ _______ _____ _____    ______ ____
ROOT
ATOM      1  C   UNL     1       1.095   8.732  20.288  0.00  0.00    +0.000 A 
ATOM      2  C   UNL     1       0.872   8.403  21.633  0.00  0.00    +0.000 A 
ATOM      3  C   UNL     1       0.279   9.335  22.466  0.00  0.00    +0.000 A 
ATOM      4  C   UNL     1      -0.182  10.506  21.898  0.00  0.00    +0.000 A 
ATOM      5  C   UNL     1      -0.385  10.587  20.538  0.00  0.00    +0.000 A 
ATOM      6  C   UNL     1       0.472   9.851  19.729  0.00  0.00    +0.000 A 
ATOM      7  C   UNL     1      -1.350  11.558  20.079  0.00  0.00    +0.000 C 
ATOM      8  C   UNL     1      -1.396  12.703  20.770  0.00  0.00    +0.000 C 
ATOM      9  C   UNL     1      -0.678  12.871  22.094  0.00  0.00    +0.000 C 
ATOM     10  C   UNL     1      -1.585  13.318  23.246  0.00  0.00    +0.000 C 
ATOM     11  C   UNL     1       0.391  13.955  21.887  0.00  0.00    +0.000 C 
ATOM     12  O   UNL     1      -0.174  11.635  22.667  0.00  0.00    +0.000 OA
ENDROOT
BRANCH   1  14
ATOM     13  C   UNL     1       2.080   7.527  18.376  0.00  0.00    +0.000 C 
ATOM     14  C   UNL     1       2.143   7.963  19.639  0.00  0.00    +0.000 C 
BRANCH  13  18
ATOM     15  C   UNL     1       5.115   4.899  16.887  0.00  0.00    +0.000 A 
ATOM     16  C   UNL     1       3.910   4.397  17.396  0.00  0.00    +0.000 A 
ATOM     17  C   UNL     1       2.907   5.239  17.866  0.00  0.00    +0.000 A 
ATOM     18  C   UNL     1       3.107   6.622  17.865  0.00  0.00    +0.000 A 
ATOM     19  C   UNL     1       4.347   7.111  17.433  0.00  0.00    +0.000 A 
ATOM     20  C   UNL     1       5.353   6.280  16.947  0.00  0.00    +0.000 A 
BRANCH  15  22
ATOM     21  C   UNL     1       6.044   3.923  14.961  0.00  0.00    +0.000 C 
ATOM     22  O   UNL     1       6.084   4.085  16.376  0.00  0.00    +0.000 OA
ENDBRANCH  15  22
BRANCH  20  23
ATOM     23  O   UNL     1       6.446   6.980  16.531  0.00  0.00    +0.000 OA
ATOM     24  C   UNL     1       7.445   7.314  17.479  0.00  0.00    +0.000 C 
ENDBRANCH  20  23
ENDBRANCH  13  18
ENDBRANCH   1  14
BRANCH   6  25
ATOM     25  O   UNL     1       0.785  10.342  18.484  0.00  0.00    +0.000 OA
ATOM     26  C   UNL     1       1.753  11.406  18.564  0.00  0.00    +0.000 C 
ENDBRANCH   6  25
TORSDOF 5
ENDMDL
MODEL 8
REMARK VINA RESULT:      -7.4      1.726      9.364
REMARK  Name = 
REMARK  10 active torsions:
REMARK  status: ('A' for Active; 'I' for Inactive)
REMARK    1  A    between atoms: C_1  and  O_2
REMARK    2  A    between atoms: O_2  and  C_3
REMARK    3  A    between atoms: C_6  and  C_7
REMARK    4  A    between atoms: C_8  and  C_9
REMARK    5  A    between atoms: C_14  and  O_15
REMARK    6  A    between atoms: O_15  and  C_16
REMARK    7  A    between atoms: C_19  and  C_20
REMARK    8  A    between atoms: C_19  and  C_21
REMARK    9  A    between atoms: C_24  and  O_25
REMARK   10  A    between atoms: O_25  and  C_26
REMARK                            x       y       z     vdW  Elec       q    Type
REMARK                         _______ _______ _______ _____ _____    ______ ____
ROOT
ATOM      1  C   UNL     1       9.713  11.183  18.885  0.00  0.00    +0.000 A 
ATOM      2  C   UNL     1      10.500  11.525  17.775  0.00  0.00    +0.000 A 
ATOM      3  C   UNL     1      10.632  12.858  17.425  0.00  0.00    +0.000 A 
ATOM      4  C   UNL     1      10.081  13.803  18.269  0.00  0.00    +0.000 A 
ATOM      5  C   UNL     1       9.751  13.471  19.564  0.00  0.00    +0.000 A 
ATOM      6  C   UNL     1       9.316  12.171  19.791  0.00  0.00    +0.000 A 
ATOM      7  C   UNL     1       9.724  14.548  20.527  0.00  0.00    +0.000 C 
ATOM      8  C   UNL     1       9.283  15.725  20.068  0.00  0.00    +0.000 C 
ATOM      9  C   UNL     1       9.074  15.984  18.590  0.00  0.00    +0.000 C 
ATOM     10  C   UNL     1       9.829  17.206  18.056  0.00  0.00    +0.000 C 
ATOM     11  C   UNL     1       7.571  16.233  18.390  0.00  0.00    +0.000 C 
ATOM     12  O   UNL     1       9.634  14.969  17.716  0.00  0.00    +0.000 OA
ENDROOT
BRANCH   1  14
ATOM     13  C   UNL     1       8.483   9.296  17.884  0.00  0.00    +0.000 C 
ATOM     14  C   UNL     1       9.208   9.822  18.877  0.00  0.00    +0.000 C 
BRANCH  13  18
ATOM     15  C   UNL     1       6.707   5.424  18.309  0.00  0.00    +0.000 A 
ATOM     16  C   UNL     1       7.776   5.822  19.123  0.00  0.00    +0.000 A 
ATOM     17  C   UNL     1       8.350   7.085  19.010  0.00  0.00    +0.000 A 
ATOM     18  C   UNL     1       7.880   7.975  18.040  0.00  0.00    +0.000 A 
ATOM     19  C   UNL     1       6.869   7.538  17.175  0.00  0.00    +0.000 A 
ATOM     20  C   UNL     1       6.275   6.284  17.289  0.00  0.00    +0.000 A 
BRANCH  15  22
ATOM     21  C   UNL     1       4.898   4.223  19.208  0.00  0.00    +0.000 C 
ATOM     22  O   UNL     1       6.102   4.208  18.448  0.00  0.00    +0.000 OA
ENDBRANCH  15  22
BRANCH  20  23
ATOM     23  O   UNL     1       5.277   6.100  16.378  0.00  0.00    +0.000 OA
ATOM     24  C   UNL     1       5.562   5.389  15.186  0.00  0.00    +0.000 C 
ENDBRANCH  20  23
ENDBRANCH  13  18
ENDBRANCH   1  14
BRANCH   6  25
ATOM     25  O   UNL     1       8.397  11.950  20.789  0.00  0.00    +0.000 OA
ATOM     26  C   UNL     1       9.028  11.472  21.992  0.00  0.00    +0.000 C 
ENDBRANCH   6  25
TORSDOF 5
ENDMDL
MODEL 9
REMARK VINA RESULT:      -7.4      1.984      9.373
REMARK  Name = 
REMARK  10 active torsions:
REMARK  status: ('A' for Active; 'I' for Inactive)
REMARK    1  A    between atoms: C_1  and  O_2
REMARK    2  A    between atoms: O_2  and  C_3
REMARK    3  A    between atoms: C_6  and  C_7
REMARK    4  A    between atoms: C_8  and  C_9
REMARK    5  A    between atoms: C_14  and  O_15
REMARK    6  A    between atoms: O_15  and  C_16
REMARK    7  A    between atoms: C_19  and  C_20
REMARK    8  A    between atoms: C_19  and  C_21
REMARK    9  A    between atoms: C_24  and  O_25
REMARK   10  A    between atoms: O_25  and  C_26
REMARK                            x       y       z     vdW  Elec       q    Type
REMARK                         _______ _______ _______ _____ _____    ______ ____
ROOT
ATOM      1  C   UNL     1       9.228  11.204  18.971  0.00  0.00    +0.000 A 
ATOM      2  C   UNL     1       9.039  11.892  17.763  0.00  0.00    +0.000 A 
ATOM      3  C   UNL     1       8.949  13.273  17.780  0.00  0.00    +0.000 A 
ATOM      4  C   UNL     1       9.178  13.919  18.978  0.00  0.00    +0.000 A 
ATOM      5  C   UNL     1       9.826  13.269  20.006  0.00  0.00    +0.000 A 
ATOM      6  C   UNL     1       9.613  11.901  20.120  0.00  0.00    +0.000 A 
ATOM      7  C   UNL     1      10.520  14.096  20.966  0.00  0.00    +0.000 C 
ATOM      8  C   UNL     1       9.936  15.265  21.255  0.00  0.00    +0.000 C 
ATOM      9  C   UNL     1       8.773  15.803  20.449  0.00  0.00    +0.000 C 
ATOM     10  C   UNL     1       8.998  17.210  19.886  0.00  0.00    +0.000 C 
ATOM     11  C   UNL     1       7.563  15.861  21.395  0.00  0.00    +0.000 C 
ATOM     12  O   UNL     1       8.525  15.097  19.204  0.00  0.00    +0.000 OA
ENDROOT
BRANCH   1  14
ATOM     13  C   UNL     1       8.337   9.186  17.870  0.00  0.00    +0.000 C 
ATOM     14  C   UNL     1       8.800   9.817  18.955  0.00  0.00    +0.000 C 
BRANCH  13  18
ATOM     15  C   UNL     1       6.684   5.249  18.187  0.00  0.00    +0.000 A 
ATOM     16  C   UNL     1       7.736   5.661  19.016  0.00  0.00    +0.000 A 
ATOM     17  C   UNL     1       8.270   6.943  18.938  0.00  0.00    +0.000 A 
ATOM     18  C   UNL     1       7.776   7.843  17.989  0.00  0.00    +0.000 A 
ATOM     19  C   UNL     1       6.783   7.396  17.108  0.00  0.00    +0.000 A 
ATOM     20  C   UNL     1       6.229   6.121  17.187  0.00  0.00    +0.000 A 
BRANCH  15  22
ATOM     21  C   UNL     1       4.970   3.949  19.133  0.00  0.00    +0.000 C 
ATOM     22  O   UNL     1       6.118   4.012  18.291  0.00  0.00    +0.000 OA
ENDBRANCH  15  22
BRANCH  20  23
ATOM     23  O   UNL     1       5.241   5.929  16.267  0.00  0.00    +0.000 OA
ATOM     24  C   UNL     1       5.523   5.159  15.112  0.00  0.00    +0.000 C 
ENDBRANCH  20  23
ENDBRANCH  13  18
ENDBRANCH   1  14
BRANCH   6  25
ATOM     25  O   UNL     1       9.634  11.334  21.372  0.00  0.00    +0.000 OA
ATOM     26  C   UNL     1       8.447  11.659  22.119  0.00  0.00    +0.000 C 
ENDBRANCH   6  25
TORSDOF 5
ENDMDL
