MODEL 1
REMARK VINA RESULT:      -8.9      0.000      0.000
REMARK  Name = 
REMARK  7 active torsions:
REMARK  status: ('A' for Active; 'I' for Inactive)
REMARK    1  A    between atoms: C_1  and  C_2
REMARK    2  A    between atoms: C_2  and  N_3
REMARK    3  A    between atoms: N_3  and  C_4
REMARK    4  A    between atoms: C_4  and  C_5
REMARK    5  A    between atoms: C_11  and  C_13
REMARK    6  A    between atoms: C_13  and  C_15
REMARK    7  A    between atoms: C_16  and  C_17
REMARK                            x       y       z     vdW  Elec       q    Type
REMARK                         _______ _______ _______ _____ _____    ______ ____
ROOT
ATOM      1  C   UNL     1       3.883   6.543  18.170  0.00  0.00    +0.000 A 
ATOM      2  C   UNL     1       3.946   5.457  19.080  0.00  0.00    +0.000 A 
ATOM      3  N   UNL     1       5.297   5.628  19.398  0.00  0.00    +0.000 N 
ATOM      4  C   UNL     1       5.917   5.639  18.155  0.00  0.00    +0.000 A 
ATOM      5  C   UNL     1       7.183   5.166  17.814  0.00  0.00    +0.000 A 
ATOM      6  C   UNL     1       7.246   4.592  16.553  0.00  0.00    +0.000 A 
ATOM      7  C   UNL     1       6.150   4.666  15.690  0.00  0.00    +0.000 A 
ATOM      8  F   UNL     1       6.166   3.876  14.604  0.00  0.00    +0.000 F 
ATOM      9  C   UNL     1       4.993   5.439  15.967  0.00  0.00    +0.000 A 
ATOM     10  C   UNL     1       4.864   5.970  17.270  0.00  0.00    +0.000 A 
ATOM     11  H   UNL     1       5.614   6.247  20.130  0.00  0.00    +0.000 HD
ENDROOT
BRANCH   2  12
ATOM     12  C   UNL     1       3.275   4.154  18.717  0.00  0.00    +0.000 A 
ATOM     13  C   UNL     1       1.908   4.043  18.455  0.00  0.00    +0.000 A 
ATOM     14  C   UNL     1       1.322   2.781  18.282  0.00  0.00    +0.000 A 
ATOM     15  C   UNL     1       2.093   1.616  18.383  0.00  0.00    +0.000 A 
ATOM     16  C   UNL     1       3.441   1.701  18.683  0.00  0.00    +0.000 A 
ATOM     17  C   UNL     1       4.022   2.957  18.843  0.00  0.00    +0.000 A 
ENDBRANCH   2  12
BRANCH   1  18
ATOM     18  C   UNL     1       2.714   7.401  18.422  0.00  0.00    +0.000 C 
ATOM     19  O   UNL     1       2.321   8.024  17.426  0.00  0.00    +0.000 OA
BRANCH  18  21
ATOM     20  N   UNL     1       1.496   9.053  19.999  0.00  0.00    +0.000 N 
ATOM     21  C   UNL     1       1.968   7.718  19.742  0.00  0.00    +0.000 C 
ATOM     22  O   UNL     1       1.860   6.797  20.546  0.00  0.00    +0.000 OA
BRANCH  20  24
ATOM     23  C   UNL     1      -0.476   8.705  21.638  0.00  0.00    +0.000 C 
ATOM     24  C   UNL     1       0.792   9.431  21.234  0.00  0.00    +0.000 C 
ENDBRANCH  20  24
BRANCH  20  25
ATOM     25  C   UNL     1       1.456  10.121  18.968  0.00  0.00    +0.000 C 
BRANCH  25  26
ATOM     26  C   UNL     1       0.062  10.529  18.536  0.00  0.00    +0.000 A 
ATOM     27  C   UNL     1      -0.773   9.679  17.799  0.00  0.00    +0.000 A 
ATOM     28  C   UNL     1      -2.013  10.121  17.339  0.00  0.00    +0.000 A 
ATOM     29  C   UNL     1      -2.450  11.409  17.640  0.00  0.00    +0.000 A 
ATOM     30  C   UNL     1      -1.657  12.241  18.428  0.00  0.00    +0.000 A 
ATOM     31  C   UNL     1      -0.416  11.804  18.881  0.00  0.00    +0.000 A 
ENDBRANCH  25  26
ENDBRANCH  20  25
ENDBRANCH  18  21
ENDBRANCH   1  18
TORSDOF 6
ENDMDL
MODEL 2
REMARK VINA RESULT:      -8.8      2.599      4.586
REMARK  Name = 
REMARK  7 active torsions:
REMARK  status: ('A' for Active; 'I' for Inactive)
REMARK    1  A    between atoms: C_1  and  C_2
REMARK    2  A    between atoms: C_2  and  N_3
REMARK    3  A    between atoms: N_3  and  C_4
REMARK    4  A    between atoms: C_4  and  C_5
REMARK    5  A    between atoms: C_11  and  C_13
REMARK    6  A    between atoms: C_13  and  C_15
REMARK    7  A    between atoms: C_16  and  C_17
REMARK                            x       y       z     vdW  Elec       q    Type
REMARK                         _______ _______ _______ _____ _____    ______ ____
ROOT
ATOM      1  C   UNL     1       4.739   4.653  17.544  0.00  0.00    +0.000 A 
ATOM      2  C   UNL     1       5.736   3.874  16.904  0.00  0.00    +0.000 A 
ATOM      3  N   UNL     1       6.592   3.820  18.008  0.00  0.00    +0.000 N 
ATOM      4  C   UNL     1       6.750   5.157  18.353  0.00  0.00    +0.000 A 
ATOM      5  C   UNL     1       7.871   5.786  18.892  0.00  0.00    +0.000 A 
ATOM      6  C   UNL     1       8.063   7.080  18.431  0.00  0.00    +0.000 A 
ATOM      7  C   UNL     1       7.094   7.695  17.633  0.00  0.00    +0.000 A 
ATOM      8  F   UNL     1       7.444   8.828  17.002  0.00  0.00    +0.000 F 
ATOM      9  C   UNL     1       5.822   7.123  17.377  0.00  0.00    +0.000 A 
ATOM     10  C   UNL     1       5.624   5.779  17.764  0.00  0.00    +0.000 A 
ATOM     11  H   UNL     1       6.517   3.115  18.727  0.00  0.00    +0.000 HD
ENDROOT
BRANCH   2  12
ATOM     12  C   UNL     1       6.133   4.209  15.486  0.00  0.00    +0.000 A 
ATOM     13  C   UNL     1       5.500   3.667  14.366  0.00  0.00    +0.000 A 
ATOM     14  C   UNL     1       6.019   3.894  13.082  0.00  0.00    +0.000 A 
ATOM     15  C   UNL     1       7.183   4.652  12.907  0.00  0.00    +0.000 A 
ATOM     16  C   UNL     1       7.849   5.164  14.007  0.00  0.00    +0.000 A 
ATOM     17  C   UNL     1       7.324   4.946  15.279  0.00  0.00    +0.000 A 
ENDBRANCH   2  12
BRANCH   1  18
ATOM     18  C   UNL     1       3.392   4.096  17.335  0.00  0.00    +0.000 C 
ATOM     19  O   UNL     1       3.076   3.974  16.145  0.00  0.00    +0.000 OA
BRANCH  18  21
ATOM     20  N   UNL     1       2.228   4.417  19.624  0.00  0.00    +0.000 N 
ATOM     21  C   UNL     1       2.286   3.735  18.358  0.00  0.00    +0.000 C 
ATOM     22  O   UNL     1       1.525   2.825  18.047  0.00  0.00    +0.000 OA
BRANCH  20  24
ATOM     23  C   UNL     1       1.437   2.984  21.628  0.00  0.00    +0.000 C 
ATOM     24  C   UNL     1       1.215   4.120  20.650  0.00  0.00    +0.000 C 
ENDBRANCH  20  24
BRANCH  20  25
ATOM     25  C   UNL     1       3.018   5.635  19.937  0.00  0.00    +0.000 C 
BRANCH  25  26
ATOM     26  C   UNL     1       2.344   6.939  19.559  0.00  0.00    +0.000 A 
ATOM     27  C   UNL     1       2.383   7.451  18.255  0.00  0.00    +0.000 A 
ATOM     28  C   UNL     1       1.831   8.699  17.963  0.00  0.00    +0.000 A 
ATOM     29  C   UNL     1       1.203   9.435  18.964  0.00  0.00    +0.000 A 
ATOM     30  C   UNL     1       1.100   8.907  20.250  0.00  0.00    +0.000 A 
ATOM     31  C   UNL     1       1.657   7.666  20.545  0.00  0.00    +0.000 A 
ENDBRANCH  25  26
ENDBRANCH  20  25
ENDBRANCH  18  21
ENDBRANCH   1  18
TORSDOF 6
ENDMDL
MODEL 3
REMARK VINA RESULT:      -8.8      0.174      1.257
REMARK  Name = 
REMARK  7 active torsions:
REMARK  status: ('A' for Active; 'I' for Inactive)
REMARK    1  A    between atoms: C_1  and  C_2
REMARK    2  A    between atoms: C_2  and  N_3
REMARK    3  A    between atoms: N_3  and  C_4
REMARK    4  A    between atoms: C_4  and  C_5
REMARK    5  A    between atoms: C_11  and  C_13
REMARK    6  A    between atoms: C_13  and  C_15
REMARK    7  A    between atoms: C_16  and  C_17
REMARK                            x       y       z     vdW  Elec       q    Type
REMARK                         _______ _______ _______ _____ _____    ______ ____
ROOT
ATOM      1  C   UNL     1       3.851   6.470  18.232  0.00  0.00    +0.000 A 
ATOM      2  C   UNL     1       4.003   5.471  19.227  0.00  0.00    +0.000 A 
ATOM      3  N   UNL     1       5.356   5.726  19.467  0.00  0.00    +0.000 N 
ATOM      4  C   UNL     1       5.923   5.655  18.201  0.00  0.00    +0.000 A 
ATOM      5  C   UNL     1       7.194   5.209  17.844  0.00  0.00    +0.000 A 
ATOM      6  C   UNL     1       7.230   4.530  16.634  0.00  0.00    +0.000 A 
ATOM      7  C   UNL     1       6.096   4.481  15.819  0.00  0.00    +0.000 A 
ATOM      8  F   UNL     1       6.103   3.601  14.805  0.00  0.00    +0.000 F 
ATOM      9  C   UNL     1       4.918   5.226  16.082  0.00  0.00    +0.000 A 
ATOM     10  C   UNL     1       4.819   5.862  17.340  0.00  0.00    +0.000 A 
ATOM     11  H   UNL     1       5.675   6.420  20.129  0.00  0.00    +0.000 HD
ENDROOT
BRANCH   2  12
ATOM     12  C   UNL     1       3.378   4.113  19.008  0.00  0.00    +0.000 A 
ATOM     13  C   UNL     1       4.114   2.927  18.982  0.00  0.00    +0.000 A 
ATOM     14  C   UNL     1       3.498   1.721  18.616  0.00  0.00    +0.000 A 
ATOM     15  C   UNL     1       2.144   1.692  18.257  0.00  0.00    +0.000 A 
ATOM     16  C   UNL     1       1.407   2.863  18.235  0.00  0.00    +0.000 A 
ATOM     17  C   UNL     1       2.020   4.056  18.611  0.00  0.00    +0.000 A 
ENDBRANCH   2  12
BRANCH   1  18
ATOM     18  C   UNL     1       2.654   7.295  18.463  0.00  0.00    +0.000 C 
ATOM     19  O   UNL     1       2.204   7.829  17.440  0.00  0.00    +0.000 OA
BRANCH  18  21
ATOM     20  N   UNL     1       1.509   9.031  20.003  0.00  0.00    +0.000 N 
ATOM     21  C   UNL     1       1.938   7.675  19.783  0.00  0.00    +0.000 C 
ATOM     22  O   UNL     1       1.815   6.784  20.617  0.00  0.00    +0.000 OA
BRANCH  20  24
ATOM     23  C   UNL     1      -0.439   8.783  21.688  0.00  0.00    +0.000 C 
ATOM     24  C   UNL     1       0.834   9.469  21.236  0.00  0.00    +0.000 C 
ENDBRANCH  20  24
BRANCH  20  25
ATOM     25  C   UNL     1       1.485  10.067  18.940  0.00  0.00    +0.000 C 
BRANCH  25  26
ATOM     26  C   UNL     1       0.101  10.567  18.577  0.00  0.00    +0.000 A 
ATOM     27  C   UNL     1      -0.357  11.838  18.949  0.00  0.00    +0.000 A 
ATOM     28  C   UNL     1      -1.668  12.230  18.678  0.00  0.00    +0.000 A 
ATOM     29  C   UNL     1      -2.527  11.369  18.000  0.00  0.00    +0.000 A 
ATOM     30  C   UNL     1      -2.063  10.129  17.567  0.00  0.00    +0.000 A 
ATOM     31  C   UNL     1      -0.758   9.733  17.843  0.00  0.00    +0.000 A 
ENDBRANCH  25  26
ENDBRANCH  20  25
ENDBRANCH  18  21
ENDBRANCH   1  18
TORSDOF 6
ENDMDL
MODEL 4
REMARK VINA RESULT:      -8.8      2.567      4.604
REMARK  Name = 
REMARK  7 active torsions:
REMARK  status: ('A' for Active; 'I' for Inactive)
REMARK    1  A    between atoms: C_1  and  C_2
REMARK    2  A    between atoms: C_2  and  N_3
REMARK    3  A    between atoms: N_3  and  C_4
REMARK    4  A    between atoms: C_4  and  C_5
REMARK    5  A    between atoms: C_11  and  C_13
REMARK    6  A    between atoms: C_13  and  C_15
REMARK    7  A    between atoms: C_16  and  C_17
REMARK                            x       y       z     vdW  Elec       q    Type
REMARK                         _______ _______ _______ _____ _____    ______ ____
ROOT
ATOM      1  C   UNL     1       4.814   4.740  17.581  0.00  0.00    +0.000 A 
ATOM      2  C   UNL     1       5.838   3.889  17.092  0.00  0.00    +0.000 A 
ATOM      3  N   UNL     1       6.597   3.906  18.265  0.00  0.00    +0.000 N 
ATOM      4  C   UNL     1       6.766   5.262  18.515  0.00  0.00    +0.000 A 
ATOM      5  C   UNL     1       7.857   5.908  19.095  0.00  0.00    +0.000 A 
ATOM      6  C   UNL     1       8.125   7.155  18.550  0.00  0.00    +0.000 A 
ATOM      7  C   UNL     1       7.243   7.724  17.627  0.00  0.00    +0.000 A 
ATOM      8  F   UNL     1       7.677   8.794  16.940  0.00  0.00    +0.000 F 
ATOM      9  C   UNL     1       5.980   7.163  17.310  0.00  0.00    +0.000 A 
ATOM     10  C   UNL     1       5.711   5.860  17.785  0.00  0.00    +0.000 A 
ATOM     11  H   UNL     1       6.442   3.264  19.029  0.00  0.00    +0.000 HD
ENDROOT
BRANCH   2  12
ATOM     12  C   UNL     1       6.360   4.097  15.690  0.00  0.00    +0.000 A 
ATOM     13  C   UNL     1       7.379   4.999  15.379  0.00  0.00    +0.000 A 
ATOM     14  C   UNL     1       7.706   5.261  14.040  0.00  0.00    +0.000 A 
ATOM     15  C   UNL     1       7.008   4.635  13.000  0.00  0.00    +0.000 A 
ATOM     16  C   UNL     1       5.967   3.770  13.285  0.00  0.00    +0.000 A 
ATOM     17  C   UNL     1       5.653   3.503  14.616  0.00  0.00    +0.000 A 
ENDBRANCH   2  12
BRANCH   1  18
ATOM     18  C   UNL     1       3.473   4.199  17.303  0.00  0.00    +0.000 C 
ATOM     19  O   UNL     1       3.215   4.083  16.098  0.00  0.00    +0.000 OA
BRANCH  18  21
ATOM     20  N   UNL     1       2.217   4.507  19.545  0.00  0.00    +0.000 N 
ATOM     21  C   UNL     1       2.314   3.848  18.269  0.00  0.00    +0.000 C 
ATOM     22  O   UNL     1       1.545   2.964  17.905  0.00  0.00    +0.000 OA
BRANCH  20  24
ATOM     23  C   UNL     1       1.307   3.067  21.492  0.00  0.00    +0.000 C 
ATOM     24  C   UNL     1       1.151   4.217  20.518  0.00  0.00    +0.000 C 
ENDBRANCH  20  24
BRANCH  20  25
ATOM     25  C   UNL     1       3.023   5.697  19.917  0.00  0.00    +0.000 C 
BRANCH  25  26
ATOM     26  C   UNL     1       2.377   7.027  19.582  0.00  0.00    +0.000 A 
ATOM     27  C   UNL     1       1.694   7.790  20.538  0.00  0.00    +0.000 A 
ATOM     28  C   UNL     1       1.034   8.963  20.174  0.00  0.00    +0.000 A 
ATOM     29  C   UNL     1       1.077   9.407  18.855  0.00  0.00    +0.000 A 
ATOM     30  C   UNL     1       1.808   8.692  17.909  0.00  0.00    +0.000 A 
ATOM     31  C   UNL     1       2.461   7.517  18.268  0.00  0.00    +0.000 A 
ENDBRANCH  25  26
ENDBRANCH  20  25
ENDBRANCH  18  21
ENDBRANCH   1  18
TORSDOF 6
ENDMDL
MODEL 5
REMARK VINA RESULT:      -8.4      2.147      3.970
REMARK  Name = 
REMARK  7 active torsions:
REMARK  status: ('A' for Active; 'I' for Inactive)
REMARK    1  A    between atoms: C_1  and  C_2
REMARK    2  A    between atoms: C_2  and  N_3
REMARK    3  A    between atoms: N_3  and  C_4
REMARK    4  A    between atoms: C_4  and  C_5
REMARK    5  A    between atoms: C_11  and  C_13
REMARK    6  A    between atoms: C_13  and  C_15
REMARK    7  A    between atoms: C_16  and  C_17
REMARK                            x       y       z     vdW  Elec       q    Type
REMARK                         _______ _______ _______ _____ _____    ______ ____
ROOT
ATOM      1  C   UNL     1       1.971   6.177  19.141  0.00  0.00    +0.000 A 
ATOM      2  C   UNL     1       2.644   5.627  18.020  0.00  0.00    +0.000 A 
ATOM      3  N   UNL     1       1.613   4.754  17.661  0.00  0.00    +0.000 N 
ATOM      4  C   UNL     1       1.362   4.058  18.837  0.00  0.00    +0.000 A 
ATOM      5  C   UNL     1       0.956   2.733  18.990  0.00  0.00    +0.000 A 
ATOM      6  C   UNL     1       1.507   2.102  20.095  0.00  0.00    +0.000 A 
ATOM      7  C   UNL     1       2.258   2.831  21.022  0.00  0.00    +0.000 A 
ATOM      8  F   UNL     1       2.982   2.135  21.913  0.00  0.00    +0.000 F 
ATOM      9  C   UNL     1       2.374   4.245  20.987  0.00  0.00    +0.000 A 
ATOM     10  C   UNL     1       1.892   4.908  19.836  0.00  0.00    +0.000 A 
ATOM     11  H   UNL     1       0.849   5.024  17.058  0.00  0.00    +0.000 HD
ENDROOT
BRANCH   2  12
ATOM     12  C   UNL     1       4.107   5.275  18.141  0.00  0.00    +0.000 A 
ATOM     13  C   UNL     1       4.894   5.637  19.235  0.00  0.00    +0.000 A 
ATOM     14  C   UNL     1       6.280   5.418  19.213  0.00  0.00    +0.000 A 
ATOM     15  C   UNL     1       6.894   4.850  18.089  0.00  0.00    +0.000 A 
ATOM     16  C   UNL     1       6.139   4.523  16.978  0.00  0.00    +0.000 A 
ATOM     17  C   UNL     1       4.761   4.730  17.009  0.00  0.00    +0.000 A 
ENDBRANCH   2  12
BRANCH   1  18
ATOM     18  C   UNL     1       2.035   7.648  19.150  0.00  0.00    +0.000 C 
ATOM     19  O   UNL     1       2.643   8.132  18.187  0.00  0.00    +0.000 OA
BRANCH  18  21
ATOM     20  N   UNL     1       1.044   9.948  19.802  0.00  0.00    +0.000 N 
ATOM     21  C   UNL     1       1.553   8.666  20.213  0.00  0.00    +0.000 C 
ATOM     22  O   UNL     1       1.681   8.336  21.388  0.00  0.00    +0.000 OA
BRANCH  20  24
ATOM     23  C   UNL     1       1.276  12.314  20.823  0.00  0.00    +0.000 C 
ATOM     24  C   UNL     1       0.580  10.970  20.754  0.00  0.00    +0.000 C 
ENDBRANCH  20  24
BRANCH  20  25
ATOM     25  C   UNL     1       0.714  10.286  18.394  0.00  0.00    +0.000 C 
BRANCH  25  26
ATOM     26  C   UNL     1      -0.762  10.505  18.127  0.00  0.00    +0.000 A 
ATOM     27  C   UNL     1      -1.454  11.622  18.612  0.00  0.00    +0.000 A 
ATOM     28  C   UNL     1      -2.830  11.745  18.425  0.00  0.00    +0.000 A 
ATOM     29  C   UNL     1      -3.528  10.768  17.720  0.00  0.00    +0.000 A 
ATOM     30  C   UNL     1      -2.841   9.685  17.175  0.00  0.00    +0.000 A 
ATOM     31  C   UNL     1      -1.468   9.557  17.368  0.00  0.00    +0.000 A 
ENDBRANCH  25  26
ENDBRANCH  20  25
ENDBRANCH  18  21
ENDBRANCH   1  18
TORSDOF 6
ENDMDL
MODEL 6
REMARK VINA RESULT:      -8.3      1.015      1.611
REMARK  Name = 
REMARK  7 active torsions:
REMARK  status: ('A' for Active; 'I' for Inactive)
REMARK    1  A    between atoms: C_1  and  C_2
REMARK    2  A    between atoms: C_2  and  N_3
REMARK    3  A    between atoms: N_3  and  C_4
REMARK    4  A    between atoms: C_4  and  C_5
REMARK    5  A    between atoms: C_11  and  C_13
REMARK    6  A    between atoms: C_13  and  C_15
REMARK    7  A    between atoms: C_16  and  C_17
REMARK                            x       y       z     vdW  Elec       q    Type
REMARK                         _______ _______ _______ _____ _____    ______ ____
ROOT
ATOM      1  C   UNL     1       3.977   6.795  17.958  0.00  0.00    +0.000 A 
ATOM      2  C   UNL     1       3.985   5.725  18.889  0.00  0.00    +0.000 A 
ATOM      3  N   UNL     1       5.339   5.842  19.215  0.00  0.00    +0.000 N 
ATOM      4  C   UNL     1       5.969   5.801  17.977  0.00  0.00    +0.000 A 
ATOM      5  C   UNL     1       7.215   5.265  17.656  0.00  0.00    +0.000 A 
ATOM      6  C   UNL     1       7.261   4.664  16.407  0.00  0.00    +0.000 A 
ATOM      7  C   UNL     1       6.176   4.770  15.533  0.00  0.00    +0.000 A 
ATOM      8  F   UNL     1       6.164   3.958  14.463  0.00  0.00    +0.000 F 
ATOM      9  C   UNL     1       5.053   5.599  15.786  0.00  0.00    +0.000 A 
ATOM     10  C   UNL     1       4.938   6.160  17.077  0.00  0.00    +0.000 A 
ATOM     11  H   UNL     1       5.679   6.461  19.938  0.00  0.00    +0.000 HD
ENDROOT
BRANCH   2  12
ATOM     12  C   UNL     1       3.259   4.446  18.546  0.00  0.00    +0.000 A 
ATOM     13  C   UNL     1       1.877   4.377  18.357  0.00  0.00    +0.000 A 
ATOM     14  C   UNL     1       1.247   3.133  18.199  0.00  0.00    +0.000 A 
ATOM     15  C   UNL     1       1.990   1.947  18.244  0.00  0.00    +0.000 A 
ATOM     16  C   UNL     1       3.354   1.990  18.472  0.00  0.00    +0.000 A 
ATOM     17  C   UNL     1       3.977   3.228  18.617  0.00  0.00    +0.000 A 
ENDBRANCH   2  12
BRANCH   1  18
ATOM     18  C   UNL     1       2.845   7.709  18.183  0.00  0.00    +0.000 C 
ATOM     19  O   UNL     1       2.609   8.464  17.231  0.00  0.00    +0.000 OA
BRANCH  18  21
ATOM     20  N   UNL     1       1.047   9.035  19.490  0.00  0.00    +0.000 N 
ATOM     21  C   UNL     1       1.977   7.937  19.446  0.00  0.00    +0.000 C 
ATOM     22  O   UNL     1       2.170   7.178  20.390  0.00  0.00    +0.000 OA
BRANCH  20  24
ATOM     23  C   UNL     1       0.786  10.021  21.867  0.00  0.00    +0.000 C 
ATOM     24  C   UNL     1       0.199   9.322  20.658  0.00  0.00    +0.000 C 
ENDBRANCH  20  24
BRANCH  20  25
ATOM     25  C   UNL     1       0.674   9.841  18.300  0.00  0.00    +0.000 C 
BRANCH  25  26
ATOM     26  C   UNL     1       0.816  11.339  18.482  0.00  0.00    +0.000 A 
ATOM     27  C   UNL     1      -0.292  12.192  18.563  0.00  0.00    +0.000 A 
ATOM     28  C   UNL     1      -0.123  13.575  18.638  0.00  0.00    +0.000 A 
ATOM     29  C   UNL     1       1.157  14.120  18.669  0.00  0.00    +0.000 A 
ATOM     30  C   UNL     1       2.268  13.278  18.656  0.00  0.00    +0.000 A 
ATOM     31  C   UNL     1       2.101  11.899  18.573  0.00  0.00    +0.000 A 
ENDBRANCH  25  26
ENDBRANCH  20  25
ENDBRANCH  18  21
ENDBRANCH   1  18
TORSDOF 6
ENDMDL
MODEL 7
REMARK VINA RESULT:      -8.2      6.180      8.265
REMARK  Name = 
REMARK  7 active torsions:
REMARK  status: ('A' for Active; 'I' for Inactive)
REMARK    1  A    between atoms: C_1  and  C_2
REMARK    2  A    between atoms: C_2  and  N_3
REMARK    3  A    between atoms: N_3  and  C_4
REMARK    4  A    between atoms: C_4  and  C_5
REMARK    5  A    between atoms: C_11  and  C_13
REMARK    6  A    between atoms: C_13  and  C_15
REMARK    7  A    between atoms: C_16  and  C_17
REMARK                            x       y       z     vdW  Elec       q    Type
REMARK                         _______ _______ _______ _____ _____    ______ ____
ROOT
ATOM      1  C   UNL     1       0.277  12.112  18.625  0.00  0.00    +0.000 A 
ATOM      2  C   UNL     1       0.539  10.836  19.187  0.00  0.00    +0.000 A 
ATOM      3  N   UNL     1       0.297  10.120  18.011  0.00  0.00    +0.000 N 
ATOM      4  C   UNL     1      -0.965  10.558  17.627  0.00  0.00    +0.000 A 
ATOM      5  C   UNL     1      -1.969   9.843  16.976  0.00  0.00    +0.000 A 
ATOM      6  C   UNL     1      -3.251  10.171  17.393  0.00  0.00    +0.000 A 
ATOM      7  C   UNL     1      -3.455  11.245  18.264  0.00  0.00    +0.000 A 
ATOM      8  F   UNL     1      -4.664  11.351  18.838  0.00  0.00    +0.000 F 
ATOM      9  C   UNL     1      -2.425  12.142  18.646  0.00  0.00    +0.000 A 
ATOM     10  C   UNL     1      -1.099  11.793  18.304  0.00  0.00    +0.000 A 
ATOM     11  H   UNL     1       1.009   9.949  17.316  0.00  0.00    +0.000 HD
ENDROOT
BRANCH   2  12
ATOM     12  C   UNL     1      -0.007  10.510  20.557  0.00  0.00    +0.000 A 
ATOM     13  C   UNL     1      -0.387  11.483  21.482  0.00  0.00    +0.000 A 
ATOM     14  C   UNL     1      -0.735  11.117  22.791  0.00  0.00    +0.000 A 
ATOM     15  C   UNL     1      -0.690   9.776  23.192  0.00  0.00    +0.000 A 
ATOM     16  C   UNL     1      -0.276   8.800  22.304  0.00  0.00    +0.000 A 
ATOM     17  C   UNL     1       0.057   9.166  21.001  0.00  0.00    +0.000 A 
ENDBRANCH   2  12
BRANCH   1  18
ATOM     18  C   UNL     1       1.327  13.086  18.967  0.00  0.00    +0.000 C 
ATOM     19  O   UNL     1       2.204  13.206  18.102  0.00  0.00    +0.000 OA
BRANCH  18  21
ATOM     20  N   UNL     1       0.876  15.154  20.456  0.00  0.00    +0.000 N 
ATOM     21  C   UNL     1       1.556  13.900  20.265  0.00  0.00    +0.000 C 
ATOM     22  O   UNL     1       2.367  13.444  21.064  0.00  0.00    +0.000 OA
BRANCH  20  24
ATOM     23  C   UNL     1      -0.018  16.986  22.050  0.00  0.00    +0.000 C 
ATOM     24  C   UNL     1       1.052  15.988  21.656  0.00  0.00    +0.000 C 
ENDBRANCH  20  24
BRANCH  20  25
ATOM     25  C   UNL     1      -0.237  15.623  19.592  0.00  0.00    +0.000 C 
BRANCH  25  26
ATOM     26  C   UNL     1       0.157  16.664  18.564  0.00  0.00    +0.000 A 
ATOM     27  C   UNL     1      -0.780  17.515  17.962  0.00  0.00    +0.000 A 
ATOM     28  C   UNL     1      -0.396  18.397  16.953  0.00  0.00    +0.000 A 
ATOM     29  C   UNL     1       0.937  18.466  16.557  0.00  0.00    +0.000 A 
ATOM     30  C   UNL     1       1.890  17.673  17.194  0.00  0.00    +0.000 A 
ATOM     31  C   UNL     1       1.507  16.786  18.195  0.00  0.00    +0.000 A 
ENDBRANCH  25  26
ENDBRANCH  20  25
ENDBRANCH  18  21
ENDBRANCH   1  18
TORSDOF 6
ENDMDL
MODEL 8
REMARK VINA RESULT:      -8.2      1.281      2.407
REMARK  Name = 
REMARK  7 active torsions:
REMARK  status: ('A' for Active; 'I' for Inactive)
REMARK    1  A    between atoms: C_1  and  C_2
REMARK    2  A    between atoms: C_2  and  N_3
REMARK    3  A    between atoms: N_3  and  C_4
REMARK    4  A    between atoms: C_4  and  C_5
REMARK    5  A    between atoms: C_11  and  C_13
REMARK    6  A    between atoms: C_13  and  C_15
REMARK    7  A    between atoms: C_16  and  C_17
REMARK                            x       y       z     vdW  Elec       q    Type
REMARK                         _______ _______ _______ _____ _____    ______ ____
ROOT
ATOM      1  C   UNL     1       3.934   6.595  18.510  0.00  0.00    +0.000 A 
ATOM      2  C   UNL     1       4.091   5.395  19.250  0.00  0.00    +0.000 A 
ATOM      3  N   UNL     1       5.470   5.532  19.434  0.00  0.00    +0.000 N 
ATOM      4  C   UNL     1       5.946   5.718  18.143  0.00  0.00    +0.000 A 
ATOM      5  C   UNL     1       7.163   5.307  17.600  0.00  0.00    +0.000 A 
ATOM      6  C   UNL     1       7.079   4.912  16.273  0.00  0.00    +0.000 A 
ATOM      7  C   UNL     1       5.893   5.095  15.557  0.00  0.00    +0.000 A 
ATOM      8  F   UNL     1       5.781   4.461  14.378  0.00  0.00    +0.000 F 
ATOM      9  C   UNL     1       4.781   5.813  16.066  0.00  0.00    +0.000 A 
ATOM     10  C   UNL     1       4.802   6.158  17.436  0.00  0.00    +0.000 A 
ATOM     11  H   UNL     1       5.872   6.047  20.204  0.00  0.00    +0.000 HD
ENDROOT
BRANCH   2  12
ATOM     12  C   UNL     1       3.374   4.148  18.789  0.00  0.00    +0.000 A 
ATOM     13  C   UNL     1       2.006   4.109  18.513  0.00  0.00    +0.000 A 
ATOM     14  C   UNL     1       1.374   2.885  18.245  0.00  0.00    +0.000 A 
ATOM     15  C   UNL     1       2.100   1.688  18.265  0.00  0.00    +0.000 A 
ATOM     16  C   UNL     1       3.447   1.699  18.577  0.00  0.00    +0.000 A 
ATOM     17  C   UNL     1       4.074   2.917  18.831  0.00  0.00    +0.000 A 
ENDBRANCH   2  12
BRANCH   1  18
ATOM     18  C   UNL     1       2.806   7.400  19.007  0.00  0.00    +0.000 C 
ATOM     19  O   UNL     1       2.378   7.041  20.112  0.00  0.00    +0.000 OA
BRANCH  18  21
ATOM     20  N   UNL     1       1.082   9.328  19.095  0.00  0.00    +0.000 N 
ATOM     21  C   UNL     1       2.017   8.547  18.329  0.00  0.00    +0.000 C 
ATOM     22  O   UNL     1       2.199   8.702  17.125  0.00  0.00    +0.000 OA
BRANCH  20  24
ATOM     23  C   UNL     1      -1.071  10.139  17.910  0.00  0.00    +0.000 C 
ATOM     24  C   UNL     1       0.288  10.425  18.516  0.00  0.00    +0.000 C 
ENDBRANCH  20  24
BRANCH  20  25
ATOM     25  C   UNL     1       0.989   9.275  20.576  0.00  0.00    +0.000 C 
BRANCH  25  26
ATOM     26  C   UNL     1       0.352  10.493  21.213  0.00  0.00    +0.000 A 
ATOM     27  C   UNL     1       0.778  11.797  20.927  0.00  0.00    +0.000 A 
ATOM     28  C   UNL     1       0.231  12.889  21.601  0.00  0.00    +0.000 A 
ATOM     29  C   UNL     1      -0.773  12.695  22.544  0.00  0.00    +0.000 A 
ATOM     30  C   UNL     1      -1.252  11.409  22.790  0.00  0.00    +0.000 A 
ATOM     31  C   UNL     1      -0.703  10.318  22.125  0.00  0.00    +0.000 A 
ENDBRANCH  25  26
ENDBRANCH  20  25
ENDBRANCH  18  21
ENDBRANCH   1  18
TORSDOF 6
ENDMDL
MODEL 9
REMARK VINA RESULT:      -8.1      2.047      3.806
REMARK  Name = 
REMARK  7 active torsions:
REMARK  status: ('A' for Active; 'I' for Inactive)
REMARK    1  A    between atoms: C_1  and  C_2
REMARK    2  A    between atoms: C_2  and  N_3
REMARK    3  A    between atoms: N_3  and  C_4
REMARK    4  A    between atoms: C_4  and  C_5
REMARK    5  A    between atoms: C_11  and  C_13
REMARK    6  A    between atoms: C_13  and  C_15
REMARK    7  A    between atoms: C_16  and  C_17
REMARK                            x       y       z     vdW  Elec       q    Type
REMARK                         _______ _______ _______ _____ _____    ______ ____
ROOT
ATOM      1  C   UNL     1       1.935   6.216  19.210  0.00  0.00    +0.000 A 
ATOM      2  C   UNL     1       2.511   5.756  17.998  0.00  0.00    +0.000 A 
ATOM      3  N   UNL     1       1.484   4.856  17.696  0.00  0.00    +0.000 N 
ATOM      4  C   UNL     1       1.384   4.090  18.850  0.00  0.00    +0.000 A 
ATOM      5  C   UNL     1       1.049   2.742  18.969  0.00  0.00    +0.000 A 
ATOM      6  C   UNL     1       1.737   2.080  19.976  0.00  0.00    +0.000 A 
ATOM      7  C   UNL     1       2.548   2.795  20.862  0.00  0.00    +0.000 A 
ATOM      8  F   UNL     1       3.388   2.087  21.635  0.00  0.00    +0.000 F 
ATOM      9  C   UNL     1       2.603   4.211  20.895  0.00  0.00    +0.000 A 
ATOM     10  C   UNL     1       1.980   4.911  19.837  0.00  0.00    +0.000 A 
ATOM     11  H   UNL     1       0.653   5.123  17.189  0.00  0.00    +0.000 HD
ENDROOT
BRANCH   2  12
ATOM     12  C   UNL     1       3.992   5.465  17.951  0.00  0.00    +0.000 A 
ATOM     13  C   UNL     1       4.601   4.757  16.914  0.00  0.00    +0.000 A 
ATOM     14  C   UNL     1       5.950   4.383  17.010  0.00  0.00    +0.000 A 
ATOM     15  C   UNL     1       6.698   4.701  18.150  0.00  0.00    +0.000 A 
ATOM     16  C   UNL     1       6.103   5.366  19.207  0.00  0.00    +0.000 A 
ATOM     17  C   UNL     1       4.767   5.745  19.103  0.00  0.00    +0.000 A 
ENDBRANCH   2  12
BRANCH   1  18
ATOM     18  C   UNL     1       1.941   7.686  19.295  0.00  0.00    +0.000 C 
ATOM     19  O   UNL     1       2.488   8.245  18.335  0.00  0.00    +0.000 OA
BRANCH  18  21
ATOM     20  N   UNL     1       1.061   9.974  20.124  0.00  0.00    +0.000 N 
ATOM     21  C   UNL     1       1.463   8.627  20.429  0.00  0.00    +0.000 C 
ATOM     22  O   UNL     1       1.501   8.175  21.569  0.00  0.00    +0.000 OA
BRANCH  20  24
ATOM     23  C   UNL     1      -0.552  10.573  22.056  0.00  0.00    +0.000 C 
ATOM     24  C   UNL     1       0.608  10.929  21.149  0.00  0.00    +0.000 C 
ENDBRANCH  20  24
BRANCH  20  25
ATOM     25  C   UNL     1       0.835  10.470  18.742  0.00  0.00    +0.000 C 
BRANCH  25  26
ATOM     26  C   UNL     1      -0.622  10.647  18.365  0.00  0.00    +0.000 A 
ATOM     27  C   UNL     1      -1.367  11.766  18.760  0.00  0.00    +0.000 A 
ATOM     28  C   UNL     1      -2.729  11.853  18.474  0.00  0.00    +0.000 A 
ATOM     29  C   UNL     1      -3.357  10.837  17.758  0.00  0.00    +0.000 A 
ATOM     30  C   UNL     1      -2.613   9.751  17.303  0.00  0.00    +0.000 A 
ATOM     31  C   UNL     1      -1.256   9.659  17.594  0.00  0.00    +0.000 A 
ENDBRANCH  25  26
ENDBRANCH  20  25
ENDBRANCH  18  21
ENDBRANCH   1  18
TORSDOF 6
ENDMDL
