MODEL 1
REMARK VINA RESULT:      -7.8      0.000      0.000
REMARK  Name = 
REMARK  11 active torsions:
REMARK  status: ('A' for Active; 'I' for Inactive)
REMARK    1  A    between atoms: C_2  and  C_3
REMARK    2  A    between atoms: C_3  and  C_4
REMARK    3  A    between atoms: C_3  and  C_13
REMARK    4  A    between atoms: C_13  and  C_14
REMARK    5  A    between atoms: C_13  and  C_21
REMARK    6  A    between atoms: C_21  and  P_22
REMARK    7  A    between atoms: C_21  and  P_26
REMARK    8  A    between atoms: P_22  and  O_24
REMARK    9  A    between atoms: P_22  and  O_25
REMARK   10  A    between atoms: P_26  and  O_28
REMARK   11  A    between atoms: P_26  and  O_29
REMARK                            x       y       z     vdW  Elec       q    Type
REMARK                         _______ _______ _______ _____ _____    ______ ____
ROOT
ATOM      1  C   UNL     1       4.305   5.382  18.741  0.00  0.00    +0.000 C 
ENDROOT
BRANCH   1   2
ATOM      2  C   UNL     1       3.600   4.284  19.577  0.00  0.00    +0.000 A 
ATOM      3  C   UNL     1       2.925   4.669  20.762  0.00  0.00    +0.000 A 
ATOM      4  C   UNL     1       2.348   3.726  21.623  0.00  0.00    +0.000 A 
ATOM      5  C   UNL     1       2.480   2.369  21.362  0.00  0.00    +0.000 A 
ATOM      6  C   UNL     1       3.078   1.968  20.170  0.00  0.00    +0.000 A 
ATOM      7  C   UNL     1       3.548   2.917  19.250  0.00  0.00    +0.000 A 
ATOM      8 CL   UNL     1       3.964   2.334  17.675  0.00  0.00    +0.000 Cl
ENDBRANCH   1   2
BRANCH   1   9
ATOM      9  C   UNL     1       3.227   6.094  17.835  0.00  0.00    +0.000 C 
BRANCH   9  10
ATOM     10  C   UNL     1       2.469   7.219  18.614  0.00  0.00    +0.000 A 
ATOM     11  N   UNL     1       2.201   7.260  19.910  0.00  0.00    +0.000 NA
ATOM     12  C   UNL     1       1.432   8.405  20.204  0.00  0.00    +0.000 A 
ATOM     13  C   UNL     1       0.717   8.671  21.396  0.00  0.00    +0.000 A 
ATOM     14  C   UNL     1      -0.112   9.805  21.480  0.00  0.00    +0.000 A 
ATOM     15  C   UNL     1      -0.186  10.715  20.431  0.00  0.00    +0.000 A 
ATOM     16  C   UNL     1       0.547  10.504  19.267  0.00  0.00    +0.000 A 
ATOM     17  C   UNL     1       1.285   9.317  19.160  0.00  0.00    +0.000 A 
ATOM     18  S   UNL     1       2.032   8.699  17.762  0.00  0.00    +0.000 S 
ENDBRANCH   9  10
BRANCH   9  20
ATOM     19  N   UNL     1       0.972   4.517  17.431  0.00  0.00    +0.000 NA
ATOM     20  C   UNL     1       1.995   5.232  17.614  0.00  0.00    +0.000 C 
ENDBRANCH   9  20
ENDBRANCH   1   9
BRANCH   1  21
ATOM     21  C   UNL     1       5.595   4.905  17.971  0.00  0.00    +0.000 C 
BRANCH  21  22
ATOM     22  P   UNL     1       5.869   5.410  16.228  0.00  0.00    +0.000 P 
ATOM     23  O   UNL     1       5.803   6.860  15.872  0.00  0.00    +0.000 OA
BRANCH  22  24
ATOM     24  O   UNL     1       7.300   4.769  15.886  0.00  0.00    +0.000 OA
ATOM     25  H   UNL     1       7.441   4.760  14.916  0.00  0.00    +0.000 HD
ENDBRANCH  22  24
BRANCH  22  26
ATOM     26  O   UNL     1       5.067   4.569  15.159  0.00  0.00    +0.000 OA
ATOM     27  H   UNL     1       5.100   3.605  15.308  0.00  0.00    +0.000 HD
ENDBRANCH  22  26
ENDBRANCH  21  22
BRANCH  21  28
ATOM     28  P   UNL     1       7.207   5.353  18.732  0.00  0.00    +0.000 P 
ATOM     29  O   UNL     1       7.337   5.502  20.214  0.00  0.00    +0.000 OA
BRANCH  28  30
ATOM     30  O   UNL     1       8.254   4.233  18.263  0.00  0.00    +0.000 OA
ATOM     31  H   UNL     1       9.034   4.201  18.862  0.00  0.00    +0.000 HD
ENDBRANCH  28  30
BRANCH  28  32
ATOM     32  O   UNL     1       7.766   6.638  17.986  0.00  0.00    +0.000 OA
ATOM     33  H   UNL     1       7.113   7.065  17.405  0.00  0.00    +0.000 HD
ENDBRANCH  28  32
ENDBRANCH  21  28
ENDBRANCH   1  21
TORSDOF 11
ENDMDL
MODEL 2
REMARK VINA RESULT:      -7.5      1.063      1.435
REMARK  Name = 
REMARK  11 active torsions:
REMARK  status: ('A' for Active; 'I' for Inactive)
REMARK    1  A    between atoms: C_2  and  C_3
REMARK    2  A    between atoms: C_3  and  C_4
REMARK    3  A    between atoms: C_3  and  C_13
REMARK    4  A    between atoms: C_13  and  C_14
REMARK    5  A    between atoms: C_13  and  C_21
REMARK    6  A    between atoms: C_21  and  P_22
REMARK    7  A    between atoms: C_21  and  P_26
REMARK    8  A    between atoms: P_22  and  O_24
REMARK    9  A    between atoms: P_22  and  O_25
REMARK   10  A    between atoms: P_26  and  O_28
REMARK   11  A    between atoms: P_26  and  O_29
REMARK                            x       y       z     vdW  Elec       q    Type
REMARK                         _______ _______ _______ _____ _____    ______ ____
ROOT
ATOM      1  C   UNL     1       4.287   4.999  18.510  0.00  0.00    +0.000 C 
ENDROOT
BRANCH   1   2
ATOM      2  C   UNL     1       3.609   3.685  18.976  0.00  0.00    +0.000 A 
ATOM      3  C   UNL     1       3.839   2.505  18.227  0.00  0.00    +0.000 A 
ATOM      4  C   UNL     1       3.186   1.301  18.526  0.00  0.00    +0.000 A 
ATOM      5  C   UNL     1       2.239   1.254  19.539  0.00  0.00    +0.000 A 
ATOM      6  C   UNL     1       2.045   2.382  20.332  0.00  0.00    +0.000 A 
ATOM      7  C   UNL     1       2.787   3.550  20.109  0.00  0.00    +0.000 A 
ATOM      8 CL   UNL     1       2.715   4.764  21.340  0.00  0.00    +0.000 Cl
ENDBRANCH   1   2
BRANCH   1   9
ATOM      9  C   UNL     1       3.243   5.836  17.675  0.00  0.00    +0.000 C 
BRANCH   9  10
ATOM     10  C   UNL     1       2.589   6.967  18.537  0.00  0.00    +0.000 A 
ATOM     11  N   UNL     1       2.410   6.977  19.848  0.00  0.00    +0.000 NA
ATOM     12  C   UNL     1       1.713   8.143  20.227  0.00  0.00    +0.000 A 
ATOM     13  C   UNL     1       1.091   8.401  21.472  0.00  0.00    +0.000 A 
ATOM     14  C   UNL     1       0.320   9.565  21.645  0.00  0.00    +0.000 A 
ATOM     15  C   UNL     1       0.216  10.510  20.630  0.00  0.00    +0.000 A 
ATOM     16  C   UNL     1       0.861  10.307  19.414  0.00  0.00    +0.000 A 
ATOM     17  C   UNL     1       1.537   9.094  19.222  0.00  0.00    +0.000 A 
ATOM     18  S   UNL     1       2.162   8.490  17.759  0.00  0.00    +0.000 S 
ENDBRANCH   9  10
BRANCH   9  20
ATOM     19  N   UNL     1       0.869   4.451  17.250  0.00  0.00    +0.000 NA
ATOM     20  C   UNL     1       1.946   5.079  17.443  0.00  0.00    +0.000 C 
ENDBRANCH   9  20
ENDBRANCH   1   9
BRANCH   1  21
ATOM     21  C   UNL     1       5.686   4.810  17.807  0.00  0.00    +0.000 C 
BRANCH  21  22
ATOM     22  P   UNL     1       5.996   5.547  16.156  0.00  0.00    +0.000 P 
ATOM     23  O   UNL     1       5.849   7.023  15.979  0.00  0.00    +0.000 OA
BRANCH  22  24
ATOM     24  O   UNL     1       7.478   5.042  15.806  0.00  0.00    +0.000 OA
ATOM     25  H   UNL     1       7.454   4.107  15.510  0.00  0.00    +0.000 HD
ENDBRANCH  22  24
BRANCH  22  26
ATOM     26  O   UNL     1       5.294   4.801  14.953  0.00  0.00    +0.000 OA
ATOM     27  H   UNL     1       4.368   4.549  15.130  0.00  0.00    +0.000 HD
ENDBRANCH  22  26
ENDBRANCH  21  22
BRANCH  21  28
ATOM     28  P   UNL     1       7.153   5.401  18.745  0.00  0.00    +0.000 P 
ATOM     29  O   UNL     1       7.122   5.483  20.238  0.00  0.00    +0.000 OA
BRANCH  28  30
ATOM     30  O   UNL     1       8.367   4.440  18.336  0.00  0.00    +0.000 OA
ATOM     31  H   UNL     1       9.122   4.533  18.960  0.00  0.00    +0.000 HD
ENDBRANCH  28  30
BRANCH  28  32
ATOM     32  O   UNL     1       7.618   6.782  18.115  0.00  0.00    +0.000 OA
ATOM     33  H   UNL     1       8.101   6.684  17.276  0.00  0.00    +0.000 HD
ENDBRANCH  28  32
ENDBRANCH  21  28
ENDBRANCH   1  21
TORSDOF 11
ENDMDL
MODEL 3
REMARK VINA RESULT:      -7.0      1.123      2.619
REMARK  Name = 
REMARK  11 active torsions:
REMARK  status: ('A' for Active; 'I' for Inactive)
REMARK    1  A    between atoms: C_2  and  C_3
REMARK    2  A    between atoms: C_3  and  C_4
REMARK    3  A    between atoms: C_3  and  C_13
REMARK    4  A    between atoms: C_13  and  C_14
REMARK    5  A    between atoms: C_13  and  C_21
REMARK    6  A    between atoms: C_21  and  P_22
REMARK    7  A    between atoms: C_21  and  P_26
REMARK    8  A    between atoms: P_22  and  O_24
REMARK    9  A    between atoms: P_22  and  O_25
REMARK   10  A    between atoms: P_26  and  O_28
REMARK   11  A    between atoms: P_26  and  O_29
REMARK                            x       y       z     vdW  Elec       q    Type
REMARK                         _______ _______ _______ _____ _____    ______ ____
ROOT
ATOM      1  C   UNL     1       4.314   5.777  18.545  0.00  0.00    +0.000 C 
ENDROOT
BRANCH   1   2
ATOM      2  C   UNL     1       4.054   4.257  18.707  0.00  0.00    +0.000 A 
ATOM      3  C   UNL     1       4.582   3.376  17.731  0.00  0.00    +0.000 A 
ATOM      4  C   UNL     1       4.310   2.001  17.752  0.00  0.00    +0.000 A 
ATOM      5  C   UNL     1       3.454   1.474  18.709  0.00  0.00    +0.000 A 
ATOM      6  C   UNL     1       2.977   2.307  19.718  0.00  0.00    +0.000 A 
ATOM      7  C   UNL     1       3.348   3.659  19.765  0.00  0.00    +0.000 A 
ATOM      8 CL   UNL     1       2.980   4.515  21.223  0.00  0.00    +0.000 Cl
ENDBRANCH   1   2
BRANCH   1   9
ATOM      9  C   UNL     1       3.098   6.416  17.769  0.00  0.00    +0.000 C 
BRANCH   9  10
ATOM     10  C   UNL     1       2.323   7.446  18.657  0.00  0.00    +0.000 A 
ATOM     11  N   UNL     1       2.124   7.392  19.964  0.00  0.00    +0.000 NA
ATOM     12  C   UNL     1       1.310   8.470  20.370  0.00  0.00    +0.000 A 
ATOM     13  C   UNL     1       0.647   8.621  21.610  0.00  0.00    +0.000 A 
ATOM     14  C   UNL     1      -0.236   9.698  21.809  0.00  0.00    +0.000 A 
ATOM     15  C   UNL     1      -0.416  10.665  20.825  0.00  0.00    +0.000 A 
ATOM     16  C   UNL     1       0.264  10.569  19.616  0.00  0.00    +0.000 A 
ATOM     17  C   UNL     1       1.059   9.435  19.395  0.00  0.00    +0.000 A 
ATOM     18  S   UNL     1       1.762   8.948  17.924  0.00  0.00    +0.000 S 
ENDBRANCH   9  10
BRANCH   9  20
ATOM     19  N   UNL     1       0.959   4.657  17.516  0.00  0.00    +0.000 NA
ATOM     20  C   UNL     1       1.929   5.454  17.631  0.00  0.00    +0.000 C 
ENDBRANCH   9  20
ENDBRANCH   1   9
BRANCH   1  21
ATOM     21  C   UNL     1       5.730   6.150  17.964  0.00  0.00    +0.000 C 
BRANCH  21  22
ATOM     22  P   UNL     1       7.248   5.424  18.695  0.00  0.00    +0.000 P 
ATOM     23  O   UNL     1       7.918   4.285  17.999  0.00  0.00    +0.000 OA
BRANCH  22  24
ATOM     24  O   UNL     1       8.219   6.693  18.848  0.00  0.00    +0.000 OA
ATOM     25  H   UNL     1       7.797   7.374  19.414  0.00  0.00    +0.000 HD
ENDBRANCH  22  24
BRANCH  22  26
ATOM     26  O   UNL     1       7.159   5.116  20.242  0.00  0.00    +0.000 OA
ATOM     27  H   UNL     1       7.141   4.164  20.455  0.00  0.00    +0.000 HD
ENDBRANCH  22  26
ENDBRANCH  21  22
BRANCH  21  28
ATOM     28  P   UNL     1       5.993   5.804  16.177  0.00  0.00    +0.000 P 
ATOM     29  O   UNL     1       5.492   4.535  15.564  0.00  0.00    +0.000 OA
BRANCH  28  30
ATOM     30  O   UNL     1       5.328   7.024  15.379  0.00  0.00    +0.000 OA
ATOM     31  H   UNL     1       5.662   7.070  14.455  0.00  0.00    +0.000 HD
ENDBRANCH  28  30
BRANCH  28  32
ATOM     32  O   UNL     1       7.532   6.017  15.853  0.00  0.00    +0.000 OA
ATOM     33  H   UNL     1       7.935   6.752  16.346  0.00  0.00    +0.000 HD
ENDBRANCH  28  32
ENDBRANCH  21  28
ENDBRANCH   1  21
TORSDOF 11
ENDMDL
MODEL 4
REMARK VINA RESULT:      -7.0      0.917      1.740
REMARK  Name = 
REMARK  11 active torsions:
REMARK  status: ('A' for Active; 'I' for Inactive)
REMARK    1  A    between atoms: C_2  and  C_3
REMARK    2  A    between atoms: C_3  and  C_4
REMARK    3  A    between atoms: C_3  and  C_13
REMARK    4  A    between atoms: C_13  and  C_14
REMARK    5  A    between atoms: C_13  and  C_21
REMARK    6  A    between atoms: C_21  and  P_22
REMARK    7  A    between atoms: C_21  and  P_26
REMARK    8  A    between atoms: P_22  and  O_24
REMARK    9  A    between atoms: P_22  and  O_25
REMARK   10  A    between atoms: P_26  and  O_28
REMARK   11  A    between atoms: P_26  and  O_29
REMARK                            x       y       z     vdW  Elec       q    Type
REMARK                         _______ _______ _______ _____ _____    ______ ____
ROOT
ATOM      1  C   UNL     1       4.377   5.323  18.576  0.00  0.00    +0.000 C 
ENDROOT
BRANCH   1   2
ATOM      2  C   UNL     1       3.668   4.292  19.491  0.00  0.00    +0.000 A 
ATOM      3  C   UNL     1       3.023   4.762  20.663  0.00  0.00    +0.000 A 
ATOM      4  C   UNL     1       2.445   3.884  21.590  0.00  0.00    +0.000 A 
ATOM      5  C   UNL     1       2.547   2.512  21.410  0.00  0.00    +0.000 A 
ATOM      6  C   UNL     1       3.115   2.027  20.234  0.00  0.00    +0.000 A 
ATOM      7  C   UNL     1       3.585   2.909  19.250  0.00  0.00    +0.000 A 
ATOM      8 CL   UNL     1       3.959   2.224  17.706  0.00  0.00    +0.000 Cl
ENDBRANCH   1   2
BRANCH   1   9
ATOM      9  C   UNL     1       3.322   5.896  17.552  0.00  0.00    +0.000 C 
BRANCH   9  10
ATOM     10  C   UNL     1       2.656   7.210  18.082  0.00  0.00    +0.000 A 
ATOM     11  N   UNL     1       2.460   8.336  17.417  0.00  0.00    +0.000 NA
ATOM     12  C   UNL     1       1.902   9.308  18.274  0.00  0.00    +0.000 A 
ATOM     13  C   UNL     1       1.799  10.699  18.037  0.00  0.00    +0.000 A 
ATOM     14  C   UNL     1       1.334  11.553  19.054  0.00  0.00    +0.000 A 
ATOM     15  C   UNL     1       0.903  11.042  20.274  0.00  0.00    +0.000 A 
ATOM     16  C   UNL     1       0.945   9.673  20.515  0.00  0.00    +0.000 A 
ATOM     17  C   UNL     1       1.509   8.848  19.530  0.00  0.00    +0.000 A 
ATOM     18  S   UNL     1       1.925   7.206  19.686  0.00  0.00    +0.000 S 
ENDBRANCH   9  10
BRANCH   9  20
ATOM     19  N   UNL     1       0.963   4.423  17.524  0.00  0.00    +0.000 NA
ATOM     20  C   UNL     1       2.033   5.091  17.537  0.00  0.00    +0.000 C 
ENDBRANCH   9  20
ENDBRANCH   1   9
BRANCH   1  21
ATOM     21  C   UNL     1       5.718   4.818  17.921  0.00  0.00    +0.000 C 
BRANCH  21  22
ATOM     22  P   UNL     1       6.021   5.069  16.129  0.00  0.00    +0.000 P 
ATOM     23  O   UNL     1       5.156   4.359  15.138  0.00  0.00    +0.000 OA
BRANCH  22  24
ATOM     24  O   UNL     1       5.938   6.664  15.968  0.00  0.00    +0.000 OA
ATOM     25  H   UNL     1       5.500   7.060  16.751  0.00  0.00    +0.000 HD
ENDBRANCH  22  24
BRANCH  22  26
ATOM     26  O   UNL     1       7.532   4.951  15.687  0.00  0.00    +0.000 OA
ATOM     27  H   UNL     1       8.088   5.699  15.976  0.00  0.00    +0.000 HD
ENDBRANCH  22  26
ENDBRANCH  21  22
BRANCH  21  28
ATOM     28  P   UNL     1       7.275   5.477  18.643  0.00  0.00    +0.000 P 
ATOM     29  O   UNL     1       7.759   6.848  18.292  0.00  0.00    +0.000 OA
BRANCH  28  30
ATOM     30  O   UNL     1       7.094   5.419  20.234  0.00  0.00    +0.000 OA
ATOM     31  H   UNL     1       7.803   5.924  20.693  0.00  0.00    +0.000 HD
ENDBRANCH  28  30
BRANCH  28  32
ATOM     32  O   UNL     1       8.420   4.400  18.417  0.00  0.00    +0.000 OA
ATOM     33  H   UNL     1       8.448   4.048  17.511  0.00  0.00    +0.000 HD
ENDBRANCH  28  32
ENDBRANCH  21  28
ENDBRANCH   1  21
TORSDOF 11
ENDMDL
MODEL 5
REMARK VINA RESULT:      -7.0      0.885      1.301
REMARK  Name = 
REMARK  11 active torsions:
REMARK  status: ('A' for Active; 'I' for Inactive)
REMARK    1  A    between atoms: C_2  and  C_3
REMARK    2  A    between atoms: C_3  and  C_4
REMARK    3  A    between atoms: C_3  and  C_13
REMARK    4  A    between atoms: C_13  and  C_14
REMARK    5  A    between atoms: C_13  and  C_21
REMARK    6  A    between atoms: C_21  and  P_22
REMARK    7  A    between atoms: C_21  and  P_26
REMARK    8  A    between atoms: P_22  and  O_24
REMARK    9  A    between atoms: P_22  and  O_25
REMARK   10  A    between atoms: P_26  and  O_28
REMARK   11  A    between atoms: P_26  and  O_29
REMARK                            x       y       z     vdW  Elec       q    Type
REMARK                         _______ _______ _______ _____ _____    ______ ____
ROOT
ATOM      1  C   UNL     1       4.328   5.352  18.613  0.00  0.00    +0.000 C 
ENDROOT
BRANCH   1   2
ATOM      2  C   UNL     1       3.633   4.293  19.507  0.00  0.00    +0.000 A 
ATOM      3  C   UNL     1       2.984   4.730  20.688  0.00  0.00    +0.000 A 
ATOM      4  C   UNL     1       2.418   3.826  21.597  0.00  0.00    +0.000 A 
ATOM      5  C   UNL     1       2.536   2.459  21.388  0.00  0.00    +0.000 A 
ATOM      6  C   UNL     1       3.109   2.007  20.201  0.00  0.00    +0.000 A 
ATOM      7  C   UNL     1       3.567   2.915  19.236  0.00  0.00    +0.000 A 
ATOM      8 CL   UNL     1       3.948   2.267  17.677  0.00  0.00    +0.000 Cl
ENDBRANCH   1   2
BRANCH   1   9
ATOM      9  C   UNL     1       3.266   5.930  17.599  0.00  0.00    +0.000 C 
BRANCH   9  10
ATOM     10  C   UNL     1       2.599   7.237  18.144  0.00  0.00    +0.000 A 
ATOM     11  N   UNL     1       2.385   8.365  17.486  0.00  0.00    +0.000 NA
ATOM     12  C   UNL     1       1.833   9.329  18.355  0.00  0.00    +0.000 A 
ATOM     13  C   UNL     1       1.716  10.720  18.125  0.00  0.00    +0.000 A 
ATOM     14  C   UNL     1       1.259  11.566  19.152  0.00  0.00    +0.000 A 
ATOM     15  C   UNL     1       0.850  11.048  20.376  0.00  0.00    +0.000 A 
ATOM     16  C   UNL     1       0.905   9.678  20.611  0.00  0.00    +0.000 A 
ATOM     17  C   UNL     1       1.460   8.861  19.615  0.00  0.00    +0.000 A 
ATOM     18  S   UNL     1       1.890   7.221  19.758  0.00  0.00    +0.000 S 
ENDBRANCH   9  10
BRANCH   9  20
ATOM     19  N   UNL     1       0.912   4.450  17.570  0.00  0.00    +0.000 NA
ATOM     20  C   UNL     1       1.980   5.121  17.583  0.00  0.00    +0.000 C 
ENDBRANCH   9  20
ENDBRANCH   1   9
BRANCH   1  21
ATOM     21  C   UNL     1       5.677   4.879  17.949  0.00  0.00    +0.000 C 
BRANCH  21  22
ATOM     22  P   UNL     1       6.039   5.294  16.199  0.00  0.00    +0.000 P 
ATOM     23  O   UNL     1       5.972   6.721  15.761  0.00  0.00    +0.000 OA
BRANCH  22  24
ATOM     24  O   UNL     1       7.495   4.659  15.970  0.00  0.00    +0.000 OA
ATOM     25  H   UNL     1       7.427   3.851  15.418  0.00  0.00    +0.000 HD
ENDBRANCH  22  24
BRANCH  22  26
ATOM     26  O   UNL     1       5.309   4.382  15.135  0.00  0.00    +0.000 OA
ATOM     27  H   UNL     1       4.370   4.212  15.338  0.00  0.00    +0.000 HD
ENDBRANCH  22  26
ENDBRANCH  21  22
BRANCH  21  28
ATOM     28  P   UNL     1       7.226   5.426  18.775  0.00  0.00    +0.000 P 
ATOM     29  O   UNL     1       7.275   5.613  20.258  0.00  0.00    +0.000 OA
BRANCH  28  30
ATOM     30  O   UNL     1       8.350   4.354  18.383  0.00  0.00    +0.000 OA
ATOM     31  H   UNL     1       8.301   4.118  17.429  0.00  0.00    +0.000 HD
ENDBRANCH  28  30
BRANCH  28  32
ATOM     32  O   UNL     1       7.753   6.724  18.027  0.00  0.00    +0.000 OA
ATOM     33  H   UNL     1       7.754   7.520  18.584  0.00  0.00    +0.000 HD
ENDBRANCH  28  32
ENDBRANCH  21  28
ENDBRANCH   1  21
TORSDOF 11
ENDMDL
MODEL 6
REMARK VINA RESULT:      -6.6      7.024     10.010
REMARK  Name = 
REMARK  11 active torsions:
REMARK  status: ('A' for Active; 'I' for Inactive)
REMARK    1  A    between atoms: C_2  and  C_3
REMARK    2  A    between atoms: C_3  and  C_4
REMARK    3  A    between atoms: C_3  and  C_13
REMARK    4  A    between atoms: C_13  and  C_14
REMARK    5  A    between atoms: C_13  and  C_21
REMARK    6  A    between atoms: C_21  and  P_22
REMARK    7  A    between atoms: C_21  and  P_26
REMARK    8  A    between atoms: P_22  and  O_24
REMARK    9  A    between atoms: P_22  and  O_25
REMARK   10  A    between atoms: P_26  and  O_28
REMARK   11  A    between atoms: P_26  and  O_29
REMARK                            x       y       z     vdW  Elec       q    Type
REMARK                         _______ _______ _______ _____ _____    ______ ____
ROOT
ATOM      1  C   UNL     1      -1.512  12.308  20.198  0.00  0.00    +0.000 C 
ENDROOT
BRANCH   1   2
ATOM      2  C   UNL     1      -1.615  13.307  21.379  0.00  0.00    +0.000 A 
ATOM      3  C   UNL     1      -1.764  14.685  21.085  0.00  0.00    +0.000 A 
ATOM      4  C   UNL     1      -1.766  15.659  22.092  0.00  0.00    +0.000 A 
ATOM      5  C   UNL     1      -1.558  15.296  23.415  0.00  0.00    +0.000 A 
ATOM      6  C   UNL     1      -1.478  13.943  23.737  0.00  0.00    +0.000 A 
ATOM      7  C   UNL     1      -1.597  12.962  22.742  0.00  0.00    +0.000 A 
ATOM      8 CL   UNL     1      -1.817  11.332  23.280  0.00  0.00    +0.000 Cl
ENDBRANCH   1   2
BRANCH   1   9
ATOM      9  C   UNL     1      -0.063  12.406  19.581  0.00  0.00    +0.000 C 
BRANCH   9  10
ATOM     10  C   UNL     1       0.623  11.002  19.493  0.00  0.00    +0.000 A 
ATOM     11  N   UNL     1       1.310  10.505  18.477  0.00  0.00    +0.000 NA
ATOM     12  C   UNL     1       1.696   9.179  18.762  0.00  0.00    +0.000 A 
ATOM     13  C   UNL     1       2.193   8.218  17.851  0.00  0.00    +0.000 A 
ATOM     14  C   UNL     1       2.409   6.893  18.273  0.00  0.00    +0.000 A 
ATOM     15  C   UNL     1       2.208   6.525  19.599  0.00  0.00    +0.000 A 
ATOM     16  C   UNL     1       1.769   7.462  20.528  0.00  0.00    +0.000 A 
ATOM     17  C   UNL     1       1.460   8.751  20.068  0.00  0.00    +0.000 A 
ATOM     18  S   UNL     1       0.658   9.980  20.929  0.00  0.00    +0.000 S 
ENDBRANCH   9  10
BRANCH   9  20
ATOM     19  N   UNL     1       1.783  13.466  21.371  0.00  0.00    +0.000 NA
ATOM     20  C   UNL     1       0.945  12.985  20.560  0.00  0.00    +0.000 C 
ENDBRANCH   9  20
ENDBRANCH   1   9
BRANCH   1  21
ATOM     21  C   UNL     1      -2.680  12.403  19.144  0.00  0.00    +0.000 C 
BRANCH  21  22
ATOM     22  P   UNL     1      -2.816  11.158  17.803  0.00  0.00    +0.000 P 
ATOM     23  O   UNL     1      -3.329   9.793  18.128  0.00  0.00    +0.000 OA
BRANCH  22  24
ATOM     24  O   UNL     1      -3.727  11.900  16.710  0.00  0.00    +0.000 OA
ATOM     25  H   UNL     1      -4.195  11.240  16.157  0.00  0.00    +0.000 HD
ENDBRANCH  22  24
BRANCH  22  26
ATOM     26  O   UNL     1      -1.542  11.035  16.878  0.00  0.00    +0.000 OA
ATOM     27  H   UNL     1      -0.787  11.581  17.170  0.00  0.00    +0.000 HD
ENDBRANCH  22  26
ENDBRANCH  21  22
BRANCH  21  28
ATOM     28  P   UNL     1      -4.389  12.390  19.821  0.00  0.00    +0.000 P 
ATOM     29  O   UNL     1      -4.637  12.064  21.259  0.00  0.00    +0.000 OA
BRANCH  28  30
ATOM     30  O   UNL     1      -4.997  13.846  19.541  0.00  0.00    +0.000 OA
ATOM     31  H   UNL     1      -5.355  13.914  18.628  0.00  0.00    +0.000 HD
ENDBRANCH  28  30
BRANCH  28  32
ATOM     32  O   UNL     1      -5.288  11.486  18.875  0.00  0.00    +0.000 OA
ATOM     33  H   UNL     1      -4.869  11.277  18.023  0.00  0.00    +0.000 HD
ENDBRANCH  28  32
ENDBRANCH  21  28
ENDBRANCH   1  21
TORSDOF 11
ENDMDL
MODEL 7
REMARK VINA RESULT:      -6.6      3.820      6.707
REMARK  Name = 
REMARK  11 active torsions:
REMARK  status: ('A' for Active; 'I' for Inactive)
REMARK    1  A    between atoms: C_2  and  C_3
REMARK    2  A    between atoms: C_3  and  C_4
REMARK    3  A    between atoms: C_3  and  C_13
REMARK    4  A    between atoms: C_13  and  C_14
REMARK    5  A    between atoms: C_13  and  C_21
REMARK    6  A    between atoms: C_21  and  P_22
REMARK    7  A    between atoms: C_21  and  P_26
REMARK    8  A    between atoms: P_22  and  O_24
REMARK    9  A    between atoms: P_22  and  O_25
REMARK   10  A    between atoms: P_26  and  O_28
REMARK   11  A    between atoms: P_26  and  O_29
REMARK                            x       y       z     vdW  Elec       q    Type
REMARK                         _______ _______ _______ _____ _____    ______ ____
ROOT
ATOM      1  C   UNL     1       4.274   5.572  19.015  0.00  0.00    +0.000 C 
ENDROOT
BRANCH   1   2
ATOM      2  C   UNL     1       3.179   6.669  19.005  0.00  0.00    +0.000 A 
ATOM      3  C   UNL     1       3.135   7.568  17.911  0.00  0.00    +0.000 A 
ATOM      4  C   UNL     1       2.239   8.645  17.876  0.00  0.00    +0.000 A 
ATOM      5  C   UNL     1       1.404   8.895  18.956  0.00  0.00    +0.000 A 
ATOM      6  C   UNL     1       1.380   7.987  20.012  0.00  0.00    +0.000 A 
ATOM      7  C   UNL     1       2.191   6.842  19.991  0.00  0.00    +0.000 A 
ATOM      8 CL   UNL     1       1.847   5.624  21.171  0.00  0.00    +0.000 Cl
ENDBRANCH   1   2
BRANCH   1   9
ATOM      9  C   UNL     1       5.578   6.157  18.348  0.00  0.00    +0.000 C 
BRANCH   9  10
ATOM     10  C   UNL     1       5.759   5.641  16.881  0.00  0.00    +0.000 A 
ATOM     11  N   UNL     1       4.845   5.075  16.110  0.00  0.00    +0.000 NA
ATOM     12  C   UNL     1       5.427   4.681  14.888  0.00  0.00    +0.000 A 
ATOM     13  C   UNL     1       4.875   3.811  13.918  0.00  0.00    +0.000 A 
ATOM     14  C   UNL     1       5.644   3.414  12.809  0.00  0.00    +0.000 A 
ATOM     15  C   UNL     1       6.923   3.922  12.609  0.00  0.00    +0.000 A 
ATOM     16  C   UNL     1       7.471   4.820  13.519  0.00  0.00    +0.000 A 
ATOM     17  C   UNL     1       6.732   5.123  14.672  0.00  0.00    +0.000 A 
ATOM     18  S   UNL     1       7.280   5.959  16.048  0.00  0.00    +0.000 S 
ENDBRANCH   9  10
BRANCH   9  20
ATOM     19  N   UNL     1       7.894   4.959  19.314  0.00  0.00    +0.000 NA
ATOM     20  C   UNL     1       6.844   5.502  18.876  0.00  0.00    +0.000 C 
ENDBRANCH   9  20
ENDBRANCH   1   9
BRANCH   1  21
ATOM     21  C   UNL     1       3.819   4.174  18.446  0.00  0.00    +0.000 C 
BRANCH  21  22
ATOM     22  P   UNL     1       3.898   2.677  19.505  0.00  0.00    +0.000 P 
ATOM     23  O   UNL     1       3.107   2.640  20.772  0.00  0.00    +0.000 OA
BRANCH  22  24
ATOM     24  O   UNL     1       3.482   1.499  18.498  0.00  0.00    +0.000 OA
ATOM     25  H   UNL     1       4.122   1.447  17.757  0.00  0.00    +0.000 HD
ENDBRANCH  22  24
BRANCH  22  26
ATOM     26  O   UNL     1       5.356   2.133  19.778  0.00  0.00    +0.000 OA
ATOM     27  H   UNL     1       5.419   1.544  20.554  0.00  0.00    +0.000 HD
ENDBRANCH  22  26
ENDBRANCH  21  22
BRANCH  21  28
ATOM     28  P   UNL     1       2.095   4.075  17.815  0.00  0.00    +0.000 P 
ATOM     29  O   UNL     1       1.363   5.312  17.398  0.00  0.00    +0.000 OA
BRANCH  28  30
ATOM     30  O   UNL     1       2.131   3.085  16.556  0.00  0.00    +0.000 OA
ATOM     31  H   UNL     1       1.534   2.316  16.689  0.00  0.00    +0.000 HD
ENDBRANCH  28  30
BRANCH  28  32
ATOM     32  O   UNL     1       1.236   3.235  18.852  0.00  0.00    +0.000 OA
ATOM     33  H   UNL     1       1.747   2.925  19.619  0.00  0.00    +0.000 HD
ENDBRANCH  28  32
ENDBRANCH  21  28
ENDBRANCH   1  21
TORSDOF 11
ENDMDL
MODEL 8
REMARK VINA RESULT:      -6.5      7.586      9.882
REMARK  Name = 
REMARK  11 active torsions:
REMARK  status: ('A' for Active; 'I' for Inactive)
REMARK    1  A    between atoms: C_2  and  C_3
REMARK    2  A    between atoms: C_3  and  C_4
REMARK    3  A    between atoms: C_3  and  C_13
REMARK    4  A    between atoms: C_13  and  C_14
REMARK    5  A    between atoms: C_13  and  C_21
REMARK    6  A    between atoms: C_21  and  P_22
REMARK    7  A    between atoms: C_21  and  P_26
REMARK    8  A    between atoms: P_22  and  O_24
REMARK    9  A    between atoms: P_22  and  O_25
REMARK   10  A    between atoms: P_26  and  O_28
REMARK   11  A    between atoms: P_26  and  O_29
REMARK                            x       y       z     vdW  Elec       q    Type
REMARK                         _______ _______ _______ _____ _____    ______ ____
ROOT
ATOM      1  C   UNL     1      -0.116  12.626  20.175  0.00  0.00    +0.000 C 
ENDROOT
BRANCH   1   2
ATOM      2  C   UNL     1      -0.124  11.474  21.212  0.00  0.00    +0.000 A 
ATOM      3  C   UNL     1       0.556  10.273  20.890  0.00  0.00    +0.000 A 
ATOM      4  C   UNL     1       0.514   9.152  21.731  0.00  0.00    +0.000 A 
ATOM      5  C   UNL     1      -0.256   9.174  22.885  0.00  0.00    +0.000 A 
ATOM      6  C   UNL     1      -0.878  10.364  23.258  0.00  0.00    +0.000 A 
ATOM      7  C   UNL     1      -0.736  11.520  22.477  0.00  0.00    +0.000 A 
ATOM      8 CL   UNL     1      -1.259  13.008  23.190  0.00  0.00    +0.000 Cl
ENDBRANCH   1   2
BRANCH   1   9
ATOM      9  C   UNL     1       0.072  13.992  20.941  0.00  0.00    +0.000 C 
BRANCH   9  10
ATOM     10  C   UNL     1       0.173  15.200  19.952  0.00  0.00    +0.000 A 
ATOM     11  N   UNL     1      -0.741  16.128  19.719  0.00  0.00    +0.000 NA
ATOM     12  C   UNL     1      -0.295  16.995  18.700  0.00  0.00    +0.000 A 
ATOM     13  C   UNL     1      -1.068  17.932  17.975  0.00  0.00    +0.000 A 
ATOM     14  C   UNL     1      -0.497  18.631  16.896  0.00  0.00    +0.000 A 
ATOM     15  C   UNL     1       0.845  18.468  16.571  0.00  0.00    +0.000 A 
ATOM     16  C   UNL     1       1.642  17.592  17.300  0.00  0.00    +0.000 A 
ATOM     17  C   UNL     1       1.032  16.827  18.305  0.00  0.00    +0.000 A 
ATOM     18  S   UNL     1       1.708  15.509  19.141  0.00  0.00    +0.000 S 
ENDBRANCH   9  10
BRANCH   9  20
ATOM     19  N   UNL     1       2.642  14.294  21.958  0.00  0.00    +0.000 NA
ATOM     20  C   UNL     1       1.476  14.157  21.497  0.00  0.00    +0.000 C 
ENDBRANCH   9  20
ENDBRANCH   1   9
BRANCH   1  21
ATOM     21  C   UNL     1      -1.316  12.608  19.154  0.00  0.00    +0.000 C 
BRANCH  21  22
ATOM     22  P   UNL     1      -1.567  11.163  18.051  0.00  0.00    +0.000 P 
ATOM     23  O   UNL     1      -2.573  10.125  18.429  0.00  0.00    +0.000 OA
BRANCH  22  24
ATOM     24  O   UNL     1      -1.903  11.841  16.636  0.00  0.00    +0.000 OA
ATOM     25  H   UNL     1      -2.790  11.557  16.327  0.00  0.00    +0.000 HD
ENDBRANCH  22  24
BRANCH  22  26
ATOM     26  O   UNL     1      -0.239  10.457  17.568  0.00  0.00    +0.000 OA
ATOM     27  H   UNL     1       0.422  11.071  17.196  0.00  0.00    +0.000 HD
ENDBRANCH  22  26
ENDBRANCH  21  22
BRANCH  21  28
ATOM     28  P   UNL     1      -2.997  12.807  19.871  0.00  0.00    +0.000 P 
ATOM     29  O   UNL     1      -3.390  12.068  21.112  0.00  0.00    +0.000 OA
BRANCH  28  30
ATOM     30  O   UNL     1      -3.183  14.372  20.159  0.00  0.00    +0.000 OA
ATOM     31  H   UNL     1      -4.097  14.574  20.462  0.00  0.00    +0.000 HD
ENDBRANCH  28  30
BRANCH  28  32
ATOM     32  O   UNL     1      -4.060  12.571  18.716  0.00  0.00    +0.000 OA
ATOM     33  H   UNL     1      -3.737  11.992  18.003  0.00  0.00    +0.000 HD
ENDBRANCH  28  32
ENDBRANCH  21  28
ENDBRANCH   1  21
TORSDOF 11
ENDMDL
MODEL 9
REMARK VINA RESULT:      -6.4      8.574     10.727
REMARK  Name = 
REMARK  11 active torsions:
REMARK  status: ('A' for Active; 'I' for Inactive)
REMARK    1  A    between atoms: C_2  and  C_3
REMARK    2  A    between atoms: C_3  and  C_4
REMARK    3  A    between atoms: C_3  and  C_13
REMARK    4  A    between atoms: C_13  and  C_14
REMARK    5  A    between atoms: C_13  and  C_21
REMARK    6  A    between atoms: C_21  and  P_22
REMARK    7  A    between atoms: C_21  and  P_26
REMARK    8  A    between atoms: P_22  and  O_24
REMARK    9  A    between atoms: P_22  and  O_25
REMARK   10  A    between atoms: P_26  and  O_28
REMARK   11  A    between atoms: P_26  and  O_29
REMARK                            x       y       z     vdW  Elec       q    Type
REMARK                         _______ _______ _______ _____ _____    ______ ____
ROOT
ATOM      1  C   UNL     1      -1.602  12.427  21.084  0.00  0.00    +0.000 C 
ENDROOT
BRANCH   1   2
ATOM      2  C   UNL     1      -0.822  11.109  21.324  0.00  0.00    +0.000 A 
ATOM      3  C   UNL     1      -0.704  10.627  22.651  0.00  0.00    +0.000 A 
ATOM      4  C   UNL     1       0.066   9.498  22.962  0.00  0.00    +0.000 A 
ATOM      5  C   UNL     1       0.792   8.854  21.971  0.00  0.00    +0.000 A 
ATOM      6  C   UNL     1       0.639   9.266  20.649  0.00  0.00    +0.000 A 
ATOM      7  C   UNL     1      -0.226  10.320  20.323  0.00  0.00    +0.000 A 
ATOM      8 CL   UNL     1      -0.596  10.532  18.646  0.00  0.00    +0.000 Cl
ENDBRANCH   1   2
BRANCH   1   9
ATOM      9  C   UNL     1      -0.752  13.626  21.657  0.00  0.00    +0.000 C 
BRANCH   9  10
ATOM     10  C   UNL     1      -0.856  14.894  20.745  0.00  0.00    +0.000 A 
ATOM     11  N   UNL     1      -1.648  15.941  20.911  0.00  0.00    +0.000 NA
ATOM     12  C   UNL     1      -1.495  16.833  19.829  0.00  0.00    +0.000 A 
ATOM     13  C   UNL     1      -2.340  17.915  19.487  0.00  0.00    +0.000 A 
ATOM     14  C   UNL     1      -2.120  18.630  18.296  0.00  0.00    +0.000 A 
ATOM     15  C   UNL     1      -1.034  18.337  17.477  0.00  0.00    +0.000 A 
ATOM     16  C   UNL     1      -0.157  17.312  17.817  0.00  0.00    +0.000 A 
ATOM     17  C   UNL     1      -0.451  16.542  18.952  0.00  0.00    +0.000 A 
ATOM     18  S   UNL     1       0.292  15.086  19.421  0.00  0.00    +0.000 S 
ENDBRANCH   9  10
BRANCH   9  20
ATOM     19  N   UNL     1       1.979  13.271  21.271  0.00  0.00    +0.000 NA
ATOM     20  C   UNL     1       0.740  13.432  21.446  0.00  0.00    +0.000 C 
ENDBRANCH   9  20
ENDBRANCH   1   9
BRANCH   1  21
ATOM     21  C   UNL     1      -3.105  12.404  21.558  0.00  0.00    +0.000 C 
BRANCH  21  22
ATOM     22  P   UNL     1      -3.628  13.389  23.016  0.00  0.00    +0.000 P 
ATOM     23  O   UNL     1      -4.249  14.730  22.802  0.00  0.00    +0.000 OA
BRANCH  22  24
ATOM     24  O   UNL     1      -4.608  12.387  23.797  0.00  0.00    +0.000 OA
ATOM     25  H   UNL     1      -4.880  12.781  24.653  0.00  0.00    +0.000 HD
ENDBRANCH  22  24
BRANCH  22  26
ATOM     26  O   UNL     1      -2.556  13.483  24.172  0.00  0.00    +0.000 OA
ATOM     27  H   UNL     1      -2.903  13.858  25.003  0.00  0.00    +0.000 HD
ENDBRANCH  22  26
ENDBRANCH  21  22
BRANCH  21  28
ATOM     28  P   UNL     1      -4.358  12.913  20.313  0.00  0.00    +0.000 P 
ATOM     29  O   UNL     1      -4.520  12.150  19.037  0.00  0.00    +0.000 OA
BRANCH  28  30
ATOM     30  O   UNL     1      -5.772  12.904  21.066  0.00  0.00    +0.000 OA
ATOM     31  H   UNL     1      -6.169  13.804  21.093  0.00  0.00    +0.000 HD
ENDBRANCH  28  30
BRANCH  28  32
ATOM     32  O   UNL     1      -4.166  14.462  20.023  0.00  0.00    +0.000 OA
ATOM     33  H   UNL     1      -4.049  14.997  20.827  0.00  0.00    +0.000 HD
ENDBRANCH  28  32
ENDBRANCH  21  28
ENDBRANCH   1  21
TORSDOF 11
ENDMDL
