MODEL 1
REMARK VINA RESULT:      -8.8      0.000      0.000
REMARK  Name = 
REMARK  7 active torsions:
REMARK  status: ('A' for Active; 'I' for Inactive)
REMARK    1  A    between atoms: C_1  and  C_2
REMARK    2  A    between atoms: N_4  and  C_5
REMARK    3  A    between atoms: C_5  and  N_6
REMARK    4  A    between atoms: C_8  and  C_9
REMARK    5  A    between atoms: C_12  and  C_13
REMARK    6  A    between atoms: C_16  and  C_17
REMARK    7  A    between atoms: C_18  and  N_19
REMARK                            x       y       z     vdW  Elec       q    Type
REMARK                         _______ _______ _______ _____ _____    ______ ____
ROOT
ATOM      1  C   UNL     1       2.631   6.753  18.790  0.00  0.00    +0.000 A 
ATOM      2  C   UNL     1       2.282   7.987  18.228  0.00  0.00    +0.000 A 
ATOM      3  C   UNL     1       1.541   8.925  18.956  0.00  0.00    +0.000 A 
ATOM      4  C   UNL     1       1.104   8.659  20.263  0.00  0.00    +0.000 A 
ATOM      5  C   UNL     1       1.451   7.414  20.811  0.00  0.00    +0.000 A 
ATOM      6  C   UNL     1       2.205   6.480  20.091  0.00  0.00    +0.000 A 
ENDROOT
BRANCH   1   9
ATOM      7  N   UNL     1       5.081   4.721  17.011  0.00  0.00    +0.000 N 
ATOM      8  C   UNL     1       4.706   5.802  17.733  0.00  0.00    +0.000 A 
ATOM      9  C   UNL     1       3.402   5.775  18.031  0.00  0.00    +0.000 A 
ATOM     10  C   UNL     1       2.915   4.492  17.430  0.00  0.00    +0.000 A 
ATOM     11  O   UNL     1       1.779   4.054  17.463  0.00  0.00    +0.000 OA
ATOM     12  O   UNL     1       3.996   3.867  16.836  0.00  0.00    +0.000 OA
BRANCH   7  13
ATOM     13  C   UNL     1       6.354   4.295  16.509  0.00  0.00    +0.000 C 
BRANCH  13  17
ATOM     14  C   UNL     1       6.367   3.801  12.794  0.00  0.00    +0.000 C 
ATOM     15  C   UNL     1       6.741   4.398  14.120  0.00  0.00    +0.000 C 
ATOM     16  O   UNL     1       7.521   5.337  14.231  0.00  0.00    +0.000 OA
ATOM     17  N   UNL     1       6.141   3.789  15.191  0.00  0.00    +0.000 N 
ATOM     18  H   UNL     1       5.393   3.123  15.067  0.00  0.00    +0.000 HD
ENDBRANCH  13  17
ENDBRANCH   7  13
ENDBRANCH   1   9
BRANCH   4  19
ATOM     19  C   UNL     1       0.304   9.643  21.028  0.00  0.00    +0.000 A 
ATOM     20  C   UNL     1      -0.119   9.387  22.343  0.00  0.00    +0.000 A 
ATOM     21  C   UNL     1      -0.864  10.325  23.068  0.00  0.00    +0.000 A 
ATOM     22  C   UNL     1      -1.189  11.563  22.510  0.00  0.00    +0.000 A 
ATOM     23  C   UNL     1      -0.798  11.823  21.194  0.00  0.00    +0.000 A 
ATOM     24  C   UNL     1      -0.064  10.878  20.467  0.00  0.00    +0.000 A 
BRANCH  22  25
ATOM     25  C   UNL     1      -1.948  12.529  23.314  0.00  0.00    +0.000 C 
ATOM     26  C   UNL     1      -3.281  12.629  23.246  0.00  0.00    +0.000 C 
BRANCH  26  27
ATOM     27  N   UNL     1      -3.974  13.623  24.029  0.00  0.00    +0.000 N 
ATOM     28  O   UNL     1      -5.211  13.658  23.997  0.00  0.00    +0.000 OA
ATOM     29  O   UNL     1      -3.254  14.382  24.688  0.00  0.00    +0.000 OA
ENDBRANCH  26  27
ENDBRANCH  22  25
ENDBRANCH   4  19
TORSDOF 6
ENDMDL
MODEL 2
REMARK VINA RESULT:      -8.8      0.173      1.086
REMARK  Name = 
REMARK  7 active torsions:
REMARK  status: ('A' for Active; 'I' for Inactive)
REMARK    1  A    between atoms: C_1  and  C_2
REMARK    2  A    between atoms: N_4  and  C_5
REMARK    3  A    between atoms: C_5  and  N_6
REMARK    4  A    between atoms: C_8  and  C_9
REMARK    5  A    between atoms: C_12  and  C_13
REMARK    6  A    between atoms: C_16  and  C_17
REMARK    7  A    between atoms: C_18  and  N_19
REMARK                            x       y       z     vdW  Elec       q    Type
REMARK                         _______ _______ _______ _____ _____    ______ ____
ROOT
ATOM      1  C   UNL     1       2.556   6.799  18.798  0.00  0.00    +0.000 A 
ATOM      2  C   UNL     1       2.156   6.562  20.119  0.00  0.00    +0.000 A 
ATOM      3  C   UNL     1       1.412   7.514  20.827  0.00  0.00    +0.000 A 
ATOM      4  C   UNL     1       1.058   8.744  20.251  0.00  0.00    +0.000 A 
ATOM      5  C   UNL     1       1.475   8.974  18.930  0.00  0.00    +0.000 A 
ATOM      6  C   UNL     1       2.205   8.018  18.213  0.00  0.00    +0.000 A 
ENDROOT
BRANCH   1   9
ATOM      7  N   UNL     1       5.017   4.736  17.071  0.00  0.00    +0.000 N 
ATOM      8  C   UNL     1       4.638   5.829  17.774  0.00  0.00    +0.000 A 
ATOM      9  C   UNL     1       3.332   5.808  18.060  0.00  0.00    +0.000 A 
ATOM     10  C   UNL     1       2.847   4.517  17.475  0.00  0.00    +0.000 A 
ATOM     11  O   UNL     1       1.710   4.082  17.504  0.00  0.00    +0.000 OA
ATOM     12  O   UNL     1       3.932   3.882  16.900  0.00  0.00    +0.000 OA
BRANCH   7  13
ATOM     13  C   UNL     1       6.294   4.300  16.587  0.00  0.00    +0.000 C 
BRANCH  13  17
ATOM     14  C   UNL     1       6.370   3.796  12.874  0.00  0.00    +0.000 C 
ATOM     15  C   UNL     1       6.731   4.387  14.207  0.00  0.00    +0.000 C 
ATOM     16  O   UNL     1       7.532   5.308  14.331  0.00  0.00    +0.000 OA
ATOM     17  N   UNL     1       6.095   3.796  15.266  0.00  0.00    +0.000 N 
ATOM     18  H   UNL     1       5.334   3.148  15.128  0.00  0.00    +0.000 HD
ENDBRANCH  13  17
ENDBRANCH   7  13
ENDBRANCH   1   9
BRANCH   4  19
ATOM     19  C   UNL     1       0.288   9.759  21.005  0.00  0.00    +0.000 A 
ATOM     20  C   UNL     1      -0.096   9.551  22.341  0.00  0.00    +0.000 A 
ATOM     21  C   UNL     1      -0.814  10.518  23.056  0.00  0.00    +0.000 A 
ATOM     22  C   UNL     1      -1.148  11.739  22.465  0.00  0.00    +0.000 A 
ATOM     23  C   UNL     1      -0.796  11.950  21.129  0.00  0.00    +0.000 A 
ATOM     24  C   UNL     1      -0.090  10.976  20.414  0.00  0.00    +0.000 A 
BRANCH  22  25
ATOM     25  C   UNL     1      -1.876  12.737  23.258  0.00  0.00    +0.000 C 
ATOM     26  C   UNL     1      -3.186  12.631  23.517  0.00  0.00    +0.000 C 
BRANCH  26  27
ATOM     27  N   UNL     1      -3.861  13.661  24.269  0.00  0.00    +0.000 N 
ATOM     28  O   UNL     1      -3.249  14.242  25.174  0.00  0.00    +0.000 OA
ATOM     29  O   UNL     1      -5.030  13.886  23.936  0.00  0.00    +0.000 OA
ENDBRANCH  26  27
ENDBRANCH  22  25
ENDBRANCH   4  19
TORSDOF 6
ENDMDL
MODEL 3
REMARK VINA RESULT:      -8.7      0.333      1.322
REMARK  Name = 
REMARK  7 active torsions:
REMARK  status: ('A' for Active; 'I' for Inactive)
REMARK    1  A    between atoms: C_1  and  C_2
REMARK    2  A    between atoms: N_4  and  C_5
REMARK    3  A    between atoms: C_5  and  N_6
REMARK    4  A    between atoms: C_8  and  C_9
REMARK    5  A    between atoms: C_12  and  C_13
REMARK    6  A    between atoms: C_16  and  C_17
REMARK    7  A    between atoms: C_18  and  N_19
REMARK                            x       y       z     vdW  Elec       q    Type
REMARK                         _______ _______ _______ _____ _____    ______ ____
ROOT
ATOM      1  C   UNL     1       2.685   6.570  18.682  0.00  0.00    +0.000 A 
ATOM      2  C   UNL     1       2.263   6.272  19.983  0.00  0.00    +0.000 A 
ATOM      3  C   UNL     1       1.522   7.197  20.729  0.00  0.00    +0.000 A 
ATOM      4  C   UNL     1       1.192   8.459  20.211  0.00  0.00    +0.000 A 
ATOM      5  C   UNL     1       1.630   8.750  18.909  0.00  0.00    +0.000 A 
ATOM      6  C   UNL     1       2.358   7.821  18.155  0.00  0.00    +0.000 A 
ENDROOT
BRANCH   1   9
ATOM      7  N   UNL     1       5.135   4.586  16.849  0.00  0.00    +0.000 N 
ATOM      8  C   UNL     1       4.755   5.660  17.580  0.00  0.00    +0.000 A 
ATOM      9  C   UNL     1       3.459   5.607  17.906  0.00  0.00    +0.000 A 
ATOM     10  C   UNL     1       2.983   4.315  17.315  0.00  0.00    +0.000 A 
ATOM     11  O   UNL     1       1.857   3.855  17.371  0.00  0.00    +0.000 OA
ATOM     12  O   UNL     1       4.064   3.712  16.697  0.00  0.00    +0.000 OA
BRANCH   7  13
ATOM     13  C   UNL     1       6.406   4.185  16.320  0.00  0.00    +0.000 C 
BRANCH  13  17
ATOM     14  C   UNL     1       6.185   3.489  12.644  0.00  0.00    +0.000 C 
ATOM     15  C   UNL     1       6.574   4.208  13.904  0.00  0.00    +0.000 C 
ATOM     16  O   UNL     1       7.212   5.255  13.903  0.00  0.00    +0.000 OA
ATOM     17  N   UNL     1       6.162   3.580  15.050  0.00  0.00    +0.000 N 
ATOM     18  H   UNL     1       5.514   2.807  15.022  0.00  0.00    +0.000 HD
ENDBRANCH  13  17
ENDBRANCH   7  13
ENDBRANCH   1   9
BRANCH   4  19
ATOM     19  C   UNL     1       0.424   9.445  21.005  0.00  0.00    +0.000 A 
ATOM     20  C   UNL     1      -0.049  10.641  20.438  0.00  0.00    +0.000 A 
ATOM     21  C   UNL     1      -0.786  11.566  21.188  0.00  0.00    +0.000 A 
ATOM     22  C   UNL     1      -1.098  11.312  22.526  0.00  0.00    +0.000 A 
ATOM     23  C   UNL     1      -0.613  10.140  23.111  0.00  0.00    +0.000 A 
ATOM     24  C   UNL     1       0.135   9.224  22.362  0.00  0.00    +0.000 A 
BRANCH  22  25
ATOM     25  C   UNL     1      -1.896  12.294  23.269  0.00  0.00    +0.000 C 
ATOM     26  C   UNL     1      -3.135  12.641  22.898  0.00  0.00    +0.000 C 
BRANCH  26  27
ATOM     27  N   UNL     1      -3.861  13.642  23.642  0.00  0.00    +0.000 N 
ATOM     28  O   UNL     1      -4.978  13.360  24.095  0.00  0.00    +0.000 OA
ATOM     29  O   UNL     1      -3.291  14.731  23.770  0.00  0.00    +0.000 OA
ENDBRANCH  26  27
ENDBRANCH  22  25
ENDBRANCH   4  19
TORSDOF 6
ENDMDL
MODEL 4
REMARK VINA RESULT:      -8.6      0.534      1.129
REMARK  Name = 
REMARK  7 active torsions:
REMARK  status: ('A' for Active; 'I' for Inactive)
REMARK    1  A    between atoms: C_1  and  C_2
REMARK    2  A    between atoms: N_4  and  C_5
REMARK    3  A    between atoms: C_5  and  N_6
REMARK    4  A    between atoms: C_8  and  C_9
REMARK    5  A    between atoms: C_12  and  C_13
REMARK    6  A    between atoms: C_16  and  C_17
REMARK    7  A    between atoms: C_18  and  N_19
REMARK                            x       y       z     vdW  Elec       q    Type
REMARK                         _______ _______ _______ _____ _____    ______ ____
ROOT
ATOM      1  C   UNL     1       2.652   6.709  18.770  0.00  0.00    +0.000 A 
ATOM      2  C   UNL     1       2.320   7.960  18.238  0.00  0.00    +0.000 A 
ATOM      3  C   UNL     1       1.584   8.887  18.986  0.00  0.00    +0.000 A 
ATOM      4  C   UNL     1       1.135   8.592  20.283  0.00  0.00    +0.000 A 
ATOM      5  C   UNL     1       1.466   7.329  20.801  0.00  0.00    +0.000 A 
ATOM      6  C   UNL     1       2.216   6.406  20.062  0.00  0.00    +0.000 A 
ENDROOT
BRANCH   1   9
ATOM      7  N   UNL     1       5.085   4.713  16.927  0.00  0.00    +0.000 N 
ATOM      8  C   UNL     1       4.713   5.789  17.660  0.00  0.00    +0.000 A 
ATOM      9  C   UNL     1       3.418   5.742  17.991  0.00  0.00    +0.000 A 
ATOM     10  C   UNL     1       2.934   4.453  17.401  0.00  0.00    +0.000 A 
ATOM     11  O   UNL     1       1.806   3.998  17.462  0.00  0.00    +0.000 OA
ATOM     12  O   UNL     1       4.009   3.844  16.779  0.00  0.00    +0.000 OA
BRANCH   7  13
ATOM     13  C   UNL     1       6.352   4.307  16.393  0.00  0.00    +0.000 C 
BRANCH  13  17
ATOM     14  C   UNL     1       6.156   3.564  12.725  0.00  0.00    +0.000 C 
ATOM     15  C   UNL     1       6.559   4.283  13.980  0.00  0.00    +0.000 C 
ATOM     16  O   UNL     1       7.248   5.298  13.974  0.00  0.00    +0.000 OA
ATOM     17  N   UNL     1       6.099   3.694  15.129  0.00  0.00    +0.000 N 
ATOM     18  H   UNL     1       5.415   2.953  15.102  0.00  0.00    +0.000 HD
ENDBRANCH  13  17
ENDBRANCH   7  13
ENDBRANCH   1   9
BRANCH   4  19
ATOM     19  C   UNL     1       0.341   9.565  21.068  0.00  0.00    +0.000 A 
ATOM     20  C   UNL     1      -0.109  10.772  20.508  0.00  0.00    +0.000 A 
ATOM     21  C   UNL     1      -0.871  11.684  21.248  0.00  0.00    +0.000 A 
ATOM     22  C   UNL     1      -1.232  11.405  22.568  0.00  0.00    +0.000 A 
ATOM     23  C   UNL     1      -0.770  10.221  23.148  0.00  0.00    +0.000 A 
ATOM     24  C   UNL     1       0.003   9.318  22.408  0.00  0.00    +0.000 A 
BRANCH  22  25
ATOM     25  C   UNL     1      -2.054  12.375  23.301  0.00  0.00    +0.000 C 
ATOM     26  C   UNL     1      -2.329  13.594  22.819  0.00  0.00    +0.000 C 
BRANCH  26  27
ATOM     27  N   UNL     1      -3.110  14.522  23.598  0.00  0.00    +0.000 N 
ATOM     28  O   UNL     1      -3.325  15.654  23.146  0.00  0.00    +0.000 OA
ATOM     29  O   UNL     1      -3.514  14.099  24.688  0.00  0.00    +0.000 OA
ENDBRANCH  26  27
ENDBRANCH  22  25
ENDBRANCH   4  19
TORSDOF 6
ENDMDL
MODEL 5
REMARK VINA RESULT:      -8.5      1.268      1.769
REMARK  Name = 
REMARK  7 active torsions:
REMARK  status: ('A' for Active; 'I' for Inactive)
REMARK    1  A    between atoms: C_1  and  C_2
REMARK    2  A    between atoms: N_4  and  C_5
REMARK    3  A    between atoms: C_5  and  N_6
REMARK    4  A    between atoms: C_8  and  C_9
REMARK    5  A    between atoms: C_12  and  C_13
REMARK    6  A    between atoms: C_16  and  C_17
REMARK    7  A    between atoms: C_18  and  N_19
REMARK                            x       y       z     vdW  Elec       q    Type
REMARK                         _______ _______ _______ _____ _____    ______ ____
ROOT
ATOM      1  C   UNL     1       3.406   6.380  18.028  0.00  0.00    +0.000 A 
ATOM      2  C   UNL     1       3.029   7.653  17.582  0.00  0.00    +0.000 A 
ATOM      3  C   UNL     1       2.277   8.507  18.397  0.00  0.00    +0.000 A 
ATOM      4  C   UNL     1       1.858   8.116  19.679  0.00  0.00    +0.000 A 
ATOM      5  C   UNL     1       2.233   6.834  20.110  0.00  0.00    +0.000 A 
ATOM      6  C   UNL     1       2.998   5.983  19.303  0.00  0.00    +0.000 A 
ENDROOT
BRANCH   1   9
ATOM      7  N   UNL     1       5.601   4.724  15.632  0.00  0.00    +0.000 N 
ATOM      8  C   UNL     1       5.057   5.818  16.215  0.00  0.00    +0.000 A 
ATOM      9  C   UNL     1       4.188   5.489  17.178  0.00  0.00    +0.000 A 
ATOM     10  C   UNL     1       4.219   3.991  17.205  0.00  0.00    +0.000 A 
ATOM     11  O   UNL     1       3.580   3.260  17.939  0.00  0.00    +0.000 OA
ATOM     12  O   UNL     1       5.127   3.571  16.250  0.00  0.00    +0.000 OA
BRANCH   7  13
ATOM     13  C   UNL     1       6.593   4.575  14.609  0.00  0.00    +0.000 C 
BRANCH  13  17
ATOM     14  C   UNL     1       5.898   2.441  11.607  0.00  0.00    +0.000 C 
ATOM     15  C   UNL     1       6.499   3.556  12.414  0.00  0.00    +0.000 C 
ATOM     16  O   UNL     1       7.246   4.400  11.929  0.00  0.00    +0.000 OA
ATOM     17  N   UNL     1       6.147   3.535  13.737  0.00  0.00    +0.000 N 
ATOM     18  H   UNL     1       5.418   2.927  14.078  0.00  0.00    +0.000 HD
ENDBRANCH  13  17
ENDBRANCH   7  13
ENDBRANCH   1   9
BRANCH   4  19
ATOM     19  C   UNL     1       1.047   9.012  20.535  0.00  0.00    +0.000 A 
ATOM     20  C   UNL     1       0.698  10.310  20.122  0.00  0.00    +0.000 A 
ATOM     21  C   UNL     1      -0.080  11.150  20.929  0.00  0.00    +0.000 A 
ATOM     22  C   UNL     1      -0.557  10.710  22.165  0.00  0.00    +0.000 A 
ATOM     23  C   UNL     1      -0.196   9.432  22.601  0.00  0.00    +0.000 A 
ATOM     24  C   UNL     1       0.593   8.600  21.798  0.00  0.00    +0.000 A 
BRANCH  22  25
ATOM     25  C   UNL     1      -1.391  11.611  22.968  0.00  0.00    +0.000 C 
ATOM     26  C   UNL     1      -1.276  12.944  22.904  0.00  0.00    +0.000 C 
BRANCH  26  27
ATOM     27  N   UNL     1      -2.095  13.784  23.744  0.00  0.00    +0.000 N 
ATOM     28  O   UNL     1      -3.205  13.371  24.105  0.00  0.00    +0.000 OA
ATOM     29  O   UNL     1      -1.606  14.879  24.044  0.00  0.00    +0.000 OA
ENDBRANCH  26  27
ENDBRANCH  22  25
ENDBRANCH   4  19
TORSDOF 6
ENDMDL
MODEL 6
REMARK VINA RESULT:      -8.3      1.643      2.349
REMARK  Name = 
REMARK  7 active torsions:
REMARK  status: ('A' for Active; 'I' for Inactive)
REMARK    1  A    between atoms: C_1  and  C_2
REMARK    2  A    between atoms: N_4  and  C_5
REMARK    3  A    between atoms: C_5  and  N_6
REMARK    4  A    between atoms: C_8  and  C_9
REMARK    5  A    between atoms: C_12  and  C_13
REMARK    6  A    between atoms: C_16  and  C_17
REMARK    7  A    between atoms: C_18  and  N_19
REMARK                            x       y       z     vdW  Elec       q    Type
REMARK                         _______ _______ _______ _____ _____    ______ ____
ROOT
ATOM      1  C   UNL     1       3.953   6.240  17.969  0.00  0.00    +0.000 A 
ATOM      2  C   UNL     1       3.437   5.774  19.184  0.00  0.00    +0.000 A 
ATOM      3  C   UNL     1       2.549   6.552  19.935  0.00  0.00    +0.000 A 
ATOM      4  C   UNL     1       2.157   7.832  19.511  0.00  0.00    +0.000 A 
ATOM      5  C   UNL     1       2.689   8.292  18.295  0.00  0.00    +0.000 A 
ATOM      6  C   UNL     1       3.566   7.509  17.534  0.00  0.00    +0.000 A 
ENDROOT
BRANCH   1   9
ATOM      7  N   UNL     1       5.952   4.477  15.480  0.00  0.00    +0.000 N 
ATOM      8  C   UNL     1       4.968   5.327  15.856  0.00  0.00    +0.000 A 
ATOM      9  C   UNL     1       4.880   5.429  17.187  0.00  0.00    +0.000 A 
ATOM     10  C   UNL     1       5.973   4.540  17.697  0.00  0.00    +0.000 A 
ATOM     11  O   UNL     1       6.263   4.332  18.862  0.00  0.00    +0.000 OA
ATOM     12  O   UNL     1       6.621   3.998  16.603  0.00  0.00    +0.000 OA
BRANCH   7  13
ATOM     13  C   UNL     1       6.445   4.089  14.192  0.00  0.00    +0.000 C 
BRANCH  13  17
ATOM     14  C   UNL     1       4.187   3.230  11.326  0.00  0.00    +0.000 C 
ATOM     15  C   UNL     1       5.444   3.260  12.148  0.00  0.00    +0.000 C 
ATOM     16  O   UNL     1       6.487   2.725  11.788  0.00  0.00    +0.000 OA
ATOM     17  N   UNL     1       5.312   3.926  13.338  0.00  0.00    +0.000 N 
ATOM     18  H   UNL     1       4.495   4.482  13.542  0.00  0.00    +0.000 HD
ENDBRANCH  13  17
ENDBRANCH   7  13
ENDBRANCH   1   9
BRANCH   4  19
ATOM     19  C   UNL     1       1.231   8.664  20.312  0.00  0.00    +0.000 A 
ATOM     20  C   UNL     1       0.964   8.379  21.663  0.00  0.00    +0.000 A 
ATOM     21  C   UNL     1       0.099   9.175  22.422  0.00  0.00    +0.000 A 
ATOM     22  C   UNL     1      -0.509  10.301  21.863  0.00  0.00    +0.000 A 
ATOM     23  C   UNL     1      -0.275  10.583  20.514  0.00  0.00    +0.000 A 
ATOM     24  C   UNL     1       0.581   9.777  19.754  0.00  0.00    +0.000 A 
BRANCH  22  25
ATOM     25  C   UNL     1      -1.388  11.125  22.701  0.00  0.00    +0.000 C 
ATOM     26  C   UNL     1      -2.186  12.072  22.191  0.00  0.00    +0.000 C 
BRANCH  26  27
ATOM     27  N   UNL     1      -3.002  12.880  23.064  0.00  0.00    +0.000 N 
ATOM     28  O   UNL     1      -3.543  12.348  24.042  0.00  0.00    +0.000 OA
ATOM     29  O   UNL     1      -3.095  14.074  22.756  0.00  0.00    +0.000 OA
ENDBRANCH  26  27
ENDBRANCH  22  25
ENDBRANCH   4  19
TORSDOF 6
ENDMDL
MODEL 7
REMARK VINA RESULT:      -8.3      1.221      1.531
REMARK  Name = 
REMARK  7 active torsions:
REMARK  status: ('A' for Active; 'I' for Inactive)
REMARK    1  A    between atoms: C_1  and  C_2
REMARK    2  A    between atoms: N_4  and  C_5
REMARK    3  A    between atoms: C_5  and  N_6
REMARK    4  A    between atoms: C_8  and  C_9
REMARK    5  A    between atoms: C_12  and  C_13
REMARK    6  A    between atoms: C_16  and  C_17
REMARK    7  A    between atoms: C_18  and  N_19
REMARK                            x       y       z     vdW  Elec       q    Type
REMARK                         _______ _______ _______ _____ _____    ______ ____
ROOT
ATOM      1  C   UNL     1       3.471   6.484  18.109  0.00  0.00    +0.000 A 
ATOM      2  C   UNL     1       3.072   7.739  17.632  0.00  0.00    +0.000 A 
ATOM      3  C   UNL     1       2.262   8.578  18.406  0.00  0.00    +0.000 A 
ATOM      4  C   UNL     1       1.804   8.189  19.675  0.00  0.00    +0.000 A 
ATOM      5  C   UNL     1       2.202   6.924  20.137  0.00  0.00    +0.000 A 
ATOM      6  C   UNL     1       3.025   6.089  19.372  0.00  0.00    +0.000 A 
ENDROOT
BRANCH   1   9
ATOM      7  N   UNL     1       5.680   4.847  15.714  0.00  0.00    +0.000 N 
ATOM      8  C   UNL     1       5.005   5.916  16.199  0.00  0.00    +0.000 A 
ATOM      9  C   UNL     1       4.314   5.609  17.302  0.00  0.00    +0.000 A 
ATOM     10  C   UNL     1       4.625   4.163  17.541  0.00  0.00    +0.000 A 
ATOM     11  O   UNL     1       4.210   3.465  18.449  0.00  0.00    +0.000 OA
ATOM     12  O   UNL     1       5.493   3.749  16.547  0.00  0.00    +0.000 OA
BRANCH   7  13
ATOM     13  C   UNL     1       6.574   4.700  14.603  0.00  0.00    +0.000 C 
BRANCH  13  17
ATOM     14  C   UNL     1       5.767   2.450  11.716  0.00  0.00    +0.000 C 
ATOM     15  C   UNL     1       6.446   3.555  12.472  0.00  0.00    +0.000 C 
ATOM     16  O   UNL     1       7.281   4.295  11.962  0.00  0.00    +0.000 OA
ATOM     17  N   UNL     1       6.058   3.652  13.782  0.00  0.00    +0.000 N 
ATOM     18  H   UNL     1       5.266   3.135  14.135  0.00  0.00    +0.000 HD
ENDBRANCH  13  17
ENDBRANCH   7  13
ENDBRANCH   1   9
BRANCH   4  19
ATOM     19  C   UNL     1       0.932   9.068  20.487  0.00  0.00    +0.000 A 
ATOM     20  C   UNL     1       0.775   8.877  21.870  0.00  0.00    +0.000 A 
ATOM     21  C   UNL     1      -0.040   9.718  22.638  0.00  0.00    +0.000 A 
ATOM     22  C   UNL     1      -0.705  10.796  22.050  0.00  0.00    +0.000 A 
ATOM     23  C   UNL     1      -0.581  10.983  20.671  0.00  0.00    +0.000 A 
ATOM     24  C   UNL     1       0.225  10.133  19.905  0.00  0.00    +0.000 A 
BRANCH  22  25
ATOM     25  C   UNL     1      -1.528  11.670  22.895  0.00  0.00    +0.000 C 
ATOM     26  C   UNL     1      -2.670  12.220  22.463  0.00  0.00    +0.000 C 
BRANCH  26  27
ATOM     27  N   UNL     1      -3.420  13.103  23.322  0.00  0.00    +0.000 N 
ATOM     28  O   UNL     1      -2.878  13.554  24.339  0.00  0.00    +0.000 OA
ATOM     29  O   UNL     1      -4.577  13.345  22.961  0.00  0.00    +0.000 OA
ENDBRANCH  26  27
ENDBRANCH  22  25
ENDBRANCH   4  19
TORSDOF 6
ENDMDL
MODEL 8
REMARK VINA RESULT:      -8.1      1.082      1.745
REMARK  Name = 
REMARK  7 active torsions:
REMARK  status: ('A' for Active; 'I' for Inactive)
REMARK    1  A    between atoms: C_1  and  C_2
REMARK    2  A    between atoms: N_4  and  C_5
REMARK    3  A    between atoms: C_5  and  N_6
REMARK    4  A    between atoms: C_8  and  C_9
REMARK    5  A    between atoms: C_12  and  C_13
REMARK    6  A    between atoms: C_16  and  C_17
REMARK    7  A    between atoms: C_18  and  N_19
REMARK                            x       y       z     vdW  Elec       q    Type
REMARK                         _______ _______ _______ _____ _____    ______ ____
ROOT
ATOM      1  C   UNL     1       2.310   7.644  18.751  0.00  0.00    +0.000 A 
ATOM      2  C   UNL     1       2.021   7.439  20.105  0.00  0.00    +0.000 A 
ATOM      3  C   UNL     1       1.190   8.321  20.805  0.00  0.00    +0.000 A 
ATOM      4  C   UNL     1       0.632   9.450  20.185  0.00  0.00    +0.000 A 
ATOM      5  C   UNL     1       0.938   9.651  18.829  0.00  0.00    +0.000 A 
ATOM      6  C   UNL     1       1.757   8.761  18.122  0.00  0.00    +0.000 A 
ENDROOT
BRANCH   1   9
ATOM      7  N   UNL     1       4.887   5.882  16.865  0.00  0.00    +0.000 N 
ATOM      8  C   UNL     1       4.364   6.981  17.459  0.00  0.00    +0.000 A 
ATOM      9  C   UNL     1       3.177   6.725  18.022  0.00  0.00    +0.000 A 
ATOM     10  C   UNL     1       2.951   5.268  17.757  0.00  0.00    +0.000 A 
ATOM     11  O   UNL     1       1.989   4.603  18.097  0.00  0.00    +0.000 OA
ATOM     12  O   UNL     1       4.048   4.790  17.064  0.00  0.00    +0.000 OA
BRANCH   7  13
ATOM     13  C   UNL     1       6.130   5.657  16.188  0.00  0.00    +0.000 C 
BRANCH  13  17
ATOM     14  C   UNL     1       6.287   3.727  12.979  0.00  0.00    +0.000 C 
ATOM     15  C   UNL     1       6.727   4.678  14.055  0.00  0.00    +0.000 C 
ATOM     16  O   UNL     1       7.767   5.325  13.987  0.00  0.00    +0.000 OA
ATOM     17  N   UNL     1       5.870   4.744  15.122  0.00  0.00    +0.000 N 
ATOM     18  H   UNL     1       4.955   4.321  15.087  0.00  0.00    +0.000 HD
ENDBRANCH  13  17
ENDBRANCH   7  13
ENDBRANCH   1   9
BRANCH   4  19
ATOM     19  C   UNL     1      -0.233  10.395  20.929  0.00  0.00    +0.000 A 
ATOM     20  C   UNL     1      -1.005  11.365  20.268  0.00  0.00    +0.000 A 
ATOM     21  C   UNL     1      -1.832  12.248  20.973  0.00  0.00    +0.000 A 
ATOM     22  C   UNL     1      -1.934  12.172  22.363  0.00  0.00    +0.000 A 
ATOM     23  C   UNL     1      -1.153  11.230  23.038  0.00  0.00    +0.000 A 
ATOM     24  C   UNL     1      -0.317  10.358  22.330  0.00  0.00    +0.000 A 
BRANCH  22  25
ATOM     25  C   UNL     1      -2.833  13.098  23.062  0.00  0.00    +0.000 C 
ATOM     26  C   UNL     1      -2.646  14.424  23.054  0.00  0.00    +0.000 C 
BRANCH  26  27
ATOM     27  N   UNL     1      -3.538  15.286  23.790  0.00  0.00    +0.000 N 
ATOM     28  O   UNL     1      -3.579  15.195  25.024  0.00  0.00    +0.000 OA
ATOM     29  O   UNL     1      -4.209  16.070  23.109  0.00  0.00    +0.000 OA
ENDBRANCH  26  27
ENDBRANCH  22  25
ENDBRANCH   4  19
TORSDOF 6
ENDMDL
MODEL 9
REMARK VINA RESULT:      -8.0      1.848      3.039
REMARK  Name = 
REMARK  7 active torsions:
REMARK  status: ('A' for Active; 'I' for Inactive)
REMARK    1  A    between atoms: C_1  and  C_2
REMARK    2  A    between atoms: N_4  and  C_5
REMARK    3  A    between atoms: C_5  and  N_6
REMARK    4  A    between atoms: C_8  and  C_9
REMARK    5  A    between atoms: C_12  and  C_13
REMARK    6  A    between atoms: C_16  and  C_17
REMARK    7  A    between atoms: C_18  and  N_19
REMARK                            x       y       z     vdW  Elec       q    Type
REMARK                         _______ _______ _______ _____ _____    ______ ____
ROOT
ATOM      1  C   UNL     1       4.219   6.033  17.406  0.00  0.00    +0.000 A 
ATOM      2  C   UNL     1       3.672   5.493  18.576  0.00  0.00    +0.000 A 
ATOM      3  C   UNL     1       2.810   6.246  19.382  0.00  0.00    +0.000 A 
ATOM      4  C   UNL     1       2.478   7.572  19.061  0.00  0.00    +0.000 A 
ATOM      5  C   UNL     1       3.042   8.105  17.891  0.00  0.00    +0.000 A 
ATOM      6  C   UNL     1       3.892   7.349  17.074  0.00  0.00    +0.000 A 
ENDROOT
BRANCH   1   9
ATOM      7  N   UNL     1       6.005   4.174  14.826  0.00  0.00    +0.000 N 
ATOM      8  C   UNL     1       4.963   4.910  15.282  0.00  0.00    +0.000 A 
ATOM      9  C   UNL     1       5.118   5.249  16.567  0.00  0.00    +0.000 A 
ATOM     10  C   UNL     1       6.444   4.662  16.945  0.00  0.00    +0.000 A 
ATOM     11  O   UNL     1       6.991   4.729  18.031  0.00  0.00    +0.000 OA
ATOM     12  O   UNL     1       6.960   4.033  15.827  0.00  0.00    +0.000 OA
BRANCH   7  13
ATOM     13  C   UNL     1       6.304   3.632  13.533  0.00  0.00    +0.000 C 
BRANCH  13  17
ATOM     14  C   UNL     1       3.667   3.304  10.890  0.00  0.00    +0.000 C 
ATOM     15  C   UNL     1       4.876   2.940  11.704  0.00  0.00    +0.000 C 
ATOM     16  O   UNL     1       5.550   1.940  11.483  0.00  0.00    +0.000 OA
ATOM     17  N   UNL     1       5.146   3.819  12.720  0.00  0.00    +0.000 N 
ATOM     18  H   UNL     1       4.670   4.706  12.787  0.00  0.00    +0.000 HD
ENDBRANCH  13  17
ENDBRANCH   7  13
ENDBRANCH   1   9
BRANCH   4  19
ATOM     19  C   UNL     1       1.581   8.376  19.922  0.00  0.00    +0.000 A 
ATOM     20  C   UNL     1       0.917   9.514  19.435  0.00  0.00    +0.000 A 
ATOM     21  C   UNL     1       0.059  10.265  20.248  0.00  0.00    +0.000 A 
ATOM     22  C   UNL     1      -0.184   9.886  21.570  0.00  0.00    +0.000 A 
ATOM     23  C   UNL     1       0.490   8.771  22.077  0.00  0.00    +0.000 A 
ATOM     24  C   UNL     1       1.357   8.031  21.265  0.00  0.00    +0.000 A 
BRANCH  22  25
ATOM     25  C   UNL     1      -1.111  10.685  22.380  0.00  0.00    +0.000 C 
ATOM     26  C   UNL     1      -1.549  11.890  21.993  0.00  0.00    +0.000 C 
BRANCH  26  27
ATOM     27  N   UNL     1      -2.429  12.650  22.846  0.00  0.00    +0.000 N 
ATOM     28  O   UNL     1      -3.095  12.055  23.704  0.00  0.00    +0.000 OA
ATOM     29  O   UNL     1      -2.447  13.869  22.646  0.00  0.00    +0.000 OA
ENDBRANCH  26  27
ENDBRANCH  22  25
ENDBRANCH   4  19
TORSDOF 6
ENDMDL
