MODEL 1
REMARK VINA RESULT:      -7.0      0.000      0.000
REMARK  Name = 
REMARK  10 active torsions:
REMARK  status: ('A' for Active; 'I' for Inactive)
REMARK    1  A    between atoms: C_1  and  C_2
REMARK    2  A    between atoms: C_2  and  C_3
REMARK    3  A    between atoms: C_3  and  C_4
REMARK    4  A    between atoms: C_6  and  C_7
REMARK    5  A    between atoms: C_12  and  O_13
REMARK    6  A    between atoms: O_13  and  C_14
REMARK    7  A    between atoms: C_17  and  O_18
REMARK    8  A    between atoms: O_18  and  C_19
REMARK    9  A    between atoms: C_19  and  C_20
REMARK   10  A    between atoms: C_20  and  O_21
REMARK                            x       y       z     vdW  Elec       q    Type
REMARK                         _______ _______ _______ _____ _____    ______ ____
ROOT
ATOM      1  C   UNL     1       5.439   5.239  17.155  0.00  0.00    +0.000 C 
ATOM      2  O   UNL     1       5.316   6.375  17.622  0.00  0.00    +0.000 OA
ATOM      3  N   UNL     1       4.817   4.135  17.756  0.00  0.00    +0.000 N 
ATOM      4  C   UNL     1       4.854   2.779  17.279  0.00  0.00    +0.000 C 
ATOM      5  C   UNL     1       4.111   1.942  18.302  0.00  0.00    +0.000 C 
ATOM      6  C   UNL     1       3.272   2.902  19.188  0.00  0.00    +0.000 C 
ATOM      7  C   UNL     1       1.735   2.634  19.127  0.00  0.00    +0.000 C 
ATOM      8  C   UNL     1       0.766   3.796  18.862  0.00  0.00    +0.000 C 
ATOM      9  C   UNL     1       1.379   5.186  18.918  0.00  0.00    +0.000 C 
ATOM     10  C   UNL     1       2.617   5.144  18.051  0.00  0.00    +0.000 C 
ATOM     11  C   UNL     1       3.733   4.329  18.721  0.00  0.00    +0.000 C 
ENDROOT
BRANCH   1  14
ATOM     12  C   UNL     1       6.527   4.455  13.773  0.00  0.00    +0.000 A 
ATOM     13  C   UNL     1       5.542   4.412  14.722  0.00  0.00    +0.000 A 
ATOM     14  C   UNL     1       6.111   5.053  15.866  0.00  0.00    +0.000 A 
ATOM     15  N   UNL     1       7.361   5.454  15.591  0.00  0.00    +0.000 NA
ATOM     16  O   UNL     1       7.616   5.087  14.284  0.00  0.00    +0.000 OA
BRANCH  12  17
ATOM     17  C   UNL     1       6.615   4.014  12.361  0.00  0.00    +0.000 C 
BRANCH  17  19
ATOM     18  C   UNL     1       4.401   3.287  11.431  0.00  0.00    +0.000 C 
ATOM     19  C   UNL     1       5.710   2.821  12.053  0.00  0.00    +0.000 C 
ENDBRANCH  17  19
ENDBRANCH  12  17
ENDBRANCH   1  14
BRANCH   6  20
ATOM     20  O   UNL     1       3.683   2.727  20.574  0.00  0.00    +0.000 OA
ATOM     21  C   UNL     1       2.627   2.578  21.533  0.00  0.00    +0.000 C 
ENDBRANCH   6  20
BRANCH   9  22
ATOM     22  O   UNL     1       1.665   5.552  20.272  0.00  0.00    +0.000 OA
BRANCH  22  23
ATOM     23  C   UNL     1       2.144   6.905  20.397  0.00  0.00    +0.000 C 
BRANCH  23  24
ATOM     24  C   UNL     1       1.102   7.744  21.126  0.00  0.00    +0.000 C 
BRANCH  24  25
ATOM     25  O   UNL     1       1.736   8.656  22.021  0.00  0.00    +0.000 OA
ATOM     26  H   UNL     1       2.637   8.307  22.162  0.00  0.00    +0.000 HD
ENDBRANCH  24  25
ENDBRANCH  23  24
ENDBRANCH  22  23
ENDBRANCH   9  22
TORSDOF 8
ENDMDL
MODEL 2
REMARK VINA RESULT:      -6.9      2.700      7.958
REMARK  Name = 
REMARK  10 active torsions:
REMARK  status: ('A' for Active; 'I' for Inactive)
REMARK    1  A    between atoms: C_1  and  C_2
REMARK    2  A    between atoms: C_2  and  C_3
REMARK    3  A    between atoms: C_3  and  C_4
REMARK    4  A    between atoms: C_6  and  C_7
REMARK    5  A    between atoms: C_12  and  O_13
REMARK    6  A    between atoms: O_13  and  C_14
REMARK    7  A    between atoms: C_17  and  O_18
REMARK    8  A    between atoms: O_18  and  C_19
REMARK    9  A    between atoms: C_19  and  C_20
REMARK   10  A    between atoms: C_20  and  O_21
REMARK                            x       y       z     vdW  Elec       q    Type
REMARK                         _______ _______ _______ _____ _____    ______ ____
ROOT
ATOM      1  C   UNL     1       1.693   7.728  19.715  0.00  0.00    +0.000 C 
ATOM      2  O   UNL     1       2.013   8.345  18.695  0.00  0.00    +0.000 OA
ATOM      3  N   UNL     1       1.864   6.340  19.809  0.00  0.00    +0.000 N 
ATOM      4  C   UNL     1       1.569   5.525  20.958  0.00  0.00    +0.000 C 
ATOM      5  C   UNL     1       1.838   4.090  20.548  0.00  0.00    +0.000 C 
ATOM      6  C   UNL     1       2.701   4.114  19.258  0.00  0.00    +0.000 C 
ATOM      7  C   UNL     1       4.091   3.421  19.415  0.00  0.00    +0.000 C 
ATOM      8  C   UNL     1       5.365   4.152  18.968  0.00  0.00    +0.000 C 
ATOM      9  C   UNL     1       5.143   5.426  18.169  0.00  0.00    +0.000 C 
ATOM     10  C   UNL     1       4.143   6.251  18.948  0.00  0.00    +0.000 C 
ATOM     11  C   UNL     1       2.739   5.635  18.869  0.00  0.00    +0.000 C 
ENDROOT
BRANCH   1  14
ATOM     12  C   UNL     1       0.049   9.608  22.363  0.00  0.00    +0.000 A 
ATOM     13  C   UNL     1      -0.035   8.989  21.144  0.00  0.00    +0.000 A 
ATOM     14  C   UNL     1       1.275   8.468  20.910  0.00  0.00    +0.000 A 
ATOM     15  N   UNL     1       2.076   8.761  21.945  0.00  0.00    +0.000 NA
ATOM     16  O   UNL     1       1.308   9.466  22.853  0.00  0.00    +0.000 OA
BRANCH  12  17
ATOM     17  C   UNL     1      -0.925  10.318  23.224  0.00  0.00    +0.000 C 
BRANCH  17  19
ATOM     18  C   UNL     1      -0.403  12.434  21.982  0.00  0.00    +0.000 C 
ATOM     19  C   UNL     1      -1.510  11.564  22.558  0.00  0.00    +0.000 C 
ENDBRANCH  17  19
ENDBRANCH  12  17
ENDBRANCH   1  14
BRANCH   6  20
ATOM     20  O   UNL     1       1.983   3.400  18.211  0.00  0.00    +0.000 OA
ATOM     21  C   UNL     1       0.965   2.490  18.650  0.00  0.00    +0.000 C 
ENDBRANCH   6  20
BRANCH   9  22
ATOM     22  O   UNL     1       4.692   5.115  16.847  0.00  0.00    +0.000 OA
BRANCH  22  23
ATOM     23  C   UNL     1       5.519   5.698  15.822  0.00  0.00    +0.000 C 
BRANCH  23  24
ATOM     24  C   UNL     1       6.684   4.763  15.520  0.00  0.00    +0.000 C 
BRANCH  24  25
ATOM     25  O   UNL     1       7.649   5.420  14.701  0.00  0.00    +0.000 OA
ATOM     26  H   UNL     1       8.480   5.418  15.215  0.00  0.00    +0.000 HD
ENDBRANCH  24  25
ENDBRANCH  23  24
ENDBRANCH  22  23
ENDBRANCH   9  22
TORSDOF 8
ENDMDL
MODEL 3
REMARK VINA RESULT:      -6.8      2.738      7.853
REMARK  Name = 
REMARK  10 active torsions:
REMARK  status: ('A' for Active; 'I' for Inactive)
REMARK    1  A    between atoms: C_1  and  C_2
REMARK    2  A    between atoms: C_2  and  C_3
REMARK    3  A    between atoms: C_3  and  C_4
REMARK    4  A    between atoms: C_6  and  C_7
REMARK    5  A    between atoms: C_12  and  O_13
REMARK    6  A    between atoms: O_13  and  C_14
REMARK    7  A    between atoms: C_17  and  O_18
REMARK    8  A    between atoms: O_18  and  C_19
REMARK    9  A    between atoms: C_19  and  C_20
REMARK   10  A    between atoms: C_20  and  O_21
REMARK                            x       y       z     vdW  Elec       q    Type
REMARK                         _______ _______ _______ _____ _____    ______ ____
ROOT
ATOM      1  C   UNL     1       2.227   7.970  18.292  0.00  0.00    +0.000 C 
ATOM      2  O   UNL     1       2.418   8.574  17.233  0.00  0.00    +0.000 OA
ATOM      3  N   UNL     1       2.748   6.685  18.501  0.00  0.00    +0.000 N 
ATOM      4  C   UNL     1       2.626   5.906  19.704  0.00  0.00    +0.000 C 
ATOM      5  C   UNL     1       3.276   4.566  19.417  0.00  0.00    +0.000 C 
ATOM      6  C   UNL     1       4.156   4.723  18.148  0.00  0.00    +0.000 C 
ATOM      7  C   UNL     1       5.671   4.431  18.391  0.00  0.00    +0.000 C 
ATOM      8  C   UNL     1       6.730   5.437  17.915  0.00  0.00    +0.000 C 
ATOM      9  C   UNL     1       6.219   6.548  17.012  0.00  0.00    +0.000 C 
ATOM     10  C   UNL     1       5.007   7.135  17.699  0.00  0.00    +0.000 C 
ATOM     11  C   UNL     1       3.815   6.168  17.640  0.00  0.00    +0.000 C 
ENDROOT
BRANCH   1  14
ATOM     12  C   UNL     1       0.403  10.115  20.598  0.00  0.00    +0.000 A 
ATOM     13  C   UNL     1       0.766   9.826  19.309  0.00  0.00    +0.000 A 
ATOM     14  C   UNL     1       1.581   8.658  19.415  0.00  0.00    +0.000 A 
ATOM     15  N   UNL     1       1.680   8.282  20.698  0.00  0.00    +0.000 NA
ATOM     16  O   UNL     1       0.939   9.188  21.434  0.00  0.00    +0.000 OA
BRANCH  12  17
ATOM     17  C   UNL     1      -0.453  11.154  21.217  0.00  0.00    +0.000 C 
BRANCH  17  19
ATOM     18  C   UNL     1      -1.973  11.717  23.131  0.00  0.00    +0.000 C 
ATOM     19  C   UNL     1      -0.824  10.835  22.665  0.00  0.00    +0.000 C 
ENDBRANCH  17  19
ENDBRANCH  12  17
ENDBRANCH   1  14
BRANCH   6  20
ATOM     20  O   UNL     1       3.693   3.772  17.147  0.00  0.00    +0.000 OA
ATOM     21  C   UNL     1       3.015   2.610  17.643  0.00  0.00    +0.000 C 
ENDBRANCH   6  20
BRANCH   9  22
ATOM     22  O   UNL     1       5.919   6.035  15.709  0.00  0.00    +0.000 OA
BRANCH  22  23
ATOM     23  C   UNL     1       6.944   5.157  15.205  0.00  0.00    +0.000 C 
BRANCH  23  24
ATOM     24  C   UNL     1       6.294   3.974  14.498  0.00  0.00    +0.000 C 
BRANCH  24  25
ATOM     25  O   UNL     1       6.007   2.935  15.431  0.00  0.00    +0.000 OA
ATOM     26  H   UNL     1       5.402   2.322  14.968  0.00  0.00    +0.000 HD
ENDBRANCH  24  25
ENDBRANCH  23  24
ENDBRANCH  22  23
ENDBRANCH   9  22
TORSDOF 8
ENDMDL
MODEL 4
REMARK VINA RESULT:      -6.7      3.409      7.425
REMARK  Name = 
REMARK  10 active torsions:
REMARK  status: ('A' for Active; 'I' for Inactive)
REMARK    1  A    between atoms: C_1  and  C_2
REMARK    2  A    between atoms: C_2  and  C_3
REMARK    3  A    between atoms: C_3  and  C_4
REMARK    4  A    between atoms: C_6  and  C_7
REMARK    5  A    between atoms: C_12  and  O_13
REMARK    6  A    between atoms: O_13  and  C_14
REMARK    7  A    between atoms: C_17  and  O_18
REMARK    8  A    between atoms: O_18  and  C_19
REMARK    9  A    between atoms: C_19  and  C_20
REMARK   10  A    between atoms: C_20  and  O_21
REMARK                            x       y       z     vdW  Elec       q    Type
REMARK                         _______ _______ _______ _____ _____    ______ ____
ROOT
ATOM      1  C   UNL     1       1.416   8.661  20.499  0.00  0.00    +0.000 C 
ATOM      2  O   UNL     1       1.372   8.316  21.683  0.00  0.00    +0.000 OA
ATOM      3  N   UNL     1       2.081   7.883  19.539  0.00  0.00    +0.000 N 
ATOM      4  C   UNL     1       2.161   8.162  18.130  0.00  0.00    +0.000 C 
ATOM      5  C   UNL     1       3.049   7.089  17.529  0.00  0.00    +0.000 C 
ATOM      6  C   UNL     1       3.153   5.925  18.552  0.00  0.00    +0.000 C 
ATOM      7  C   UNL     1       2.612   4.563  18.014  0.00  0.00    +0.000 C 
ATOM      8  C   UNL     1       1.611   3.753  18.851  0.00  0.00    +0.000 C 
ATOM      9  C   UNL     1       1.405   4.239  20.277  0.00  0.00    +0.000 C 
ATOM     10  C   UNL     1       1.147   5.727  20.189  0.00  0.00    +0.000 C 
ATOM     11  C   UNL     1       2.429   6.490  19.825  0.00  0.00    +0.000 C 
ENDROOT
BRANCH   1  14
ATOM     12  C   UNL     1      -1.057  11.082  19.374  0.00  0.00    +0.000 A 
ATOM     13  C   UNL     1      -0.772   9.804  19.778  0.00  0.00    +0.000 A 
ATOM     14  C   UNL     1       0.631   9.814  20.048  0.00  0.00    +0.000 A 
ATOM     15  N   UNL     1       1.133  11.037  19.821  0.00  0.00    +0.000 NA
ATOM     16  O   UNL     1       0.078  11.827  19.407  0.00  0.00    +0.000 OA
BRANCH  12  17
ATOM     17  C   UNL     1      -2.302  11.780  18.977  0.00  0.00    +0.000 C 
BRANCH  17  19
ATOM     18  C   UNL     1      -3.304  10.147  17.358  0.00  0.00    +0.000 C 
ATOM     19  C   UNL     1      -2.687  11.528  17.519  0.00  0.00    +0.000 C 
ENDBRANCH  17  19
ENDBRANCH  12  17
ENDBRANCH   1  14
BRANCH   6  20
ATOM     20  O   UNL     1       4.557   5.728  18.882  0.00  0.00    +0.000 OA
ATOM     21  C   UNL     1       5.362   5.100  17.875  0.00  0.00    +0.000 C 
ENDBRANCH   6  20
BRANCH   9  22
ATOM     22  O   UNL     1       2.546   3.924  21.082  0.00  0.00    +0.000 OA
BRANCH  22  23
ATOM     23  C   UNL     1       2.894   2.527  21.035  0.00  0.00    +0.000 C 
BRANCH  23  24
ATOM     24  C   UNL     1       4.271   2.371  20.402  0.00  0.00    +0.000 C 
BRANCH  24  25
ATOM     25  O   UNL     1       5.140   1.649  21.272  0.00  0.00    +0.000 OA
ATOM     26  H   UNL     1       6.044   1.805  20.934  0.00  0.00    +0.000 HD
ENDBRANCH  24  25
ENDBRANCH  23  24
ENDBRANCH  22  23
ENDBRANCH   9  22
TORSDOF 8
ENDMDL
MODEL 5
REMARK VINA RESULT:      -6.6      3.483      7.993
REMARK  Name = 
REMARK  10 active torsions:
REMARK  status: ('A' for Active; 'I' for Inactive)
REMARK    1  A    between atoms: C_1  and  C_2
REMARK    2  A    between atoms: C_2  and  C_3
REMARK    3  A    between atoms: C_3  and  C_4
REMARK    4  A    between atoms: C_6  and  C_7
REMARK    5  A    between atoms: C_12  and  O_13
REMARK    6  A    between atoms: O_13  and  C_14
REMARK    7  A    between atoms: C_17  and  O_18
REMARK    8  A    between atoms: O_18  and  C_19
REMARK    9  A    between atoms: C_19  and  C_20
REMARK   10  A    between atoms: C_20  and  O_21
REMARK                            x       y       z     vdW  Elec       q    Type
REMARK                         _______ _______ _______ _____ _____    ______ ____
ROOT
ATOM      1  C   UNL     1       1.456   8.650  20.763  0.00  0.00    +0.000 C 
ATOM      2  O   UNL     1       1.444   8.186  21.906  0.00  0.00    +0.000 OA
ATOM      3  N   UNL     1       2.071   7.964  19.705  0.00  0.00    +0.000 N 
ATOM      4  C   UNL     1       2.109   8.386  18.330  0.00  0.00    +0.000 C 
ATOM      5  C   UNL     1       2.952   7.364  17.591  0.00  0.00    +0.000 C 
ATOM      6  C   UNL     1       3.064   6.099  18.484  0.00  0.00    +0.000 C 
ATOM      7  C   UNL     1       2.475   4.810  17.828  0.00  0.00    +0.000 C 
ATOM      8  C   UNL     1       1.484   3.937  18.613  0.00  0.00    +0.000 C 
ATOM      9  C   UNL     1       1.337   4.277  20.087  0.00  0.00    +0.000 C 
ATOM     10  C   UNL     1       1.110   5.770  20.162  0.00  0.00    +0.000 C 
ATOM     11  C   UNL     1       2.397   6.542  19.834  0.00  0.00    +0.000 C 
ENDROOT
BRANCH   1  14
ATOM     12  C   UNL     1      -0.969  11.211  19.865  0.00  0.00    +0.000 A 
ATOM     13  C   UNL     1      -0.683   9.883  20.042  0.00  0.00    +0.000 A 
ATOM     14  C   UNL     1       0.683   9.859  20.461  0.00  0.00    +0.000 A 
ATOM     15  N   UNL     1       1.163  11.109  20.533  0.00  0.00    +0.000 NA
ATOM     16  O   UNL     1       0.129  11.951  20.168  0.00  0.00    +0.000 OA
BRANCH  12  17
ATOM     17  C   UNL     1      -2.189  11.957  19.477  0.00  0.00    +0.000 C 
BRANCH  17  19
ATOM     18  C   UNL     1      -2.929  12.612  21.783  0.00  0.00    +0.000 C 
ATOM     19  C   UNL     1      -2.498  13.123  20.416  0.00  0.00    +0.000 C 
ENDBRANCH  17  19
ENDBRANCH  12  17
ENDBRANCH   1  14
BRANCH   6  20
ATOM     20  O   UNL     1       4.474   5.842  18.741  0.00  0.00    +0.000 OA
ATOM     21  C   UNL     1       5.372   6.090  17.652  0.00  0.00    +0.000 C 
ENDBRANCH   6  20
BRANCH   9  22
ATOM     22  O   UNL     1       2.497   3.858  20.815  0.00  0.00    +0.000 OA
BRANCH  22  23
ATOM     23  C   UNL     1       2.888   2.505  20.512  0.00  0.00    +0.000 C 
BRANCH  23  24
ATOM     24  C   UNL     1       4.407   2.395  20.565  0.00  0.00    +0.000 C 
BRANCH  24  25
ATOM     25  O   UNL     1       4.987   2.940  19.382  0.00  0.00    +0.000 OA
ATOM     26  H   UNL     1       4.992   3.908  19.510  0.00  0.00    +0.000 HD
ENDBRANCH  24  25
ENDBRANCH  23  24
ENDBRANCH  22  23
ENDBRANCH   9  22
TORSDOF 8
ENDMDL
MODEL 6
REMARK VINA RESULT:      -6.5      2.796      7.885
REMARK  Name = 
REMARK  10 active torsions:
REMARK  status: ('A' for Active; 'I' for Inactive)
REMARK    1  A    between atoms: C_1  and  C_2
REMARK    2  A    between atoms: C_2  and  C_3
REMARK    3  A    between atoms: C_3  and  C_4
REMARK    4  A    between atoms: C_6  and  C_7
REMARK    5  A    between atoms: C_12  and  O_13
REMARK    6  A    between atoms: O_13  and  C_14
REMARK    7  A    between atoms: C_17  and  O_18
REMARK    8  A    between atoms: O_18  and  C_19
REMARK    9  A    between atoms: C_19  and  C_20
REMARK   10  A    between atoms: C_20  and  O_21
REMARK                            x       y       z     vdW  Elec       q    Type
REMARK                         _______ _______ _______ _____ _____    ______ ____
ROOT
ATOM      1  C   UNL     1       2.097   8.166  18.251  0.00  0.00    +0.000 C 
ATOM      2  O   UNL     1       2.406   8.556  17.121  0.00  0.00    +0.000 OA
ATOM      3  N   UNL     1       2.421   6.874  18.688  0.00  0.00    +0.000 N 
ATOM      4  C   UNL     1       2.151   6.328  19.992  0.00  0.00    +0.000 C 
ATOM      5  C   UNL     1       2.609   4.883  19.956  0.00  0.00    +0.000 C 
ATOM      6  C   UNL     1       3.542   4.706  18.727  0.00  0.00    +0.000 C 
ATOM      7  C   UNL     1       4.990   4.253  19.095  0.00  0.00    +0.000 C 
ATOM      8  C   UNL     1       6.197   5.012  18.523  0.00  0.00    +0.000 C 
ATOM      9  C   UNL     1       5.879   6.018  17.428  0.00  0.00    +0.000 C 
ATOM     10  C   UNL     1       4.744   6.872  17.948  0.00  0.00    +0.000 C 
ATOM     11  C   UNL     1       3.428   6.081  17.979  0.00  0.00    +0.000 C 
ENDROOT
BRANCH   1  14
ATOM     12  C   UNL     1       0.569   9.955  21.027  0.00  0.00    +0.000 A 
ATOM     13  C   UNL     1       1.007   8.769  20.501  0.00  0.00    +0.000 A 
ATOM     14  C   UNL     1       1.523   9.111  19.213  0.00  0.00    +0.000 A 
ATOM     15  N   UNL     1       1.399  10.430  19.006  0.00  0.00    +0.000 NA
ATOM     16  O   UNL     1       0.811  10.956  20.141  0.00  0.00    +0.000 OA
BRANCH  12  17
ATOM     17  C   UNL     1      -0.037  10.343  22.322  0.00  0.00    +0.000 C 
BRANCH  17  19
ATOM     18  C   UNL     1      -1.960  11.732  23.137  0.00  0.00    +0.000 C 
ATOM     19  C   UNL     1      -0.705  11.718  22.278  0.00  0.00    +0.000 C 
ENDBRANCH  17  19
ENDBRANCH  12  17
ENDBRANCH   1  14
BRANCH   6  20
ATOM     20  O   UNL     1       2.977   3.676  17.866  0.00  0.00    +0.000 OA
ATOM     21  C   UNL     1       1.895   2.914  18.417  0.00  0.00    +0.000 C 
ENDBRANCH   6  20
BRANCH   9  22
ATOM     22  O   UNL     1       5.550   5.344  16.210  0.00  0.00    +0.000 OA
BRANCH  22  23
ATOM     23  C   UNL     1       6.605   4.481  15.745  0.00  0.00    +0.000 C 
BRANCH  23  24
ATOM     24  C   UNL     1       6.820   4.704  14.253  0.00  0.00    +0.000 C 
BRANCH  24  25
ATOM     25  O   UNL     1       7.907   5.602  14.036  0.00  0.00    +0.000 OA
ATOM     26  H   UNL     1       7.775   5.968  13.140  0.00  0.00    +0.000 HD
ENDBRANCH  24  25
ENDBRANCH  23  24
ENDBRANCH  22  23
ENDBRANCH   9  22
TORSDOF 8
ENDMDL
MODEL 7
REMARK VINA RESULT:      -6.4      2.967      6.902
REMARK  Name = 
REMARK  10 active torsions:
REMARK  status: ('A' for Active; 'I' for Inactive)
REMARK    1  A    between atoms: C_1  and  C_2
REMARK    2  A    between atoms: C_2  and  C_3
REMARK    3  A    between atoms: C_3  and  C_4
REMARK    4  A    between atoms: C_6  and  C_7
REMARK    5  A    between atoms: C_12  and  O_13
REMARK    6  A    between atoms: O_13  and  C_14
REMARK    7  A    between atoms: C_17  and  O_18
REMARK    8  A    between atoms: O_18  and  C_19
REMARK    9  A    between atoms: C_19  and  C_20
REMARK   10  A    between atoms: C_20  and  O_21
REMARK                            x       y       z     vdW  Elec       q    Type
REMARK                         _______ _______ _______ _____ _____    ______ ____
ROOT
ATOM      1  C   UNL     1       2.083   7.419  19.657  0.00  0.00    +0.000 C 
ATOM      2  O   UNL     1       1.572   6.771  20.576  0.00  0.00    +0.000 OA
ATOM      3  N   UNL     1       3.079   6.862  18.841  0.00  0.00    +0.000 N 
ATOM      4  C   UNL     1       3.713   7.504  17.721  0.00  0.00    +0.000 C 
ATOM      5  C   UNL     1       4.772   6.542  17.217  0.00  0.00    +0.000 C 
ATOM      6  C   UNL     1       4.464   5.140  17.807  0.00  0.00    +0.000 C 
ATOM      7  C   UNL     1       4.189   4.047  16.726  0.00  0.00    +0.000 C 
ATOM      8  C   UNL     1       2.940   3.159  16.836  0.00  0.00    +0.000 C 
ATOM      9  C   UNL     1       2.181   3.257  18.150  0.00  0.00    +0.000 C 
ATOM     10  C   UNL     1       1.973   4.732  18.415  0.00  0.00    +0.000 C 
ATOM     11  C   UNL     1       3.291   5.413  18.812  0.00  0.00    +0.000 C 
ENDROOT
BRANCH   1  14
ATOM     12  C   UNL     1       0.623  10.746  19.457  0.00  0.00    +0.000 A 
ATOM     13  C   UNL     1       1.034   9.694  20.233  0.00  0.00    +0.000 A 
ATOM     14  C   UNL     1       1.538   8.733  19.305  0.00  0.00    +0.000 A 
ATOM     15  N   UNL     1       1.434   9.205  18.054  0.00  0.00    +0.000 NA
ATOM     16  O   UNL     1       0.870  10.463  18.152  0.00  0.00    +0.000 OA
BRANCH  12  17
ATOM     17  C   UNL     1       0.040  12.076  19.753  0.00  0.00    +0.000 C 
BRANCH  17  19
ATOM     18  C   UNL     1      -2.396  11.947  19.169  0.00  0.00    +0.000 C 
ATOM     19  C   UNL     1      -1.037  12.489  18.750  0.00  0.00    +0.000 C 
ENDBRANCH  17  19
ENDBRANCH  12  17
ENDBRANCH   1  14
BRANCH   6  20
ATOM     20  O   UNL     1       5.622   4.700  18.574  0.00  0.00    +0.000 OA
ATOM     21  C   UNL     1       6.885   4.749  17.897  0.00  0.00    +0.000 C 
ENDBRANCH   6  20
BRANCH   9  22
ATOM     22  O   UNL     1       2.907   2.606  19.197  0.00  0.00    +0.000 OA
BRANCH  22  23
ATOM     23  C   UNL     1       2.051   2.095  20.237  0.00  0.00    +0.000 C 
BRANCH  23  24
ATOM     24  C   UNL     1       2.347   2.827  21.540  0.00  0.00    +0.000 C 
BRANCH  24  25
ATOM     25  O   UNL     1       1.301   2.605  22.484  0.00  0.00    +0.000 OA
ATOM     26  H   UNL     1       1.189   1.635  22.533  0.00  0.00    +0.000 HD
ENDBRANCH  24  25
ENDBRANCH  23  24
ENDBRANCH  22  23
ENDBRANCH   9  22
TORSDOF 8
ENDMDL
MODEL 8
REMARK VINA RESULT:      -6.4      3.571      7.574
REMARK  Name = 
REMARK  10 active torsions:
REMARK  status: ('A' for Active; 'I' for Inactive)
REMARK    1  A    between atoms: C_1  and  C_2
REMARK    2  A    between atoms: C_2  and  C_3
REMARK    3  A    between atoms: C_3  and  C_4
REMARK    4  A    between atoms: C_6  and  C_7
REMARK    5  A    between atoms: C_12  and  O_13
REMARK    6  A    between atoms: O_13  and  C_14
REMARK    7  A    between atoms: C_17  and  O_18
REMARK    8  A    between atoms: O_18  and  C_19
REMARK    9  A    between atoms: C_19  and  C_20
REMARK   10  A    between atoms: C_20  and  O_21
REMARK                            x       y       z     vdW  Elec       q    Type
REMARK                         _______ _______ _______ _____ _____    ______ ____
ROOT
ATOM      1  C   UNL     1       1.446   8.516  20.350  0.00  0.00    +0.000 C 
ATOM      2  O   UNL     1       1.308   8.052  21.485  0.00  0.00    +0.000 OA
ATOM      3  N   UNL     1       2.210   7.851  19.380  0.00  0.00    +0.000 N 
ATOM      4  C   UNL     1       2.405   8.273  18.019  0.00  0.00    +0.000 C 
ATOM      5  C   UNL     1       3.367   7.281  17.395  0.00  0.00    +0.000 C 
ATOM      6  C   UNL     1       3.410   6.020  18.300  0.00  0.00    +0.000 C 
ATOM      7  C   UNL     1       2.950   4.712  17.582  0.00  0.00    +0.000 C 
ATOM      8  C   UNL     1       1.900   3.806  18.242  0.00  0.00    +0.000 C 
ATOM      9  C   UNL     1       1.560   4.141  19.686  0.00  0.00    +0.000 C 
ATOM     10  C   UNL     1       1.274   5.626  19.725  0.00  0.00    +0.000 C 
ATOM     11  C   UNL     1       2.565   6.441  19.555  0.00  0.00    +0.000 C 
ENDROOT
BRANCH   1  14
ATOM     12  C   UNL     1       0.141  11.690  19.139  0.00  0.00    +0.000 A 
ATOM     13  C   UNL     1       1.211  10.851  19.297  0.00  0.00    +0.000 A 
ATOM     14  C   UNL     1       0.676   9.698  19.949  0.00  0.00    +0.000 A 
ATOM     15  N   UNL     1      -0.640   9.856  20.152  0.00  0.00    +0.000 NA
ATOM     16  O   UNL     1      -0.973  11.096  19.640  0.00  0.00    +0.000 OA
BRANCH  12  17
ATOM     17  C   UNL     1      -0.038  13.024  18.519  0.00  0.00    +0.000 C 
BRANCH  17  19
ATOM     18  C   UNL     1       1.963  14.525  18.713  0.00  0.00    +0.000 C 
ATOM     19  C   UNL     1       0.621  14.146  19.322  0.00  0.00    +0.000 C 
ENDBRANCH  17  19
ENDBRANCH  12  17
ENDBRANCH   1  14
BRANCH   6  20
ATOM     20  O   UNL     1       4.785   5.811  18.732  0.00  0.00    +0.000 OA
ATOM     21  C   UNL     1       5.799   6.030  17.743  0.00  0.00    +0.000 C 
ENDBRANCH   6  20
BRANCH   9  22
ATOM     22  O   UNL     1       2.633   3.762  20.553  0.00  0.00    +0.000 OA
BRANCH  22  23
ATOM     23  C   UNL     1       3.038   2.391  20.375  0.00  0.00    +0.000 C 
BRANCH  23  24
ATOM     24  C   UNL     1       4.554   2.292  20.498  0.00  0.00    +0.000 C 
BRANCH  24  25
ATOM     25  O   UNL     1       5.183   2.844  19.344  0.00  0.00    +0.000 OA
ATOM     26  H   UNL     1       5.286   2.102  18.717  0.00  0.00    +0.000 HD
ENDBRANCH  24  25
ENDBRANCH  23  24
ENDBRANCH  22  23
ENDBRANCH   9  22
TORSDOF 8
ENDMDL
MODEL 9
REMARK VINA RESULT:      -6.4      2.839      7.841
REMARK  Name = 
REMARK  10 active torsions:
REMARK  status: ('A' for Active; 'I' for Inactive)
REMARK    1  A    between atoms: C_1  and  C_2
REMARK    2  A    between atoms: C_2  and  C_3
REMARK    3  A    between atoms: C_3  and  C_4
REMARK    4  A    between atoms: C_6  and  C_7
REMARK    5  A    between atoms: C_12  and  O_13
REMARK    6  A    between atoms: O_13  and  C_14
REMARK    7  A    between atoms: C_17  and  O_18
REMARK    8  A    between atoms: O_18  and  C_19
REMARK    9  A    between atoms: C_19  and  C_20
REMARK   10  A    between atoms: C_20  and  O_21
REMARK                            x       y       z     vdW  Elec       q    Type
REMARK                         _______ _______ _______ _____ _____    ______ ____
ROOT
ATOM      1  C   UNL     1       1.799   8.612  18.293  0.00  0.00    +0.000 C 
ATOM      2  O   UNL     1       1.984   8.862  17.099  0.00  0.00    +0.000 OA
ATOM      3  N   UNL     1       2.130   7.361  18.834  0.00  0.00    +0.000 N 
ATOM      4  C   UNL     1       1.999   6.973  20.213  0.00  0.00    +0.000 C 
ATOM      5  C   UNL     1       2.402   5.513  20.288  0.00  0.00    +0.000 C 
ATOM      6  C   UNL     1       3.176   5.161  18.989  0.00  0.00    +0.000 C 
ATOM      7  C   UNL     1       4.642   4.685  19.237  0.00  0.00    +0.000 C 
ATOM      8  C   UNL     1       5.796   5.322  18.449  0.00  0.00    +0.000 C 
ATOM      9  C   UNL     1       5.384   6.217  17.291  0.00  0.00    +0.000 C 
ATOM     10  C   UNL     1       4.347   7.173  17.838  0.00  0.00    +0.000 C 
ATOM     11  C   UNL     1       3.019   6.451  18.108  0.00  0.00    +0.000 C 
ENDROOT
BRANCH   1  14
ATOM     12  C   UNL     1       0.311  10.796  20.795  0.00  0.00    +0.000 A 
ATOM     13  C   UNL     1       0.382   9.554  20.221  0.00  0.00    +0.000 A 
ATOM     14  C   UNL     1       1.375   9.681  19.202  0.00  0.00    +0.000 A 
ATOM     15  N   UNL     1       1.862  10.931  19.190  0.00  0.00    +0.000 NA
ATOM     16  O   UNL     1       1.202  11.622  20.189  0.00  0.00    +0.000 OA
BRANCH  12  17
ATOM     17  C   UNL     1      -0.471  11.366  21.917  0.00  0.00    +0.000 C 
BRANCH  17  19
ATOM     18  C   UNL     1       0.221   9.490  23.432  0.00  0.00    +0.000 C 
ATOM     19  C   UNL     1      -0.952  10.306  22.908  0.00  0.00    +0.000 C 
ENDBRANCH  17  19
ENDBRANCH  12  17
ENDBRANCH   1  14
BRANCH   6  20
ATOM     20  O   UNL     1       2.479   4.071  18.320  0.00  0.00    +0.000 OA
ATOM     21  C   UNL     1       3.233   2.868  18.118  0.00  0.00    +0.000 C 
ENDBRANCH   6  20
BRANCH   9  22
ATOM     22  O   UNL     1       4.890   5.430  16.202  0.00  0.00    +0.000 OA
BRANCH  22  23
ATOM     23  C   UNL     1       5.802   4.388  15.806  0.00  0.00    +0.000 C 
BRANCH  23  24
ATOM     24  C   UNL     1       6.463   4.769  14.486  0.00  0.00    +0.000 C 
BRANCH  24  25
ATOM     25  O   UNL     1       7.758   5.320  14.719  0.00  0.00    +0.000 OA
ATOM     26  H   UNL     1       7.605   6.198  15.121  0.00  0.00    +0.000 HD
ENDBRANCH  24  25
ENDBRANCH  23  24
ENDBRANCH  22  23
ENDBRANCH   9  22
TORSDOF 8
ENDMDL
