MODEL 1
REMARK VINA RESULT:      -7.4      0.000      0.000
REMARK  Name = 
REMARK  7 active torsions:
REMARK  status: ('A' for Active; 'I' for Inactive)
REMARK    1  A    between atoms: C_1  and  C_2
REMARK    2  A    between atoms: C_2  and  C_3
REMARK    3  A    between atoms: C_3  and  C_4
REMARK    4  A    between atoms: C_4  and  C_5
REMARK    5  A    between atoms: C_4  and  C_17
REMARK    6  A    between atoms: N_7  and  N_8
REMARK    7  A    between atoms: C_9  and  C_11
REMARK                            x       y       z     vdW  Elec       q    Type
REMARK                         _______ _______ _______ _____ _____    ______ ____
ROOT
ATOM      1  C   UNL     1       7.456   5.883  18.866  0.00  0.00    +0.000 C 
ATOM      2  O   UNL     1       7.739   5.728  20.058  0.00  0.00    +0.000 OA
ATOM      3  N   UNL     1       7.882   6.987  18.162  0.00  0.00    +0.000 N 
ATOM      4  H   UNL     1       7.579   7.217  17.220  0.00  0.00    +0.000 HD
ENDROOT
BRANCH   3   5
ATOM      5  N   UNL     1       8.613   7.976  18.820  0.00  0.00    +0.000 N 
ATOM      6  C   UNL     1       8.474   9.279  18.392  0.00  0.00    +0.000 C 
ATOM      7  O   UNL     1       7.698   9.608  17.496  0.00  0.00    +0.000 OA
ATOM      8  H   UNL     1       9.099   7.691  19.670  0.00  0.00    +0.000 HD
BRANCH   6   9
ATOM      9  C   UNL     1       9.318  10.293  19.074  0.00  0.00    +0.000 A 
ATOM     10  C   UNL     1       9.139  10.603  20.426  0.00  0.00    +0.000 A 
ATOM     11  C   UNL     1       9.982  11.539  20.991  0.00  0.00    +0.000 A 
ATOM     12  N   UNL     1      10.965  12.167  20.312  0.00  0.00    +0.000 NA
ATOM     13  C   UNL     1      11.128  11.836  19.012  0.00  0.00    +0.000 A 
ATOM     14  C   UNL     1      10.341  10.909  18.353  0.00  0.00    +0.000 A 
ENDBRANCH   6   9
ENDBRANCH   3   5
BRANCH   1  15
ATOM     15  C   UNL     1       6.649   4.843  18.078  0.00  0.00    +0.000 C 
BRANCH  15  16
ATOM     16  C   UNL     1       5.143   4.934  18.330  0.00  0.00    +0.000 A 
ATOM     17  C   UNL     1       4.466   3.863  18.932  0.00  0.00    +0.000 A 
ATOM     18  C   UNL     1       3.074   3.885  19.064  0.00  0.00    +0.000 A 
ATOM     19  C   UNL     1       2.342   4.983  18.617  0.00  0.00    +0.000 A 
ATOM     20  C   UNL     1       2.999   6.062  18.038  0.00  0.00    +0.000 A 
ATOM     21  C   UNL     1       4.384   6.035  17.892  0.00  0.00    +0.000 A 
ENDBRANCH  15  16
BRANCH  15  22
ATOM     22  C   UNL     1       6.907   4.866  16.560  0.00  0.00    +0.000 C 
BRANCH  22  24
ATOM     23  C   UNL     1       5.790   4.345  14.391  0.00  0.00    +0.000 C 
ATOM     24  C   UNL     1       6.184   3.788  15.756  0.00  0.00    +0.000 C 
ENDBRANCH  22  24
ENDBRANCH  15  22
ENDBRANCH   1  15
TORSDOF 6
ENDMDL
MODEL 2
REMARK VINA RESULT:      -7.3      4.671      6.780
REMARK  Name = 
REMARK  7 active torsions:
REMARK  status: ('A' for Active; 'I' for Inactive)
REMARK    1  A    between atoms: C_1  and  C_2
REMARK    2  A    between atoms: C_2  and  C_3
REMARK    3  A    between atoms: C_3  and  C_4
REMARK    4  A    between atoms: C_4  and  C_5
REMARK    5  A    between atoms: C_4  and  C_17
REMARK    6  A    between atoms: N_7  and  N_8
REMARK    7  A    between atoms: C_9  and  C_11
REMARK                            x       y       z     vdW  Elec       q    Type
REMARK                         _______ _______ _______ _____ _____    ______ ____
ROOT
ATOM      1  C   UNL     1       2.995   5.345  19.924  0.00  0.00    +0.000 C 
ATOM      2  O   UNL     1       2.512   4.809  20.925  0.00  0.00    +0.000 OA
ATOM      3  N   UNL     1       2.863   6.696  19.695  0.00  0.00    +0.000 N 
ATOM      4  H   UNL     1       3.138   7.161  18.835  0.00  0.00    +0.000 HD
ENDROOT
BRANCH   3   5
ATOM      5  N   UNL     1       2.128   7.471  20.592  0.00  0.00    +0.000 N 
ATOM      6  C   UNL     1       1.485   8.590  20.106  0.00  0.00    +0.000 C 
ATOM      7  O   UNL     1       1.488   8.899  18.916  0.00  0.00    +0.000 OA
ATOM      8  H   UNL     1       1.997   7.083  21.526  0.00  0.00    +0.000 HD
BRANCH   6   9
ATOM      9  C   UNL     1       0.767   9.425  21.104  0.00  0.00    +0.000 A 
ATOM     10  C   UNL     1       0.355   8.902  22.334  0.00  0.00    +0.000 A 
ATOM     11  C   UNL     1      -0.283   9.752  23.215  0.00  0.00    +0.000 A 
ATOM     12  N   UNL     1      -0.531  11.053  22.954  0.00  0.00    +0.000 NA
ATOM     13  C   UNL     1      -0.106  11.536  21.766  0.00  0.00    +0.000 A 
ATOM     14  C   UNL     1       0.547  10.771  20.816  0.00  0.00    +0.000 A 
ENDBRANCH   6   9
ENDBRANCH   3   5
BRANCH   1  15
ATOM     15  C   UNL     1       3.809   4.556  18.890  0.00  0.00    +0.000 C 
BRANCH  15  16
ATOM     16  C   UNL     1       5.073   5.287  18.435  0.00  0.00    +0.000 A 
ATOM     17  C   UNL     1       6.234   5.238  19.221  0.00  0.00    +0.000 A 
ATOM     18  C   UNL     1       7.359   5.994  18.877  0.00  0.00    +0.000 A 
ATOM     19  C   UNL     1       7.348   6.792  17.735  0.00  0.00    +0.000 A 
ATOM     20  C   UNL     1       6.215   6.836  16.933  0.00  0.00    +0.000 A 
ATOM     21  C   UNL     1       5.087   6.096  17.283  0.00  0.00    +0.000 A 
ENDBRANCH  15  16
BRANCH  15  22
ATOM     22  C   UNL     1       4.187   3.132  19.340  0.00  0.00    +0.000 C 
BRANCH  22  24
ATOM     23  C   UNL     1       2.477   2.517  17.632  0.00  0.00    +0.000 C 
ATOM     24  C   UNL     1       3.271   2.020  18.836  0.00  0.00    +0.000 C 
ENDBRANCH  22  24
ENDBRANCH  15  22
ENDBRANCH   1  15
TORSDOF 6
ENDMDL
MODEL 3
REMARK VINA RESULT:      -7.3      0.203      1.027
REMARK  Name = 
REMARK  7 active torsions:
REMARK  status: ('A' for Active; 'I' for Inactive)
REMARK    1  A    between atoms: C_1  and  C_2
REMARK    2  A    between atoms: C_2  and  C_3
REMARK    3  A    between atoms: C_3  and  C_4
REMARK    4  A    between atoms: C_4  and  C_5
REMARK    5  A    between atoms: C_4  and  C_17
REMARK    6  A    between atoms: N_7  and  N_8
REMARK    7  A    between atoms: C_9  and  C_11
REMARK                            x       y       z     vdW  Elec       q    Type
REMARK                         _______ _______ _______ _____ _____    ______ ____
ROOT
ATOM      1  C   UNL     1       7.553   5.880  18.794  0.00  0.00    +0.000 C 
ATOM      2  O   UNL     1       8.044   5.633  19.899  0.00  0.00    +0.000 OA
ATOM      3  N   UNL     1       7.800   7.070  18.145  0.00  0.00    +0.000 N 
ATOM      4  H   UNL     1       7.329   7.367  17.296  0.00  0.00    +0.000 HD
ENDROOT
BRANCH   3   5
ATOM      5  N   UNL     1       8.589   8.036  18.769  0.00  0.00    +0.000 N 
ATOM      6  C   UNL     1       8.470   9.342  18.345  0.00  0.00    +0.000 C 
ATOM      7  O   UNL     1       7.665   9.695  17.485  0.00  0.00    +0.000 OA
ATOM      8  H   UNL     1       9.104   7.737  19.597  0.00  0.00    +0.000 HD
BRANCH   6   9
ATOM      9  C   UNL     1       9.373  10.331  18.989  0.00  0.00    +0.000 A 
ATOM     10  C   UNL     1      10.359  11.004  18.260  0.00  0.00    +0.000 A 
ATOM     11  C   UNL     1      11.140  11.925  18.928  0.00  0.00    +0.000 A 
ATOM     12  N   UNL     1      11.004  12.210  20.241  0.00  0.00    +0.000 NA
ATOM     13  C   UNL     1      10.032  11.560  20.917  0.00  0.00    +0.000 A 
ATOM     14  C   UNL     1       9.193  10.623  20.341  0.00  0.00    +0.000 A 
ENDBRANCH   6   9
ENDBRANCH   3   5
BRANCH   1  15
ATOM     15  C   UNL     1       6.670   4.870  18.050  0.00  0.00    +0.000 C 
BRANCH  15  16
ATOM     16  C   UNL     1       5.183   5.014  18.381  0.00  0.00    +0.000 A 
ATOM     17  C   UNL     1       4.509   3.980  19.046  0.00  0.00    +0.000 A 
ATOM     18  C   UNL     1       3.127   4.049  19.251  0.00  0.00    +0.000 A 
ATOM     19  C   UNL     1       2.405   5.157  18.816  0.00  0.00    +0.000 A 
ATOM     20  C   UNL     1       3.061   6.201  18.175  0.00  0.00    +0.000 A 
ATOM     21  C   UNL     1       4.434   6.127  17.955  0.00  0.00    +0.000 A 
ENDBRANCH  15  16
BRANCH  15  22
ATOM     22  C   UNL     1       6.848   4.885  16.521  0.00  0.00    +0.000 C 
BRANCH  22  24
ATOM     23  C   UNL     1       6.286   4.000  14.258  0.00  0.00    +0.000 C 
ATOM     24  C   UNL     1       6.013   3.864  15.753  0.00  0.00    +0.000 C 
ENDBRANCH  22  24
ENDBRANCH  15  22
ENDBRANCH   1  15
TORSDOF 6
ENDMDL
MODEL 4
REMARK VINA RESULT:      -7.3      0.263      1.458
REMARK  Name = 
REMARK  7 active torsions:
REMARK  status: ('A' for Active; 'I' for Inactive)
REMARK    1  A    between atoms: C_1  and  C_2
REMARK    2  A    between atoms: C_2  and  C_3
REMARK    3  A    between atoms: C_3  and  C_4
REMARK    4  A    between atoms: C_4  and  C_5
REMARK    5  A    between atoms: C_4  and  C_17
REMARK    6  A    between atoms: N_7  and  N_8
REMARK    7  A    between atoms: C_9  and  C_11
REMARK                            x       y       z     vdW  Elec       q    Type
REMARK                         _______ _______ _______ _____ _____    ______ ____
ROOT
ATOM      1  C   UNL     1       7.334   5.763  18.848  0.00  0.00    +0.000 C 
ATOM      2  O   UNL     1       7.588   5.662  20.052  0.00  0.00    +0.000 OA
ATOM      3  N   UNL     1       7.772   6.838  18.106  0.00  0.00    +0.000 N 
ATOM      4  H   UNL     1       7.491   7.025  17.149  0.00  0.00    +0.000 HD
ENDROOT
BRANCH   3   5
ATOM      5  N   UNL     1       8.482   7.858  18.739  0.00  0.00    +0.000 N 
ATOM      6  C   UNL     1       8.385   9.132  18.220  0.00  0.00    +0.000 C 
ATOM      7  O   UNL     1       7.663   9.412  17.265  0.00  0.00    +0.000 OA
ATOM      8  H   UNL     1       8.918   7.624  19.630  0.00  0.00    +0.000 HD
BRANCH   6   9
ATOM      9  C   UNL     1       9.207  10.179  18.880  0.00  0.00    +0.000 A 
ATOM     10  C   UNL     1      10.098  10.976  18.155  0.00  0.00    +0.000 A 
ATOM     11  C   UNL     1      10.805  11.942  18.840  0.00  0.00    +0.000 A 
ATOM     12  N   UNL     1      10.684  12.158  20.167  0.00  0.00    +0.000 NA
ATOM     13  C   UNL     1       9.804  11.387  20.841  0.00  0.00    +0.000 A 
ATOM     14  C   UNL     1       9.043  10.395  20.248  0.00  0.00    +0.000 A 
ENDBRANCH   6   9
ENDBRANCH   3   5
BRANCH   1  15
ATOM     15  C   UNL     1       6.552   4.685  18.087  0.00  0.00    +0.000 C 
BRANCH  15  16
ATOM     16  C   UNL     1       5.037   4.811  18.255  0.00  0.00    +0.000 A 
ATOM     17  C   UNL     1       4.381   5.983  17.851  0.00  0.00    +0.000 A 
ATOM     18  C   UNL     1       3.016   6.158  18.104  0.00  0.00    +0.000 A 
ATOM     19  C   UNL     1       2.285   5.159  18.741  0.00  0.00    +0.000 A 
ATOM     20  C   UNL     1       2.914   3.982  19.128  0.00  0.00    +0.000 A 
ATOM     21  C   UNL     1       4.276   3.812  18.892  0.00  0.00    +0.000 A 
ENDBRANCH  15  16
BRANCH  15  22
ATOM     22  C   UNL     1       6.887   4.606  16.586  0.00  0.00    +0.000 C 
BRANCH  22  24
ATOM     23  C   UNL     1       6.212   4.000  14.263  0.00  0.00    +0.000 C 
ATOM     24  C   UNL     1       5.930   3.767  15.744  0.00  0.00    +0.000 C 
ENDBRANCH  22  24
ENDBRANCH  15  22
ENDBRANCH   1  15
TORSDOF 6
ENDMDL
MODEL 5
REMARK VINA RESULT:      -7.3      4.966      7.124
REMARK  Name = 
REMARK  7 active torsions:
REMARK  status: ('A' for Active; 'I' for Inactive)
REMARK    1  A    between atoms: C_1  and  C_2
REMARK    2  A    between atoms: C_2  and  C_3
REMARK    3  A    between atoms: C_3  and  C_4
REMARK    4  A    between atoms: C_4  and  C_5
REMARK    5  A    between atoms: C_4  and  C_17
REMARK    6  A    between atoms: N_7  and  N_8
REMARK    7  A    between atoms: C_9  and  C_11
REMARK                            x       y       z     vdW  Elec       q    Type
REMARK                         _______ _______ _______ _____ _____    ______ ____
ROOT
ATOM      1  C   UNL     1       2.779   6.338  19.197  0.00  0.00    +0.000 C 
ATOM      2  O   UNL     1       2.621   5.711  20.249  0.00  0.00    +0.000 OA
ATOM      3  N   UNL     1       2.319   7.627  19.050  0.00  0.00    +0.000 N 
ATOM      4  H   UNL     1       2.319   8.139  18.173  0.00  0.00    +0.000 HD
ENDROOT
BRANCH   3   5
ATOM      5  N   UNL     1       1.620   8.226  20.099  0.00  0.00    +0.000 N 
ATOM      6  C   UNL     1       1.039   9.455  19.871  0.00  0.00    +0.000 C 
ATOM      7  O   UNL     1       1.067  10.016  18.777  0.00  0.00    +0.000 OA
ATOM      8  H   UNL     1       1.462   7.651  20.926  0.00  0.00    +0.000 HD
BRANCH   6   9
ATOM      9  C   UNL     1       0.359  10.089  21.030  0.00  0.00    +0.000 A 
ATOM     10  C   UNL     1       0.002  11.441  21.019  0.00  0.00    +0.000 A 
ATOM     11  C   UNL     1      -0.649  11.946  22.127  0.00  0.00    +0.000 A 
ATOM     12  N   UNL     1      -0.959  11.208  23.214  0.00  0.00    +0.000 NA
ATOM     13  C   UNL     1      -0.619   9.901  23.191  0.00  0.00    +0.000 A 
ATOM     14  C   UNL     1       0.031   9.296  22.130  0.00  0.00    +0.000 A 
ENDBRANCH   6   9
ENDBRANCH   3   5
BRANCH   1  15
ATOM     15  C   UNL     1       3.531   5.743  17.999  0.00  0.00    +0.000 C 
BRANCH  15  16
ATOM     16  C   UNL     1       5.044   5.957  18.074  0.00  0.00    +0.000 A 
ATOM     17  C   UNL     1       5.793   5.328  19.079  0.00  0.00    +0.000 A 
ATOM     18  C   UNL     1       7.156   5.605  19.229  0.00  0.00    +0.000 A 
ATOM     19  C   UNL     1       7.793   6.494  18.367  0.00  0.00    +0.000 A 
ATOM     20  C   UNL     1       7.071   7.109  17.352  0.00  0.00    +0.000 A 
ATOM     21  C   UNL     1       5.710   6.847  17.211  0.00  0.00    +0.000 A 
ENDBRANCH  15  16
BRANCH  15  22
ATOM     22  C   UNL     1       3.246   4.249  17.757  0.00  0.00    +0.000 C 
BRANCH  22  24
ATOM     23  C   UNL     1       1.351   2.823  18.529  0.00  0.00    +0.000 C 
ATOM     24  C   UNL     1       1.780   3.891  17.527  0.00  0.00    +0.000 C 
ENDBRANCH  22  24
ENDBRANCH  15  22
ENDBRANCH   1  15
TORSDOF 6
ENDMDL
MODEL 6
REMARK VINA RESULT:      -7.3      0.559      1.095
REMARK  Name = 
REMARK  7 active torsions:
REMARK  status: ('A' for Active; 'I' for Inactive)
REMARK    1  A    between atoms: C_1  and  C_2
REMARK    2  A    between atoms: C_2  and  C_3
REMARK    3  A    between atoms: C_3  and  C_4
REMARK    4  A    between atoms: C_4  and  C_5
REMARK    5  A    between atoms: C_4  and  C_17
REMARK    6  A    between atoms: N_7  and  N_8
REMARK    7  A    between atoms: C_9  and  C_11
REMARK                            x       y       z     vdW  Elec       q    Type
REMARK                         _______ _______ _______ _____ _____    ______ ____
ROOT
ATOM      1  C   UNL     1       7.307   5.739  18.795  0.00  0.00    +0.000 C 
ATOM      2  O   UNL     1       7.495   5.664  20.013  0.00  0.00    +0.000 OA
ATOM      3  N   UNL     1       7.785   6.798  18.056  0.00  0.00    +0.000 N 
ATOM      4  H   UNL     1       7.557   6.965  17.081  0.00  0.00    +0.000 HD
ENDROOT
BRANCH   3   5
ATOM      5  N   UNL     1       8.460   7.832  18.705  0.00  0.00    +0.000 N 
ATOM      6  C   UNL     1       8.349   9.104  18.184  0.00  0.00    +0.000 C 
ATOM      7  O   UNL     1       7.644   9.370  17.213  0.00  0.00    +0.000 OA
ATOM      8  H   UNL     1       8.879   7.606  19.606  0.00  0.00    +0.000 HD
BRANCH   6   9
ATOM      9  C   UNL     1       9.135  10.167  18.864  0.00  0.00    +0.000 A 
ATOM     10  C   UNL     1       9.061  10.359  20.247  0.00  0.00    +0.000 A 
ATOM     11  C   UNL     1       9.842  11.352  20.803  0.00  0.00    +0.000 A 
ATOM     12  N   UNL     1      10.669  12.143  20.087  0.00  0.00    +0.000 NA
ATOM     13  C   UNL     1      10.735  11.924  18.756  0.00  0.00    +0.000 A 
ATOM     14  C   UNL     1       9.998  10.953  18.101  0.00  0.00    +0.000 A 
ENDBRANCH   6   9
ENDBRANCH   3   5
BRANCH   1  15
ATOM     15  C   UNL     1       6.567   4.644  18.015  0.00  0.00    +0.000 C 
BRANCH  15  16
ATOM     16  C   UNL     1       5.055   4.870  17.950  0.00  0.00    +0.000 A 
ATOM     17  C   UNL     1       4.533   6.165  18.079  0.00  0.00    +0.000 A 
ATOM     18  C   UNL     1       3.151   6.373  18.137  0.00  0.00    +0.000 A 
ATOM     19  C   UNL     1       2.273   5.295  18.046  0.00  0.00    +0.000 A 
ATOM     20  C   UNL     1       2.773   4.008  17.895  0.00  0.00    +0.000 A 
ATOM     21  C   UNL     1       4.149   3.797  17.853  0.00  0.00    +0.000 A 
ENDBRANCH  15  16
BRANCH  15  22
ATOM     22  C   UNL     1       7.103   4.416  16.590  0.00  0.00    +0.000 C 
BRANCH  22  24
ATOM     23  C   UNL     1       6.273   3.956  14.283  0.00  0.00    +0.000 C 
ATOM     24  C   UNL     1       6.205   4.921  15.463  0.00  0.00    +0.000 C 
ENDBRANCH  22  24
ENDBRANCH  15  22
ENDBRANCH   1  15
TORSDOF 6
ENDMDL
MODEL 7
REMARK VINA RESULT:      -7.2      4.680      6.842
REMARK  Name = 
REMARK  7 active torsions:
REMARK  status: ('A' for Active; 'I' for Inactive)
REMARK    1  A    between atoms: C_1  and  C_2
REMARK    2  A    between atoms: C_2  and  C_3
REMARK    3  A    between atoms: C_3  and  C_4
REMARK    4  A    between atoms: C_4  and  C_5
REMARK    5  A    between atoms: C_4  and  C_17
REMARK    6  A    between atoms: N_7  and  N_8
REMARK    7  A    between atoms: C_9  and  C_11
REMARK                            x       y       z     vdW  Elec       q    Type
REMARK                         _______ _______ _______ _____ _____    ______ ____
ROOT
ATOM      1  C   UNL     1       2.940   5.233  20.002  0.00  0.00    +0.000 C 
ATOM      2  O   UNL     1       2.592   4.751  21.084  0.00  0.00    +0.000 OA
ATOM      3  N   UNL     1       2.664   6.542  19.675  0.00  0.00    +0.000 N 
ATOM      4  H   UNL     1       2.823   6.949  18.758  0.00  0.00    +0.000 HD
ENDROOT
BRANCH   3   5
ATOM      5  N   UNL     1       1.936   7.329  20.568  0.00  0.00    +0.000 N 
ATOM      6  C   UNL     1       1.518   8.573  20.142  0.00  0.00    +0.000 C 
ATOM      7  O   UNL     1       1.712   8.989  19.001  0.00  0.00    +0.000 OA
ATOM      8  H   UNL     1       1.638   6.879  21.432  0.00  0.00    +0.000 HD
BRANCH   6   9
ATOM      9  C   UNL     1       0.803   9.407  21.142  0.00  0.00    +0.000 A 
ATOM     10  C   UNL     1       0.226  10.632  20.794  0.00  0.00    +0.000 A 
ATOM     11  C   UNL     1      -0.442  11.333  21.777  0.00  0.00    +0.000 A 
ATOM     12  N   UNL     1      -0.568  10.903  23.050  0.00  0.00    +0.000 NA
ATOM     13  C   UNL     1      -0.017   9.708  23.355  0.00  0.00    +0.000 A 
ATOM     14  C   UNL     1       0.669   8.925  22.444  0.00  0.00    +0.000 A 
ENDBRANCH   6   9
ENDBRANCH   3   5
BRANCH   1  15
ATOM     15  C   UNL     1       3.736   4.426  18.968  0.00  0.00    +0.000 C 
BRANCH  15  16
ATOM     16  C   UNL     1       4.976   5.162  18.457  0.00  0.00    +0.000 A 
ATOM     17  C   UNL     1       6.136   5.212  19.244  0.00  0.00    +0.000 A 
ATOM     18  C   UNL     1       7.236   5.976  18.841  0.00  0.00    +0.000 A 
ATOM     19  C   UNL     1       7.201   6.683  17.641  0.00  0.00    +0.000 A 
ATOM     20  C   UNL     1       6.068   6.627  16.839  0.00  0.00    +0.000 A 
ATOM     21  C   UNL     1       4.965   5.879  17.246  0.00  0.00    +0.000 A 
ENDBRANCH  15  16
BRANCH  15  22
ATOM     22  C   UNL     1       4.147   3.022  19.448  0.00  0.00    +0.000 C 
BRANCH  22  24
ATOM     23  C   UNL     1       2.487   2.399  17.694  0.00  0.00    +0.000 C 
ATOM     24  C   UNL     1       3.426   1.860  18.769  0.00  0.00    +0.000 C 
ENDBRANCH  22  24
ENDBRANCH  15  22
ENDBRANCH   1  15
TORSDOF 6
ENDMDL
MODEL 8
REMARK VINA RESULT:      -7.2      5.573      7.503
REMARK  Name = 
REMARK  7 active torsions:
REMARK  status: ('A' for Active; 'I' for Inactive)
REMARK    1  A    between atoms: C_1  and  C_2
REMARK    2  A    between atoms: C_2  and  C_3
REMARK    3  A    between atoms: C_3  and  C_4
REMARK    4  A    between atoms: C_4  and  C_5
REMARK    5  A    between atoms: C_4  and  C_17
REMARK    6  A    between atoms: N_7  and  N_8
REMARK    7  A    between atoms: C_9  and  C_11
REMARK                            x       y       z     vdW  Elec       q    Type
REMARK                         _______ _______ _______ _____ _____    ______ ____
ROOT
ATOM      1  C   UNL     1       2.135   6.839  19.816  0.00  0.00    +0.000 C 
ATOM      2  O   UNL     1       2.217   7.667  18.904  0.00  0.00    +0.000 OA
ATOM      3  N   UNL     1       1.737   7.201  21.084  0.00  0.00    +0.000 N 
ATOM      4  H   UNL     1       1.767   6.586  21.891  0.00  0.00    +0.000 HD
ENDROOT
BRANCH   3   5
ATOM      5  N   UNL     1       1.460   8.541  21.355  0.00  0.00    +0.000 N 
ATOM      6  C   UNL     1       0.156   8.888  21.639  0.00  0.00    +0.000 C 
ATOM      7  O   UNL     1      -0.754   8.064  21.714  0.00  0.00    +0.000 OA
ATOM      8  H   UNL     1       2.264   9.158  21.466  0.00  0.00    +0.000 HD
BRANCH   6   9
ATOM      9  C   UNL     1      -0.110  10.333  21.858  0.00  0.00    +0.000 A 
ATOM     10  C   UNL     1      -0.982  10.773  22.859  0.00  0.00    +0.000 A 
ATOM     11  C   UNL     1      -1.155  12.133  23.013  0.00  0.00    +0.000 A 
ATOM     12  N   UNL     1      -0.529  13.058  22.254  0.00  0.00    +0.000 NA
ATOM     13  C   UNL     1       0.323  12.607  21.308  0.00  0.00    +0.000 A 
ATOM     14  C   UNL     1       0.570  11.266  21.075  0.00  0.00    +0.000 A 
ENDBRANCH   6   9
ENDBRANCH   3   5
BRANCH   1  15
ATOM     15  C   UNL     1       2.431   5.350  19.594  0.00  0.00    +0.000 C 
BRANCH  15  16
ATOM     16  C   UNL     1       3.694   5.105  18.767  0.00  0.00    +0.000 A 
ATOM     17  C   UNL     1       3.592   4.595  17.464  0.00  0.00    +0.000 A 
ATOM     18  C   UNL     1       4.740   4.259  16.740  0.00  0.00    +0.000 A 
ATOM     19  C   UNL     1       6.003   4.445  17.296  0.00  0.00    +0.000 A 
ATOM     20  C   UNL     1       6.123   4.970  18.577  0.00  0.00    +0.000 A 
ATOM     21  C   UNL     1       4.981   5.291  19.306  0.00  0.00    +0.000 A 
ENDBRANCH  15  16
BRANCH  15  22
ATOM     22  C   UNL     1       2.513   4.526  20.893  0.00  0.00    +0.000 C 
BRANCH  22  24
ATOM     23  C   UNL     1       0.833   3.003  19.854  0.00  0.00    +0.000 C 
ATOM     24  C   UNL     1       2.043   3.078  20.780  0.00  0.00    +0.000 C 
ENDBRANCH  22  24
ENDBRANCH  15  22
ENDBRANCH   1  15
TORSDOF 6
ENDMDL
MODEL 9
REMARK VINA RESULT:      -7.1      5.056      6.967
REMARK  Name = 
REMARK  7 active torsions:
REMARK  status: ('A' for Active; 'I' for Inactive)
REMARK    1  A    between atoms: C_1  and  C_2
REMARK    2  A    between atoms: C_2  and  C_3
REMARK    3  A    between atoms: C_3  and  C_4
REMARK    4  A    between atoms: C_4  and  C_5
REMARK    5  A    between atoms: C_4  and  C_17
REMARK    6  A    between atoms: N_7  and  N_8
REMARK    7  A    between atoms: C_9  and  C_11
REMARK                            x       y       z     vdW  Elec       q    Type
REMARK                         _______ _______ _______ _____ _____    ______ ____
ROOT
ATOM      1  C   UNL     1       3.289   4.980  18.127  0.00  0.00    +0.000 C 
ATOM      2  O   UNL     1       2.522   4.363  17.382  0.00  0.00    +0.000 OA
ATOM      3  N   UNL     1       4.606   5.197  17.787  0.00  0.00    +0.000 N 
ATOM      4  H   UNL     1       5.301   5.592  18.412  0.00  0.00    +0.000 HD
ENDROOT
BRANCH   3   5
ATOM      5  N   UNL     1       5.097   4.671  16.591  0.00  0.00    +0.000 N 
ATOM      6  C   UNL     1       5.724   5.531  15.715  0.00  0.00    +0.000 C 
ATOM      7  O   UNL     1       5.915   6.720  15.966  0.00  0.00    +0.000 OA
ATOM      8  H   UNL     1       5.085   3.656  16.503  0.00  0.00    +0.000 HD
BRANCH   6   9
ATOM      9  C   UNL     1       6.175   4.947  14.425  0.00  0.00    +0.000 A 
ATOM     10  C   UNL     1       7.381   5.331  13.830  0.00  0.00    +0.000 A 
ATOM     11  C   UNL     1       7.738   4.722  12.645  0.00  0.00    +0.000 A 
ATOM     12  N   UNL     1       6.991   3.780  12.032  0.00  0.00    +0.000 NA
ATOM     13  C   UNL     1       5.840   3.414  12.637  0.00  0.00    +0.000 A 
ATOM     14  C   UNL     1       5.393   3.959  13.828  0.00  0.00    +0.000 A 
ENDBRANCH   6   9
ENDBRANCH   3   5
BRANCH   1  15
ATOM     15  C   UNL     1       2.823   5.580  19.460  0.00  0.00    +0.000 C 
BRANCH  15  16
ATOM     16  C   UNL     1       2.324   7.020  19.328  0.00  0.00    +0.000 A 
ATOM     17  C   UNL     1       1.730   7.659  20.426  0.00  0.00    +0.000 A 
ATOM     18  C   UNL     1       1.166   8.932  20.288  0.00  0.00    +0.000 A 
ATOM     19  C   UNL     1       1.207   9.591  19.061  0.00  0.00    +0.000 A 
ATOM     20  C   UNL     1       1.812   8.981  17.969  0.00  0.00    +0.000 A 
ATOM     21  C   UNL     1       2.360   7.707  18.101  0.00  0.00    +0.000 A 
ENDBRANCH  15  16
BRANCH  15  22
ATOM     22  C   UNL     1       1.755   4.742  20.187  0.00  0.00    +0.000 C 
BRANCH  22  24
ATOM     23  C   UNL     1       1.499   2.676  21.560  0.00  0.00    +0.000 C 
ATOM     24  C   UNL     1       2.236   4.006  21.435  0.00  0.00    +0.000 C 
ENDBRANCH  22  24
ENDBRANCH  15  22
ENDBRANCH   1  15
TORSDOF 6
ENDMDL
