MODEL 1
REMARK VINA RESULT:      -8.0      0.000      0.000
REMARK  Name = 
REMARK  7 active torsions:
REMARK  status: ('A' for Active; 'I' for Inactive)
REMARK    1  A    between atoms: C_1  and  C_2
REMARK    2  A    between atoms: C_2  and  C_3
REMARK    3  A    between atoms: C_2  and  O_4
REMARK    4  A    between atoms: O_4  and  C_5
REMARK    5  A    between atoms: C_5  and  C_7
REMARK    6  A    between atoms: C_13  and  N_14
REMARK    7  A    between atoms: C_15  and  C_17
REMARK                            x       y       z     vdW  Elec       q    Type
REMARK                         _______ _______ _______ _____ _____    ______ ____
ROOT
ATOM      1  C   UNL     1       6.729   4.611  16.154  0.00  0.00    +0.000 A 
ATOM      2  C   UNL     1       7.472   4.929  14.993  0.00  0.00    +0.000 A 
ATOM      3  C   UNL     1       7.046   4.526  13.729  0.00  0.00    +0.000 A 
ATOM      4  C   UNL     1       5.859   3.827  13.606  0.00  0.00    +0.000 A 
ATOM      5 CL   UNL     1       5.329   3.304  12.055  0.00  0.00    +0.000 Cl
ATOM      6  C   UNL     1       5.094   3.536  14.734  0.00  0.00    +0.000 A 
ATOM      7  C   UNL     1       5.517   3.889  16.030  0.00  0.00    +0.000 A 
ENDROOT
BRANCH   7   8
ATOM      8  N   UNL     1       4.738   3.519  17.174  0.00  0.00    +0.000 N 
ATOM      9  C   UNL     1       3.770   4.324  17.765  0.00  0.00    +0.000 C 
ATOM     10  O   UNL     1       3.425   5.424  17.330  0.00  0.00    +0.000 OA
ATOM     11  H   UNL     1       4.821   2.548  17.487  0.00  0.00    +0.000 HD
BRANCH   9  12
ATOM     12  C   UNL     1       3.041   3.849  18.970  0.00  0.00    +0.000 A 
ATOM     13  C   UNL     1       1.677   4.194  19.075  0.00  0.00    +0.000 A 
ATOM     14  C   UNL     1       0.901   3.764  20.152  0.00  0.00    +0.000 A 
ATOM     15  C   UNL     1       1.480   2.986  21.149  0.00  0.00    +0.000 A 
ATOM     16  C   UNL     1       2.835   2.656  21.071  0.00  0.00    +0.000 A 
ATOM     17  C   UNL     1       3.608   3.089  19.988  0.00  0.00    +0.000 A 
ATOM     18  F   UNL     1       4.904   2.752  19.958  0.00  0.00    +0.000 F 
ENDBRANCH   9  12
ENDBRANCH   7   8
BRANCH   1  19
ATOM     19  C   UNL     1       7.283   4.988  17.489  0.00  0.00    +0.000 C 
ATOM     20  O   UNL     1       7.206   4.282  18.482  0.00  0.00    +0.000 OA
BRANCH  19  21
ATOM     21  O   UNL     1       7.922   6.188  17.411  0.00  0.00    +0.000 OA
BRANCH  21  23
ATOM     22  C   UNL     1       8.167   8.552  17.847  0.00  0.00    +0.000 C 
ATOM     23  C   UNL     1       7.264   7.332  17.994  0.00  0.00    +0.000 C 
ATOM     24  C   UNL     1       5.960   7.552  17.233  0.00  0.00    +0.000 C 
ENDBRANCH  21  23
ENDBRANCH  19  21
ENDBRANCH   1  19
TORSDOF 5
ENDMDL
MODEL 2
REMARK VINA RESULT:      -7.9      0.930      1.018
REMARK  Name = 
REMARK  7 active torsions:
REMARK  status: ('A' for Active; 'I' for Inactive)
REMARK    1  A    between atoms: C_1  and  C_2
REMARK    2  A    between atoms: C_2  and  C_3
REMARK    3  A    between atoms: C_2  and  O_4
REMARK    4  A    between atoms: O_4  and  C_5
REMARK    5  A    between atoms: C_5  and  C_7
REMARK    6  A    between atoms: C_13  and  N_14
REMARK    7  A    between atoms: C_15  and  C_17
REMARK                            x       y       z     vdW  Elec       q    Type
REMARK                         _______ _______ _______ _____ _____    ______ ____
ROOT
ATOM      1  C   UNL     1       6.736   4.622  16.149  0.00  0.00    +0.000 A 
ATOM      2  C   UNL     1       7.494   4.946  15.000  0.00  0.00    +0.000 A 
ATOM      3  C   UNL     1       7.085   4.550  13.728  0.00  0.00    +0.000 A 
ATOM      4  C   UNL     1       5.899   3.852  13.587  0.00  0.00    +0.000 A 
ATOM      5 CL   UNL     1       5.389   3.338  12.026  0.00  0.00    +0.000 Cl
ATOM      6  C   UNL     1       5.119   3.556  14.703  0.00  0.00    +0.000 A 
ATOM      7  C   UNL     1       5.525   3.902  16.006  0.00  0.00    +0.000 A 
ENDROOT
BRANCH   7   8
ATOM      8  N   UNL     1       4.731   3.527  17.138  0.00  0.00    +0.000 N 
ATOM      9  C   UNL     1       3.739   4.318  17.705  0.00  0.00    +0.000 C 
ATOM     10  O   UNL     1       3.382   5.409  17.254  0.00  0.00    +0.000 OA
ATOM     11  H   UNL     1       4.825   2.559  17.460  0.00  0.00    +0.000 HD
BRANCH   9  12
ATOM     12  C   UNL     1       2.994   3.839  18.899  0.00  0.00    +0.000 A 
ATOM     13  C   UNL     1       2.998   4.672  20.037  0.00  0.00    +0.000 A 
ATOM     14  C   UNL     1       2.299   4.324  21.193  0.00  0.00    +0.000 A 
ATOM     15  C   UNL     1       1.588   3.129  21.232  0.00  0.00    +0.000 A 
ATOM     16  C   UNL     1       1.594   2.283  20.122  0.00  0.00    +0.000 A 
ATOM     17  C   UNL     1       2.296   2.637  18.965  0.00  0.00    +0.000 A 
ATOM     18  F   UNL     1       2.278   1.792  17.926  0.00  0.00    +0.000 F 
ENDBRANCH   9  12
ENDBRANCH   7   8
BRANCH   1  19
ATOM     19  C   UNL     1       7.273   4.991  17.494  0.00  0.00    +0.000 C 
ATOM     20  O   UNL     1       7.172   4.286  18.485  0.00  0.00    +0.000 OA
BRANCH  19  21
ATOM     21  O   UNL     1       7.927   6.184  17.427  0.00  0.00    +0.000 OA
BRANCH  21  23
ATOM     22  C   UNL     1       8.166   8.557  17.816  0.00  0.00    +0.000 C 
ATOM     23  C   UNL     1       7.268   7.337  17.992  0.00  0.00    +0.000 C 
ATOM     24  C   UNL     1       5.959   7.538  17.234  0.00  0.00    +0.000 C 
ENDBRANCH  21  23
ENDBRANCH  19  21
ENDBRANCH   1  19
TORSDOF 5
ENDMDL
MODEL 3
REMARK VINA RESULT:      -7.7      1.122      1.657
REMARK  Name = 
REMARK  7 active torsions:
REMARK  status: ('A' for Active; 'I' for Inactive)
REMARK    1  A    between atoms: C_1  and  C_2
REMARK    2  A    between atoms: C_2  and  C_3
REMARK    3  A    between atoms: C_2  and  O_4
REMARK    4  A    between atoms: O_4  and  C_5
REMARK    5  A    between atoms: C_5  and  C_7
REMARK    6  A    between atoms: C_13  and  N_14
REMARK    7  A    between atoms: C_15  and  C_17
REMARK                            x       y       z     vdW  Elec       q    Type
REMARK                         _______ _______ _______ _____ _____    ______ ____
ROOT
ATOM      1  C   UNL     1       6.803   4.443  16.068  0.00  0.00    +0.000 A 
ATOM      2  C   UNL     1       7.519   4.808  14.905  0.00  0.00    +0.000 A 
ATOM      3  C   UNL     1       7.037   4.504  13.633  0.00  0.00    +0.000 A 
ATOM      4  C   UNL     1       5.819   3.859  13.508  0.00  0.00    +0.000 A 
ATOM      5 CL   UNL     1       5.219   3.458  11.946  0.00  0.00    +0.000 Cl
ATOM      6  C   UNL     1       5.081   3.525  14.642  0.00  0.00    +0.000 A 
ATOM      7  C   UNL     1       5.559   3.777  15.942  0.00  0.00    +0.000 A 
ENDROOT
BRANCH   7   8
ATOM      8  N   UNL     1       4.804   3.363  17.086  0.00  0.00    +0.000 N 
ATOM      9  C   UNL     1       3.762   4.091  17.651  0.00  0.00    +0.000 C 
ATOM     10  O   UNL     1       3.325   5.146  17.188  0.00  0.00    +0.000 OA
ATOM     11  H   UNL     1       4.970   2.410  17.422  0.00  0.00    +0.000 HD
BRANCH   9  12
ATOM     12  C   UNL     1       3.065   3.578  18.860  0.00  0.00    +0.000 A 
ATOM     13  C   UNL     1       3.871   3.106  19.917  0.00  0.00    +0.000 A 
ATOM     14  C   UNL     1       3.308   2.639  21.105  0.00  0.00    +0.000 A 
ATOM     15  C   UNL     1       1.925   2.629  21.253  0.00  0.00    +0.000 A 
ATOM     16  C   UNL     1       1.113   3.070  20.206  0.00  0.00    +0.000 A 
ATOM     17  C   UNL     1       1.683   3.539  19.017  0.00  0.00    +0.000 A 
ATOM     18  F   UNL     1       0.865   3.948  18.038  0.00  0.00    +0.000 F 
ENDBRANCH   9  12
ENDBRANCH   7   8
BRANCH   1  19
ATOM     19  C   UNL     1       7.414   4.712  17.405  0.00  0.00    +0.000 C 
ATOM     20  O   UNL     1       8.360   4.087  17.859  0.00  0.00    +0.000 OA
BRANCH  19  21
ATOM     21  O   UNL     1       6.802   5.775  17.997  0.00  0.00    +0.000 OA
BRANCH  21  23
ATOM     22  C   UNL     1       5.331   7.602  17.419  0.00  0.00    +0.000 C 
ATOM     23  C   UNL     1       6.721   7.001  17.241  0.00  0.00    +0.000 C 
ATOM     24  C   UNL     1       7.777   7.955  17.795  0.00  0.00    +0.000 C 
ENDBRANCH  21  23
ENDBRANCH  19  21
ENDBRANCH   1  19
TORSDOF 5
ENDMDL
MODEL 4
REMARK VINA RESULT:      -7.6      4.160      6.016
REMARK  Name = 
REMARK  7 active torsions:
REMARK  status: ('A' for Active; 'I' for Inactive)
REMARK    1  A    between atoms: C_1  and  C_2
REMARK    2  A    between atoms: C_2  and  C_3
REMARK    3  A    between atoms: C_2  and  O_4
REMARK    4  A    between atoms: O_4  and  C_5
REMARK    5  A    between atoms: C_5  and  C_7
REMARK    6  A    between atoms: C_13  and  N_14
REMARK    7  A    between atoms: C_15  and  C_17
REMARK                            x       y       z     vdW  Elec       q    Type
REMARK                         _______ _______ _______ _____ _____    ______ ____
ROOT
ATOM      1  C   UNL     1       3.098   4.947  17.819  0.00  0.00    +0.000 A 
ATOM      2  C   UNL     1       4.042   4.129  17.157  0.00  0.00    +0.000 A 
ATOM      3  C   UNL     1       5.325   4.592  16.870  0.00  0.00    +0.000 A 
ATOM      4  C   UNL     1       5.688   5.866  17.268  0.00  0.00    +0.000 A 
ATOM      5 CL   UNL     1       7.262   6.461  16.904  0.00  0.00    +0.000 Cl
ATOM      6  C   UNL     1       4.784   6.673  17.956  0.00  0.00    +0.000 A 
ATOM      7  C   UNL     1       3.467   6.253  18.222  0.00  0.00    +0.000 A 
ENDROOT
BRANCH   7   8
ATOM      8  N   UNL     1       2.542   7.132  18.874  0.00  0.00    +0.000 N 
ATOM      9  C   UNL     1       2.110   8.349  18.360  0.00  0.00    +0.000 C 
ATOM     10  O   UNL     1       2.423   8.780  17.248  0.00  0.00    +0.000 OA
ATOM     11  H   UNL     1       2.083   6.768  19.714  0.00  0.00    +0.000 HD
BRANCH   9  12
ATOM     12  C   UNL     1       1.169   9.196  19.139  0.00  0.00    +0.000 A 
ATOM     13  C   UNL     1       0.350  10.085  18.412  0.00  0.00    +0.000 A 
ATOM     14  C   UNL     1      -0.589  10.894  19.052  0.00  0.00    +0.000 A 
ATOM     15  C   UNL     1      -0.719  10.832  20.436  0.00  0.00    +0.000 A 
ATOM     16  C   UNL     1       0.101   9.974  21.171  0.00  0.00    +0.000 A 
ATOM     17  C   UNL     1       1.040   9.164  20.523  0.00  0.00    +0.000 A 
ATOM     18  F   UNL     1       1.809   8.361  21.270  0.00  0.00    +0.000 F 
ENDBRANCH   9  12
ENDBRANCH   7   8
BRANCH   1  19
ATOM     19  C   UNL     1       1.709   4.429  18.015  0.00  0.00    +0.000 C 
ATOM     20  O   UNL     1       0.947   4.163  17.101  0.00  0.00    +0.000 OA
BRANCH  19  21
ATOM     21  O   UNL     1       1.457   4.252  19.342  0.00  0.00    +0.000 OA
BRANCH  21  23
ATOM     22  C   UNL     1       1.741   3.169  21.483  0.00  0.00    +0.000 C 
ATOM     23  C   UNL     1       2.168   3.195  20.020  0.00  0.00    +0.000 C 
ATOM     24  C   UNL     1       1.793   1.880  19.343  0.00  0.00    +0.000 C 
ENDBRANCH  21  23
ENDBRANCH  19  21
ENDBRANCH   1  19
TORSDOF 5
ENDMDL
MODEL 5
REMARK VINA RESULT:      -7.6      0.986      1.226
REMARK  Name = 
REMARK  7 active torsions:
REMARK  status: ('A' for Active; 'I' for Inactive)
REMARK    1  A    between atoms: C_1  and  C_2
REMARK    2  A    between atoms: C_2  and  C_3
REMARK    3  A    between atoms: C_2  and  O_4
REMARK    4  A    between atoms: O_4  and  C_5
REMARK    5  A    between atoms: C_5  and  C_7
REMARK    6  A    between atoms: C_13  and  N_14
REMARK    7  A    between atoms: C_15  and  C_17
REMARK                            x       y       z     vdW  Elec       q    Type
REMARK                         _______ _______ _______ _____ _____    ______ ____
ROOT
ATOM      1  C   UNL     1       6.686   4.581  16.211  0.00  0.00    +0.000 A 
ATOM      2  C   UNL     1       7.424   4.605  15.005  0.00  0.00    +0.000 A 
ATOM      3  C   UNL     1       6.818   4.326  13.781  0.00  0.00    +0.000 A 
ATOM      4  C   UNL     1       5.463   4.050  13.745  0.00  0.00    +0.000 A 
ATOM      5 CL   UNL     1       4.703   3.684  12.245  0.00  0.00    +0.000 Cl
ATOM      6  C   UNL     1       4.712   4.060  14.919  0.00  0.00    +0.000 A 
ATOM      7  C   UNL     1       5.301   4.293  16.176  0.00  0.00    +0.000 A 
ENDROOT
BRANCH   7   8
ATOM      8  N   UNL     1       4.511   4.233  17.370  0.00  0.00    +0.000 N 
ATOM      9  C   UNL     1       3.896   3.084  17.854  0.00  0.00    +0.000 C 
ATOM     10  O   UNL     1       4.016   1.968  17.345  0.00  0.00    +0.000 OA
ATOM     11  H   UNL     1       4.514   5.069  17.961  0.00  0.00    +0.000 HD
BRANCH   9  12
ATOM     12  C   UNL     1       3.073   3.144  19.091  0.00  0.00    +0.000 A 
ATOM     13  C   UNL     1       1.781   3.698  18.979  0.00  0.00    +0.000 A 
ATOM     14  C   UNL     1       0.923   3.764  20.078  0.00  0.00    +0.000 A 
ATOM     15  C   UNL     1       1.348   3.282  21.311  0.00  0.00    +0.000 A 
ATOM     16  C   UNL     1       2.633   2.752  21.443  0.00  0.00    +0.000 A 
ATOM     17  C   UNL     1       3.489   2.688  20.338  0.00  0.00    +0.000 A 
ATOM     18  F   UNL     1       4.714   2.176  20.512  0.00  0.00    +0.000 F 
ENDBRANCH   9  12
ENDBRANCH   7   8
BRANCH   1  19
ATOM     19  C   UNL     1       7.409   4.796  17.501  0.00  0.00    +0.000 C 
ATOM     20  O   UNL     1       8.282   4.054  17.924  0.00  0.00    +0.000 OA
BRANCH  19  21
ATOM     21  O   UNL     1       6.991   5.952  18.088  0.00  0.00    +0.000 OA
BRANCH  21  23
ATOM     22  C   UNL     1       5.491   7.671  17.293  0.00  0.00    +0.000 C 
ATOM     23  C   UNL     1       6.916   7.130  17.258  0.00  0.00    +0.000 C 
ATOM     24  C   UNL     1       7.881   8.162  17.835  0.00  0.00    +0.000 C 
ENDBRANCH  21  23
ENDBRANCH  19  21
ENDBRANCH   1  19
TORSDOF 5
ENDMDL
MODEL 6
REMARK VINA RESULT:      -7.6      1.197      1.199
REMARK  Name = 
REMARK  7 active torsions:
REMARK  status: ('A' for Active; 'I' for Inactive)
REMARK    1  A    between atoms: C_1  and  C_2
REMARK    2  A    between atoms: C_2  and  C_3
REMARK    3  A    between atoms: C_2  and  O_4
REMARK    4  A    between atoms: O_4  and  C_5
REMARK    5  A    between atoms: C_5  and  C_7
REMARK    6  A    between atoms: C_13  and  N_14
REMARK    7  A    between atoms: C_15  and  C_17
REMARK                            x       y       z     vdW  Elec       q    Type
REMARK                         _______ _______ _______ _____ _____    ______ ____
ROOT
ATOM      1  C   UNL     1       6.611   4.721  15.734  0.00  0.00    +0.000 A 
ATOM      2  C   UNL     1       7.419   4.581  14.582  0.00  0.00    +0.000 A 
ATOM      3  C   UNL     1       6.882   4.154  13.369  0.00  0.00    +0.000 A 
ATOM      4  C   UNL     1       5.526   3.891  13.286  0.00  0.00    +0.000 A 
ATOM      5 CL   UNL     1       4.850   3.343  11.801  0.00  0.00    +0.000 Cl
ATOM      6  C   UNL     1       4.707   4.060  14.400  0.00  0.00    +0.000 A 
ATOM      7  C   UNL     1       5.224   4.446  15.651  0.00  0.00    +0.000 A 
ENDROOT
BRANCH   7   8
ATOM      8  N   UNL     1       4.364   4.549  16.792  0.00  0.00    +0.000 N 
ATOM      9  C   UNL     1       3.879   3.466  17.517  0.00  0.00    +0.000 C 
ATOM     10  O   UNL     1       4.190   2.294  17.300  0.00  0.00    +0.000 OA
ATOM     11  H   UNL     1       4.208   5.491  17.162  0.00  0.00    +0.000 HD
BRANCH   9  12
ATOM     12  C   UNL     1       2.967   3.689  18.670  0.00  0.00    +0.000 A 
ATOM     13  C   UNL     1       1.763   2.954  18.690  0.00  0.00    +0.000 A 
ATOM     14  C   UNL     1       0.860   3.070  19.747  0.00  0.00    +0.000 A 
ATOM     15  C   UNL     1       1.145   3.931  20.802  0.00  0.00    +0.000 A 
ATOM     16  C   UNL     1       2.321   4.683  20.785  0.00  0.00    +0.000 A 
ATOM     17  C   UNL     1       3.223   4.563  19.722  0.00  0.00    +0.000 A 
ATOM     18  F   UNL     1       4.336   5.307  19.746  0.00  0.00    +0.000 F 
ENDBRANCH   9  12
ENDBRANCH   7   8
BRANCH   1  19
ATOM     19  C   UNL     1       7.259   5.092  17.029  0.00  0.00    +0.000 C 
ATOM     20  O   UNL     1       7.339   4.343  17.989  0.00  0.00    +0.000 OA
BRANCH  19  21
ATOM     21  O   UNL     1       7.785   6.345  16.949  0.00  0.00    +0.000 OA
BRANCH  21  23
ATOM     22  C   UNL     1       8.115   8.604  17.741  0.00  0.00    +0.000 C 
ATOM     23  C   UNL     1       7.260   7.346  17.846  0.00  0.00    +0.000 C 
ATOM     24  C   UNL     1       5.829   7.650  17.412  0.00  0.00    +0.000 C 
ENDBRANCH  21  23
ENDBRANCH  19  21
ENDBRANCH   1  19
TORSDOF 5
ENDMDL
MODEL 7
REMARK VINA RESULT:      -7.5      4.184      6.113
REMARK  Name = 
REMARK  7 active torsions:
REMARK  status: ('A' for Active; 'I' for Inactive)
REMARK    1  A    between atoms: C_1  and  C_2
REMARK    2  A    between atoms: C_2  and  C_3
REMARK    3  A    between atoms: C_2  and  O_4
REMARK    4  A    between atoms: O_4  and  C_5
REMARK    5  A    between atoms: C_5  and  C_7
REMARK    6  A    between atoms: C_13  and  N_14
REMARK    7  A    between atoms: C_15  and  C_17
REMARK                            x       y       z     vdW  Elec       q    Type
REMARK                         _______ _______ _______ _____ _____    ______ ____
ROOT
ATOM      1  C   UNL     1       3.095   4.850  17.826  0.00  0.00    +0.000 A 
ATOM      2  C   UNL     1       3.944   4.100  16.979  0.00  0.00    +0.000 A 
ATOM      3  C   UNL     1       5.226   4.546  16.662  0.00  0.00    +0.000 A 
ATOM      4  C   UNL     1       5.685   5.730  17.211  0.00  0.00    +0.000 A 
ATOM      5 CL   UNL     1       7.258   6.305  16.815  0.00  0.00    +0.000 Cl
ATOM      6  C   UNL     1       4.877   6.463  18.078  0.00  0.00    +0.000 A 
ATOM      7  C   UNL     1       3.562   6.065  18.384  0.00  0.00    +0.000 A 
ENDROOT
BRANCH   7   8
ATOM      8  N   UNL     1       2.735   6.874  19.228  0.00  0.00    +0.000 N 
ATOM      9  C   UNL     1       2.115   8.054  18.832  0.00  0.00    +0.000 C 
ATOM     10  O   UNL     1       2.152   8.503  17.685  0.00  0.00    +0.000 OA
ATOM     11  H   UNL     1       2.492   6.480  20.141  0.00  0.00    +0.000 HD
BRANCH   9  12
ATOM     12  C   UNL     1       1.301   8.831  19.803  0.00  0.00    +0.000 A 
ATOM     13  C   UNL     1       1.402   8.469  21.163  0.00  0.00    +0.000 A 
ATOM     14  C   UNL     1       0.704   9.164  22.152  0.00  0.00    +0.000 A 
ATOM     15  C   UNL     1      -0.115  10.230  21.795  0.00  0.00    +0.000 A 
ATOM     16  C   UNL     1      -0.244  10.584  20.450  0.00  0.00    +0.000 A 
ATOM     17  C   UNL     1       0.460   9.885  19.463  0.00  0.00    +0.000 A 
ATOM     18  F   UNL     1       0.301  10.257  18.186  0.00  0.00    +0.000 F 
ENDBRANCH   9  12
ENDBRANCH   7   8
BRANCH   1  19
ATOM     19  C   UNL     1       1.699   4.368  18.054  0.00  0.00    +0.000 C 
ATOM     20  O   UNL     1       0.909   4.122  17.157  0.00  0.00    +0.000 OA
BRANCH  19  21
ATOM     21  O   UNL     1       1.472   4.197  19.386  0.00  0.00    +0.000 OA
BRANCH  21  23
ATOM     22  C   UNL     1       1.960   1.844  19.137  0.00  0.00    +0.000 C 
ATOM     23  C   UNL     1       1.084   2.881  19.831  0.00  0.00    +0.000 C 
ATOM     24  C   UNL     1       1.302   2.822  21.341  0.00  0.00    +0.000 C 
ENDBRANCH  21  23
ENDBRANCH  19  21
ENDBRANCH   1  19
TORSDOF 5
ENDMDL
MODEL 8
REMARK VINA RESULT:      -7.4      4.050      5.198
REMARK  Name = 
REMARK  7 active torsions:
REMARK  status: ('A' for Active; 'I' for Inactive)
REMARK    1  A    between atoms: C_1  and  C_2
REMARK    2  A    between atoms: C_2  and  C_3
REMARK    3  A    between atoms: C_2  and  O_4
REMARK    4  A    between atoms: O_4  and  C_5
REMARK    5  A    between atoms: C_5  and  C_7
REMARK    6  A    between atoms: C_13  and  N_14
REMARK    7  A    between atoms: C_15  and  C_17
REMARK                            x       y       z     vdW  Elec       q    Type
REMARK                         _______ _______ _______ _____ _____    ______ ____
ROOT
ATOM      1  C   UNL     1       4.282   5.286  17.069  0.00  0.00    +0.000 A 
ATOM      2  C   UNL     1       4.719   3.946  16.956  0.00  0.00    +0.000 A 
ATOM      3  C   UNL     1       3.994   2.899  17.523  0.00  0.00    +0.000 A 
ATOM      4  C   UNL     1       2.810   3.176  18.183  0.00  0.00    +0.000 A 
ATOM      5 CL   UNL     1       1.914   1.897  18.905  0.00  0.00    +0.000 Cl
ATOM      6  C   UNL     1       2.344   4.486  18.271  0.00  0.00    +0.000 A 
ATOM      7  C   UNL     1       3.073   5.571  17.749  0.00  0.00    +0.000 A 
ENDROOT
BRANCH   7   8
ATOM      8  N   UNL     1       2.597   6.912  17.914  0.00  0.00    +0.000 N 
ATOM      9  C   UNL     1       2.217   7.473  19.127  0.00  0.00    +0.000 C 
ATOM     10  O   UNL     1       2.310   6.899  20.214  0.00  0.00    +0.000 OA
ATOM     11  H   UNL     1       2.667   7.524  17.095  0.00  0.00    +0.000 HD
BRANCH   9  12
ATOM     12  C   UNL     1       1.708   8.869  19.177  0.00  0.00    +0.000 A 
ATOM     13  C   UNL     1       2.130   9.745  18.154  0.00  0.00    +0.000 A 
ATOM     14  C   UNL     1       1.678  11.063  18.097  0.00  0.00    +0.000 A 
ATOM     15  C   UNL     1       0.799  11.531  19.068  0.00  0.00    +0.000 A 
ATOM     16  C   UNL     1       0.391  10.683  20.100  0.00  0.00    +0.000 A 
ATOM     17  C   UNL     1       0.847   9.362  20.152  0.00  0.00    +0.000 A 
ATOM     18  F   UNL     1       0.433   8.586  21.163  0.00  0.00    +0.000 F 
ENDBRANCH   9  12
ENDBRANCH   7   8
BRANCH   1  19
ATOM     19  C   UNL     1       5.148   6.374  16.523  0.00  0.00    +0.000 C 
ATOM     20  O   UNL     1       5.188   6.686  15.343  0.00  0.00    +0.000 OA
BRANCH  19  21
ATOM     21  O   UNL     1       5.827   6.986  17.533  0.00  0.00    +0.000 OA
BRANCH  21  23
ATOM     22  C   UNL     1       7.867   8.274  17.660  0.00  0.00    +0.000 C 
ATOM     23  C   UNL     1       7.266   6.879  17.528  0.00  0.00    +0.000 C 
ATOM     24  C   UNL     1       7.668   6.022  18.725  0.00  0.00    +0.000 C 
ENDBRANCH  21  23
ENDBRANCH  19  21
ENDBRANCH   1  19
TORSDOF 5
ENDMDL
MODEL 9
REMARK VINA RESULT:      -7.4      4.396      6.238
REMARK  Name = 
REMARK  7 active torsions:
REMARK  status: ('A' for Active; 'I' for Inactive)
REMARK    1  A    between atoms: C_1  and  C_2
REMARK    2  A    between atoms: C_2  and  C_3
REMARK    3  A    between atoms: C_2  and  O_4
REMARK    4  A    between atoms: O_4  and  C_5
REMARK    5  A    between atoms: C_5  and  C_7
REMARK    6  A    between atoms: C_13  and  N_14
REMARK    7  A    between atoms: C_15  and  C_17
REMARK                            x       y       z     vdW  Elec       q    Type
REMARK                         _______ _______ _______ _____ _____    ______ ____
ROOT
ATOM      1  C   UNL     1       3.032   5.032  17.784  0.00  0.00    +0.000 A 
ATOM      2  C   UNL     1       3.984   4.239  17.102  0.00  0.00    +0.000 A 
ATOM      3  C   UNL     1       5.257   4.727  16.812  0.00  0.00    +0.000 A 
ATOM      4  C   UNL     1       5.604   6.000  17.227  0.00  0.00    +0.000 A 
ATOM      5 CL   UNL     1       7.165   6.624  16.859  0.00  0.00    +0.000 Cl
ATOM      6  C   UNL     1       4.693   6.782  17.934  0.00  0.00    +0.000 A 
ATOM      7  C   UNL     1       3.384   6.338  18.204  0.00  0.00    +0.000 A 
ENDROOT
BRANCH   7   8
ATOM      8  N   UNL     1       2.452   7.192  18.878  0.00  0.00    +0.000 N 
ATOM      9  C   UNL     1       2.011   8.418  18.394  0.00  0.00    +0.000 C 
ATOM     10  O   UNL     1       2.321   8.880  17.294  0.00  0.00    +0.000 OA
ATOM     11  H   UNL     1       1.995   6.803  19.707  0.00  0.00    +0.000 HD
BRANCH   9  12
ATOM     12  C   UNL     1       1.061   9.237  19.193  0.00  0.00    +0.000 A 
ATOM     13  C   UNL     1       1.337   9.382  20.569  0.00  0.00    +0.000 A 
ATOM     14  C   UNL     1       0.523  10.161  21.392  0.00  0.00    +0.000 A 
ATOM     15  C   UNL     1      -0.587  10.803  20.854  0.00  0.00    +0.000 A 
ATOM     16  C   UNL     1      -0.886  10.648  19.498  0.00  0.00    +0.000 A 
ATOM     17  C   UNL     1      -0.066   9.867  18.677  0.00  0.00    +0.000 A 
ATOM     18  F   UNL     1      -0.395   9.744  17.384  0.00  0.00    +0.000 F 
ENDBRANCH   9  12
ENDBRANCH   7   8
BRANCH   1  19
ATOM     19  C   UNL     1       1.654   4.491  17.984  0.00  0.00    +0.000 C 
ATOM     20  O   UNL     1       0.885   4.232  17.071  0.00  0.00    +0.000 OA
BRANCH  19  21
ATOM     21  O   UNL     1       1.418   4.282  19.309  0.00  0.00    +0.000 OA
BRANCH  21  23
ATOM     22  C   UNL     1       1.776   3.191  21.435  0.00  0.00    +0.000 C 
ATOM     23  C   UNL     1       2.149   3.221  19.956  0.00  0.00    +0.000 C 
ATOM     24  C   UNL     1       1.746   1.909  19.290  0.00  0.00    +0.000 C 
ENDBRANCH  21  23
ENDBRANCH  19  21
ENDBRANCH   1  19
TORSDOF 5
ENDMDL
