MODEL 1
REMARK VINA RESULT:      -7.8      0.000      0.000
REMARK  Name = 
REMARK  6 active torsions:
REMARK  status: ('A' for Active; 'I' for Inactive)
REMARK    1  A    between atoms: C_1  and  C_9
REMARK    2  A    between atoms: C_2  and  C_3
REMARK    3  A    between atoms: C_3  and  N_4
REMARK    4  A    between atoms: C_9  and  O_10
REMARK    5  A    between atoms: O_10  and  C_11
REMARK    6  A    between atoms: C_13  and  C_14
REMARK                            x       y       z     vdW  Elec       q    Type
REMARK                         _______ _______ _______ _____ _____    ______ ____
ROOT
ATOM      1  C   UNL     1       6.820   5.768  17.857  0.00  0.00    +0.000 A 
ATOM      2  C   UNL     1       5.424   5.997  17.867  0.00  0.00    +0.000 A 
ATOM      3  C   UNL     1       4.874   4.939  18.582  0.00  0.00    +0.000 A 
ATOM      4  O   UNL     1       5.899   4.121  18.958  0.00  0.00    +0.000 OA
ATOM      5  N   UNL     1       7.107   4.629  18.510  0.00  0.00    +0.000 NA
ENDROOT
BRANCH   3   6
ATOM      6  C   UNL     1       3.510   4.512  18.988  0.00  0.00    +0.000 A 
ATOM      7  C   UNL     1       2.710   3.735  18.133  0.00  0.00    +0.000 A 
ATOM      8  C   UNL     1       1.412   3.329  18.499  0.00  0.00    +0.000 A 
ATOM      9  C   UNL     1       0.888   3.680  19.738  0.00  0.00    +0.000 A 
ATOM     10  C   UNL     1       1.655   4.449  20.607  0.00  0.00    +0.000 A 
ATOM     11  C   UNL     1       2.951   4.862  20.236  0.00  0.00    +0.000 A 
ENDBRANCH   3   6
BRANCH   1  12
ATOM     12  O   UNL     1       7.820   6.529  17.272  0.00  0.00    +0.000 OA
BRANCH  12  13
ATOM     13  C   UNL     1       7.523   7.928  17.384  0.00  0.00    +0.000 C 
BRANCH  13  14
ATOM     14  C   UNL     1       8.281   8.986  18.169  0.00  0.00    +0.000 C 
ATOM     15  C   UNL     1       8.931   9.894  18.842  0.00  0.00    +0.000 C 
BRANCH  15  16
ATOM     16  C   UNL     1       9.711  10.903  19.578  0.00  0.00    +0.000 C 
BRANCH  16  17
ATOM     17  N   UNL     1      11.005  11.157  18.923  0.00  0.00    +0.000 NA
ATOM     18  C   UNL     1      11.903  11.975  19.758  0.00  0.00    +0.000 C 
ATOM     19  C   UNL     1      11.511  13.406  19.463  0.00  0.00    +0.000 C 
ATOM     20  C   UNL     1      11.251  13.372  17.971  0.00  0.00    +0.000 C 
ATOM     21  C   UNL     1      10.809  11.938  17.684  0.00  0.00    +0.000 C 
ENDBRANCH  16  17
ENDBRANCH  15  16
ENDBRANCH  13  14
ENDBRANCH  12  13
ENDBRANCH   1  12
TORSDOF 6
ENDMDL
MODEL 2
REMARK VINA RESULT:      -7.7      1.344      1.420
REMARK  Name = 
REMARK  6 active torsions:
REMARK  status: ('A' for Active; 'I' for Inactive)
REMARK    1  A    between atoms: C_1  and  C_9
REMARK    2  A    between atoms: C_2  and  C_3
REMARK    3  A    between atoms: C_3  and  N_4
REMARK    4  A    between atoms: C_9  and  O_10
REMARK    5  A    between atoms: O_10  and  C_11
REMARK    6  A    between atoms: C_13  and  C_14
REMARK                            x       y       z     vdW  Elec       q    Type
REMARK                         _______ _______ _______ _____ _____    ______ ____
ROOT
ATOM      1  C   UNL     1       6.992   6.120  16.864  0.00  0.00    +0.000 A 
ATOM      2  C   UNL     1       5.670   6.156  17.368  0.00  0.00    +0.000 A 
ATOM      3  C   UNL     1       5.198   4.851  17.280  0.00  0.00    +0.000 A 
ATOM      4  O   UNL     1       6.191   4.091  16.735  0.00  0.00    +0.000 OA
ATOM      5  N   UNL     1       7.304   4.872  16.474  0.00  0.00    +0.000 NA
ENDROOT
BRANCH   3   6
ATOM      6  C   UNL     1       3.933   4.145  17.606  0.00  0.00    +0.000 A 
ATOM      7  C   UNL     1       3.905   2.749  17.775  0.00  0.00    +0.000 A 
ATOM      8  C   UNL     1       2.714   2.063  18.076  0.00  0.00    +0.000 A 
ATOM      9  C   UNL     1       1.520   2.759  18.230  0.00  0.00    +0.000 A 
ATOM     10  C   UNL     1       1.514   4.141  18.070  0.00  0.00    +0.000 A 
ATOM     11  C   UNL     1       2.706   4.825  17.760  0.00  0.00    +0.000 A 
ENDBRANCH   3   6
BRANCH   1  12
ATOM     12  O   UNL     1       7.899   7.159  16.731  0.00  0.00    +0.000 OA
BRANCH  12  13
ATOM     13  C   UNL     1       7.524   8.268  17.559  0.00  0.00    +0.000 C 
BRANCH  13  14
ATOM     14  C   UNL     1       8.435   9.264  18.260  0.00  0.00    +0.000 C 
ATOM     15  C   UNL     1       9.216  10.118  18.860  0.00  0.00    +0.000 C 
BRANCH  15  16
ATOM     16  C   UNL     1      10.141  11.055  19.517  0.00  0.00    +0.000 C 
BRANCH  16  17
ATOM     17  N   UNL     1      10.983  11.753  18.531  0.00  0.00    +0.000 NA
ATOM     18  C   UNL     1      11.928  12.689  19.166  0.00  0.00    +0.000 C 
ATOM     19  C   UNL     1      11.142  13.969  19.350  0.00  0.00    +0.000 C 
ATOM     20  C   UNL     1      10.334  14.041  18.071  0.00  0.00    +0.000 C 
ATOM     21  C   UNL     1      10.149  12.587  17.642  0.00  0.00    +0.000 C 
ENDBRANCH  16  17
ENDBRANCH  15  16
ENDBRANCH  13  14
ENDBRANCH  12  13
ENDBRANCH   1  12
TORSDOF 6
ENDMDL
MODEL 3
REMARK VINA RESULT:      -7.6      0.841      1.386
REMARK  Name = 
REMARK  6 active torsions:
REMARK  status: ('A' for Active; 'I' for Inactive)
REMARK    1  A    between atoms: C_1  and  C_9
REMARK    2  A    between atoms: C_2  and  C_3
REMARK    3  A    between atoms: C_3  and  N_4
REMARK    4  A    between atoms: C_9  and  O_10
REMARK    5  A    between atoms: O_10  and  C_11
REMARK    6  A    between atoms: C_13  and  C_14
REMARK                            x       y       z     vdW  Elec       q    Type
REMARK                         _______ _______ _______ _____ _____    ______ ____
ROOT
ATOM      1  C   UNL     1       6.811   5.693  18.489  0.00  0.00    +0.000 A 
ATOM      2  C   UNL     1       5.466   5.569  18.067  0.00  0.00    +0.000 A 
ATOM      3  C   UNL     1       4.821   4.852  19.069  0.00  0.00    +0.000 A 
ATOM      4  O   UNL     1       5.749   4.557  20.025  0.00  0.00    +0.000 OA
ATOM      5  N   UNL     1       6.984   5.074  19.670  0.00  0.00    +0.000 NA
ENDROOT
BRANCH   3   6
ATOM      6  C   UNL     1       3.445   4.350  19.313  0.00  0.00    +0.000 A 
ATOM      7  C   UNL     1       2.756   4.670  20.496  0.00  0.00    +0.000 A 
ATOM      8  C   UNL     1       1.455   4.196  20.746  0.00  0.00    +0.000 A 
ATOM      9  C   UNL     1       0.803   3.400  19.810  0.00  0.00    +0.000 A 
ATOM     10  C   UNL     1       1.458   3.066  18.630  0.00  0.00    +0.000 A 
ATOM     11  C   UNL     1       2.764   3.534  18.385  0.00  0.00    +0.000 A 
ENDBRANCH   3   6
BRANCH   1  12
ATOM     12  O   UNL     1       7.868   6.318  17.847  0.00  0.00    +0.000 OA
BRANCH  12  13
ATOM     13  C   UNL     1       7.505   7.647  17.451  0.00  0.00    +0.000 C 
BRANCH  13  14
ATOM     14  C   UNL     1       8.178   8.956  17.835  0.00  0.00    +0.000 C 
ATOM     15  C   UNL     1       8.755  10.078  18.164  0.00  0.00    +0.000 C 
BRANCH  15  16
ATOM     16  C   UNL     1       9.369  11.350  18.576  0.00  0.00    +0.000 C 
BRANCH  16  17
ATOM     17  N   UNL     1      10.514  11.124  19.473  0.00  0.00    +0.000 NA
ATOM     18  C   UNL     1      10.410  11.903  20.720  0.00  0.00    +0.000 C 
ATOM     19  C   UNL     1      10.987  13.260  20.379  0.00  0.00    +0.000 C 
ATOM     20  C   UNL     1      12.162  12.900  19.493  0.00  0.00    +0.000 C 
ATOM     21  C   UNL     1      11.765  11.581  18.834  0.00  0.00    +0.000 C 
ENDBRANCH  16  17
ENDBRANCH  15  16
ENDBRANCH  13  14
ENDBRANCH  12  13
ENDBRANCH   1  12
TORSDOF 6
ENDMDL
MODEL 4
REMARK VINA RESULT:      -7.5      1.034      1.046
REMARK  Name = 
REMARK  6 active torsions:
REMARK  status: ('A' for Active; 'I' for Inactive)
REMARK    1  A    between atoms: C_1  and  C_9
REMARK    2  A    between atoms: C_2  and  C_3
REMARK    3  A    between atoms: C_3  and  N_4
REMARK    4  A    between atoms: C_9  and  O_10
REMARK    5  A    between atoms: O_10  and  C_11
REMARK    6  A    between atoms: C_13  and  C_14
REMARK                            x       y       z     vdW  Elec       q    Type
REMARK                         _______ _______ _______ _____ _____    ______ ____
ROOT
ATOM      1  C   UNL     1       6.054   5.972  16.983  0.00  0.00    +0.000 A 
ATOM      2  C   UNL     1       4.965   6.157  17.867  0.00  0.00    +0.000 A 
ATOM      3  C   UNL     1       4.282   4.946  17.884  0.00  0.00    +0.000 A 
ATOM      4  O   UNL     1       4.932   4.097  17.036  0.00  0.00    +0.000 OA
ATOM      5  N   UNL     1       6.029   4.729  16.474  0.00  0.00    +0.000 NA
ENDROOT
BRANCH   3   6
ATOM      6  C   UNL     1       3.074   4.405  18.556  0.00  0.00    +0.000 A 
ATOM      7  C   UNL     1       2.308   3.387  17.961  0.00  0.00    +0.000 A 
ATOM      8  C   UNL     1       1.156   2.868  18.581  0.00  0.00    +0.000 A 
ATOM      9  C   UNL     1       0.747   3.347  19.821  0.00  0.00    +0.000 A 
ATOM     10  C   UNL     1       1.483   4.355  20.436  0.00  0.00    +0.000 A 
ATOM     11  C   UNL     1       2.632   4.879  19.809  0.00  0.00    +0.000 A 
ENDBRANCH   3   6
BRANCH   1  12
ATOM     12  O   UNL     1       7.036   6.877  16.614  0.00  0.00    +0.000 OA
BRANCH  12  13
ATOM     13  C   UNL     1       7.696   7.408  17.771  0.00  0.00    +0.000 C 
BRANCH  13  14
ATOM     14  C   UNL     1       8.225   8.817  17.985  0.00  0.00    +0.000 C 
ATOM     15  C   UNL     1       8.678  10.026  18.168  0.00  0.00    +0.000 C 
BRANCH  15  16
ATOM     16  C   UNL     1       9.142  11.409  18.357  0.00  0.00    +0.000 C 
BRANCH  16  17
ATOM     17  N   UNL     1      10.519  11.582  17.866  0.00  0.00    +0.000 NA
ATOM     18  C   UNL     1      11.521  11.378  18.927  0.00  0.00    +0.000 C 
ATOM     19  C   UNL     1      11.635  12.721  19.616  0.00  0.00    +0.000 C 
ATOM     20  C   UNL     1      11.557  13.690  18.455  0.00  0.00    +0.000 C 
ATOM     21  C   UNL     1      10.727  12.968  17.397  0.00  0.00    +0.000 C 
ENDBRANCH  16  17
ENDBRANCH  15  16
ENDBRANCH  13  14
ENDBRANCH  12  13
ENDBRANCH   1  12
TORSDOF 6
ENDMDL
MODEL 5
REMARK VINA RESULT:      -7.4      1.281      1.423
REMARK  Name = 
REMARK  6 active torsions:
REMARK  status: ('A' for Active; 'I' for Inactive)
REMARK    1  A    between atoms: C_1  and  C_9
REMARK    2  A    between atoms: C_2  and  C_3
REMARK    3  A    between atoms: C_3  and  N_4
REMARK    4  A    between atoms: C_9  and  O_10
REMARK    5  A    between atoms: O_10  and  C_11
REMARK    6  A    between atoms: C_13  and  C_14
REMARK                            x       y       z     vdW  Elec       q    Type
REMARK                         _______ _______ _______ _____ _____    ______ ____
ROOT
ATOM      1  C   UNL     1       6.420   5.056  17.656  0.00  0.00    +0.000 A 
ATOM      2  C   UNL     1       5.636   5.169  18.828  0.00  0.00    +0.000 A 
ATOM      3  C   UNL     1       4.582   4.277  18.663  0.00  0.00    +0.000 A 
ATOM      4  O   UNL     1       4.734   3.682  17.445  0.00  0.00    +0.000 OA
ATOM      5  N   UNL     1       5.871   4.162  16.816  0.00  0.00    +0.000 NA
ENDROOT
BRANCH   3   6
ATOM      6  C   UNL     1       3.393   3.864  19.452  0.00  0.00    +0.000 A 
ATOM      7  C   UNL     1       3.482   2.843  20.414  0.00  0.00    +0.000 A 
ATOM      8  C   UNL     1       2.364   2.433  21.165  0.00  0.00    +0.000 A 
ATOM      9  C   UNL     1       1.129   3.047  20.981  0.00  0.00    +0.000 A 
ATOM     10  C   UNL     1       1.009   4.061  20.037  0.00  0.00    +0.000 A 
ATOM     11  C   UNL     1       2.128   4.464  19.280  0.00  0.00    +0.000 A 
ENDBRANCH   3   6
BRANCH   1  12
ATOM     12  O   UNL     1       7.582   5.733  17.320  0.00  0.00    +0.000 OA
BRANCH  12  13
ATOM     13  C   UNL     1       7.328   7.138  17.186  0.00  0.00    +0.000 C 
BRANCH  13  14
ATOM     14  C   UNL     1       8.031   8.288  17.891  0.00  0.00    +0.000 C 
ATOM     15  C   UNL     1       8.633   9.274  18.494  0.00  0.00    +0.000 C 
BRANCH  15  16
ATOM     16  C   UNL     1       9.321  10.355  19.219  0.00  0.00    +0.000 C 
BRANCH  16  17
ATOM     17  N   UNL     1      10.114  11.192  18.303  0.00  0.00    +0.000 NA
ATOM     18  C   UNL     1      11.403  11.597  18.890  0.00  0.00    +0.000 C 
ATOM     19  C   UNL     1      11.089  12.838  19.697  0.00  0.00    +0.000 C 
ATOM     20  C   UNL     1      10.097  13.561  18.810  0.00  0.00    +0.000 C 
ATOM     21  C   UNL     1       9.403  12.455  18.017  0.00  0.00    +0.000 C 
ENDBRANCH  16  17
ENDBRANCH  15  16
ENDBRANCH  13  14
ENDBRANCH  12  13
ENDBRANCH   1  12
TORSDOF 6
ENDMDL
MODEL 6
REMARK VINA RESULT:      -7.4      1.622      2.009
REMARK  Name = 
REMARK  6 active torsions:
REMARK  status: ('A' for Active; 'I' for Inactive)
REMARK    1  A    between atoms: C_1  and  C_9
REMARK    2  A    between atoms: C_2  and  C_3
REMARK    3  A    between atoms: C_3  and  N_4
REMARK    4  A    between atoms: C_9  and  O_10
REMARK    5  A    between atoms: O_10  and  C_11
REMARK    6  A    between atoms: C_13  and  C_14
REMARK                            x       y       z     vdW  Elec       q    Type
REMARK                         _______ _______ _______ _____ _____    ______ ____
ROOT
ATOM      1  C   UNL     1       6.909   6.001  16.737  0.00  0.00    +0.000 A 
ATOM      2  C   UNL     1       5.698   5.965  17.469  0.00  0.00    +0.000 A 
ATOM      3  C   UNL     1       5.126   4.729  17.191  0.00  0.00    +0.000 A 
ATOM      4  O   UNL     1       5.955   4.079  16.324  0.00  0.00    +0.000 OA
ATOM      5  N   UNL     1       7.060   4.863  16.039  0.00  0.00    +0.000 NA
ENDROOT
BRANCH   3   6
ATOM      6  C   UNL     1       3.887   4.007  17.582  0.00  0.00    +0.000 A 
ATOM      7  C   UNL     1       2.662   4.686  17.701  0.00  0.00    +0.000 A 
ATOM      8  C   UNL     1       1.481   4.019  18.078  0.00  0.00    +0.000 A 
ATOM      9  C   UNL     1       1.494   2.652  18.332  0.00  0.00    +0.000 A 
ATOM     10  C   UNL     1       2.691   1.952  18.223  0.00  0.00    +0.000 A 
ATOM     11  C   UNL     1       3.875   2.623  17.854  0.00  0.00    +0.000 A 
ENDBRANCH   3   6
BRANCH   1  12
ATOM     12  O   UNL     1       7.851   7.014  16.668  0.00  0.00    +0.000 OA
BRANCH  12  13
ATOM     13  C   UNL     1       7.836   7.803  17.866  0.00  0.00    +0.000 C 
BRANCH  13  14
ATOM     14  C   UNL     1       8.421   9.190  18.081  0.00  0.00    +0.000 C 
ATOM     15  C   UNL     1       8.921  10.379  18.266  0.00  0.00    +0.000 C 
BRANCH  15  16
ATOM     16  C   UNL     1       9.516  11.716  18.429  0.00  0.00    +0.000 C 
BRANCH  16  17
ATOM     17  N   UNL     1       9.571  12.105  19.848  0.00  0.00    +0.000 NA
ATOM     18  C   UNL     1       8.814  13.340  20.119  0.00  0.00    +0.000 C 
ATOM     19  C   UNL     1       9.779  14.463  19.808  0.00  0.00    +0.000 C 
ATOM     20  C   UNL     1      11.088  13.927  20.349  0.00  0.00    +0.000 C 
ATOM     21  C   UNL     1      10.962  12.408  20.243  0.00  0.00    +0.000 C 
ENDBRANCH  16  17
ENDBRANCH  15  16
ENDBRANCH  13  14
ENDBRANCH  12  13
ENDBRANCH   1  12
TORSDOF 6
ENDMDL
MODEL 7
REMARK VINA RESULT:      -7.4      1.167      1.561
REMARK  Name = 
REMARK  6 active torsions:
REMARK  status: ('A' for Active; 'I' for Inactive)
REMARK    1  A    between atoms: C_1  and  C_9
REMARK    2  A    between atoms: C_2  and  C_3
REMARK    3  A    between atoms: C_3  and  N_4
REMARK    4  A    between atoms: C_9  and  O_10
REMARK    5  A    between atoms: O_10  and  C_11
REMARK    6  A    between atoms: C_13  and  C_14
REMARK                            x       y       z     vdW  Elec       q    Type
REMARK                         _______ _______ _______ _____ _____    ______ ____
ROOT
ATOM      1  C   UNL     1       6.274   5.816  17.215  0.00  0.00    +0.000 A 
ATOM      2  C   UNL     1       5.590   5.562  18.428  0.00  0.00    +0.000 A 
ATOM      3  C   UNL     1       4.363   5.019  18.062  0.00  0.00    +0.000 A 
ATOM      4  O   UNL     1       4.325   4.974  16.699  0.00  0.00    +0.000 OA
ATOM      5  N   UNL     1       5.506   5.468  16.169  0.00  0.00    +0.000 NA
ENDROOT
BRANCH   3   6
ATOM      6  C   UNL     1       3.154   4.526  18.770  0.00  0.00    +0.000 A 
ATOM      7  C   UNL     1       2.838   4.978  20.063  0.00  0.00    +0.000 A 
ATOM      8  C   UNL     1       1.701   4.516  20.751  0.00  0.00    +0.000 A 
ATOM      9  C   UNL     1       0.842   3.598  20.156  0.00  0.00    +0.000 A 
ATOM     10  C   UNL     1       1.127   3.131  18.877  0.00  0.00    +0.000 A 
ATOM     11  C   UNL     1       2.271   3.589  18.193  0.00  0.00    +0.000 A 
ENDBRANCH   3   6
BRANCH   1  12
ATOM     12  O   UNL     1       7.535   6.359  17.027  0.00  0.00    +0.000 OA
BRANCH  12  13
ATOM     13  C   UNL     1       7.910   7.170  18.149  0.00  0.00    +0.000 C 
BRANCH  13  14
ATOM     14  C   UNL     1       8.330   8.631  18.151  0.00  0.00    +0.000 C 
ATOM     15  C   UNL     1       8.690   9.884  18.152  0.00  0.00    +0.000 C 
BRANCH  15  16
ATOM     16  C   UNL     1       9.044  11.312  18.162  0.00  0.00    +0.000 C 
BRANCH  16  17
ATOM     17  N   UNL     1      10.495  11.503  17.995  0.00  0.00    +0.000 NA
ATOM     18  C   UNL     1      11.215  11.471  19.280  0.00  0.00    +0.000 C 
ATOM     19  C   UNL     1      11.124  12.885  19.811  0.00  0.00    +0.000 C 
ATOM     20  C   UNL     1      11.306  13.716  18.557  0.00  0.00    +0.000 C 
ATOM     21  C   UNL     1      10.775  12.837  17.426  0.00  0.00    +0.000 C 
ENDBRANCH  16  17
ENDBRANCH  15  16
ENDBRANCH  13  14
ENDBRANCH  12  13
ENDBRANCH   1  12
TORSDOF 6
ENDMDL
MODEL 8
REMARK VINA RESULT:      -7.3      1.011      1.273
REMARK  Name = 
REMARK  6 active torsions:
REMARK  status: ('A' for Active; 'I' for Inactive)
REMARK    1  A    between atoms: C_1  and  C_9
REMARK    2  A    between atoms: C_2  and  C_3
REMARK    3  A    between atoms: C_3  and  N_4
REMARK    4  A    between atoms: C_9  and  O_10
REMARK    5  A    between atoms: O_10  and  C_11
REMARK    6  A    between atoms: C_13  and  C_14
REMARK                            x       y       z     vdW  Elec       q    Type
REMARK                         _______ _______ _______ _____ _____    ______ ____
ROOT
ATOM      1  C   UNL     1       5.991   6.419  17.750  0.00  0.00    +0.000 A 
ATOM      2  C   UNL     1       4.616   6.128  17.582  0.00  0.00    +0.000 A 
ATOM      3  C   UNL     1       4.298   5.219  18.585  0.00  0.00    +0.000 A 
ATOM      4  O   UNL     1       5.436   4.978  19.296  0.00  0.00    +0.000 OA
ATOM      5  N   UNL     1       6.488   5.717  18.783  0.00  0.00    +0.000 NA
ENDROOT
BRANCH   3   6
ATOM      6  C   UNL     1       3.083   4.483  19.019  0.00  0.00    +0.000 A 
ATOM      7  C   UNL     1       2.337   3.715  18.108  0.00  0.00    +0.000 A 
ATOM      8  C   UNL     1       1.179   3.018  18.501  0.00  0.00    +0.000 A 
ATOM      9  C   UNL     1       0.745   3.061  19.822  0.00  0.00    +0.000 A 
ATOM     10  C   UNL     1       1.461   3.813  20.747  0.00  0.00    +0.000 A 
ATOM     11  C   UNL     1       2.616   4.517  20.350  0.00  0.00    +0.000 A 
ENDBRANCH   3   6
BRANCH   1  12
ATOM     12  O   UNL     1       6.796   7.266  17.006  0.00  0.00    +0.000 OA
BRANCH  12  13
ATOM     13  C   UNL     1       7.874   7.771  17.805  0.00  0.00    +0.000 C 
BRANCH  13  14
ATOM     14  C   UNL     1       8.333   9.213  17.955  0.00  0.00    +0.000 C 
ATOM     15  C   UNL     1       8.726  10.449  18.085  0.00  0.00    +0.000 C 
BRANCH  15  16
ATOM     16  C   UNL     1       9.134  11.859  18.192  0.00  0.00    +0.000 C 
BRANCH  16  17
ATOM     17  N   UNL     1      10.462  11.984  18.816  0.00  0.00    +0.000 NA
ATOM     18  C   UNL     1      10.534  11.300  20.119  0.00  0.00    +0.000 C 
ATOM     19  C   UNL     1      10.008  12.309  21.117  0.00  0.00    +0.000 C 
ATOM     20  C   UNL     1      10.599  13.607  20.610  0.00  0.00    +0.000 C 
ATOM     21  C   UNL     1      10.762  13.401  19.105  0.00  0.00    +0.000 C 
ENDBRANCH  16  17
ENDBRANCH  15  16
ENDBRANCH  13  14
ENDBRANCH  12  13
ENDBRANCH   1  12
TORSDOF 6
ENDMDL
MODEL 9
REMARK VINA RESULT:      -7.3      1.551      1.590
REMARK  Name = 
REMARK  6 active torsions:
REMARK  status: ('A' for Active; 'I' for Inactive)
REMARK    1  A    between atoms: C_1  and  C_9
REMARK    2  A    between atoms: C_2  and  C_3
REMARK    3  A    between atoms: C_3  and  N_4
REMARK    4  A    between atoms: C_9  and  O_10
REMARK    5  A    between atoms: O_10  and  C_11
REMARK    6  A    between atoms: C_13  and  C_14
REMARK                            x       y       z     vdW  Elec       q    Type
REMARK                         _______ _______ _______ _____ _____    ______ ____
ROOT
ATOM      1  C   UNL     1       5.561   6.657  16.988  0.00  0.00    +0.000 A 
ATOM      2  C   UNL     1       5.221   5.332  17.351  0.00  0.00    +0.000 A 
ATOM      3  C   UNL     1       3.893   5.382  17.759  0.00  0.00    +0.000 A 
ATOM      4  O   UNL     1       3.480   6.678  17.655  0.00  0.00    +0.000 OA
ATOM      5  N   UNL     1       4.510   7.473  17.179  0.00  0.00    +0.000 NA
ENDROOT
BRANCH   3   6
ATOM      6  C   UNL     1       2.890   4.412  18.268  0.00  0.00    +0.000 A 
ATOM      7  C   UNL     1       2.774   3.128  17.705  0.00  0.00    +0.000 A 
ATOM      8  C   UNL     1       1.825   2.199  18.170  0.00  0.00    +0.000 A 
ATOM      9  C   UNL     1       0.974   2.527  19.220  0.00  0.00    +0.000 A 
ATOM     10  C   UNL     1       1.064   3.789  19.798  0.00  0.00    +0.000 A 
ATOM     11  C   UNL     1       2.010   4.721  19.325  0.00  0.00    +0.000 A 
ENDBRANCH   3   6
BRANCH   1  12
ATOM     12  O   UNL     1       6.769   7.146  16.518  0.00  0.00    +0.000 OA
BRANCH  12  13
ATOM     13  C   UNL     1       7.659   7.432  17.606  0.00  0.00    +0.000 C 
BRANCH  13  14
ATOM     14  C   UNL     1       8.251   8.774  18.004  0.00  0.00    +0.000 C 
ATOM     15  C   UNL     1       8.759   9.925  18.346  0.00  0.00    +0.000 C 
BRANCH  15  16
ATOM     16  C   UNL     1       9.297  11.249  18.698  0.00  0.00    +0.000 C 
BRANCH  16  17
ATOM     17  N   UNL     1      10.478  11.578  17.881  0.00  0.00    +0.000 NA
ATOM     18  C   UNL     1      11.732  11.487  18.650  0.00  0.00    +0.000 C 
ATOM     19  C   UNL     1      11.869  12.832  19.330  0.00  0.00    +0.000 C 
ATOM     20  C   UNL     1      11.394  13.789  18.256  0.00  0.00    +0.000 C 
ATOM     21  C   UNL     1      10.407  12.979  17.419  0.00  0.00    +0.000 C 
ENDBRANCH  16  17
ENDBRANCH  15  16
ENDBRANCH  13  14
ENDBRANCH  12  13
ENDBRANCH   1  12
TORSDOF 6
ENDMDL
