MODEL 1
REMARK VINA RESULT:      -9.4      0.000      0.000
REMARK  Name = 
REMARK  3 active torsions:
REMARK  status: ('A' for Active; 'I' for Inactive)
REMARK    1  A    between atoms: S_2  and  C_4
REMARK    2  A    between atoms: S_2  and  N_14
REMARK    3  A    between atoms: C_17  and  C_18
REMARK                            x       y       z     vdW  Elec       q    Type
REMARK                         _______ _______ _______ _____ _____    ______ ____
ROOT
ATOM      1  N   UNL     1       4.790   5.777  18.784  0.00  0.00    +0.000 NA
ATOM      2  C   UNL     1       5.626   4.560  18.567  0.00  0.00    +0.000 C 
ATOM      3  C   UNL     1       7.094   4.900  18.316  0.00  0.00    +0.000 C 
ATOM      4  C   UNL     1       7.294   5.892  17.173  0.00  0.00    +0.000 C 
ATOM      5  C   UNL     1       6.459   7.139  17.452  0.00  0.00    +0.000 C 
ATOM      6  C   UNL     1       4.991   6.827  17.720  0.00  0.00    +0.000 C 
ENDROOT
BRANCH   4   7
ATOM      7  C   UNL     1       7.002   5.281  15.827  0.00  0.00    +0.000 A 
ATOM      8  N   UNL     1       6.040   4.434  15.535  0.00  0.00    +0.000 NA
ATOM      9  C   UNL     1       6.171   4.154  14.196  0.00  0.00    +0.000 A 
ATOM     10  C   UNL     1       5.407   3.314  13.369  0.00  0.00    +0.000 A 
ATOM     11  C   UNL     1       5.759   3.203  12.017  0.00  0.00    +0.000 A 
ATOM     12  C   UNL     1       6.846   3.913  11.500  0.00  0.00    +0.000 A 
ATOM     13  C   UNL     1       7.618   4.753  12.310  0.00  0.00    +0.000 A 
ATOM     14  C   UNL     1       7.245   4.846  13.655  0.00  0.00    +0.000 A 
ATOM     15  N   UNL     1       7.757   5.553  14.712  0.00  0.00    +0.000 N 
ATOM     16  H   UNL     1       8.559   6.165  14.674  0.00  0.00    +0.000 HD
ENDBRANCH   4   7
BRANCH   1  18
ATOM     17  O   UNL     1       2.875   4.667  20.106  0.00  0.00    +0.000 OA
ATOM     18  S   UNL     1       3.083   5.432  18.895  0.00  0.00    +0.000 S 
ATOM     19  O   UNL     1       2.665   4.903  17.611  0.00  0.00    +0.000 OA
BRANCH  18  20
ATOM     20  C   UNL     1       2.273   6.997  19.111  0.00  0.00    +0.000 A 
ATOM     21  C   UNL     1       2.122   7.841  18.002  0.00  0.00    +0.000 A 
ATOM     22  C   UNL     1       1.558   9.106  18.162  0.00  0.00    +0.000 A 
ATOM     23  C   UNL     1       1.178   9.537  19.430  0.00  0.00    +0.000 A 
ATOM     24  C   UNL     1       1.333   8.693  20.539  0.00  0.00    +0.000 A 
ATOM     25  C   UNL     1       1.887   7.420  20.384  0.00  0.00    +0.000 A 
ATOM     26  O   UNL     1       0.989   9.066  21.813  0.00  0.00    +0.000 OA
ATOM     27  C   UNL     1       0.193  10.258  21.829  0.00  0.00    +0.000 C 
ATOM     28  C   UNL     1       0.724  11.297  20.856  0.00  0.00    +0.000 C 
ATOM     29  O   UNL     1       0.667  10.806  19.513  0.00  0.00    +0.000 OA
ENDBRANCH  18  20
ENDBRANCH   1  18
TORSDOF 3
ENDMDL
MODEL 2
REMARK VINA RESULT:      -9.2      0.707      1.426
REMARK  Name = 
REMARK  3 active torsions:
REMARK  status: ('A' for Active; 'I' for Inactive)
REMARK    1  A    between atoms: S_2  and  C_4
REMARK    2  A    between atoms: S_2  and  N_14
REMARK    3  A    between atoms: C_17  and  C_18
REMARK                            x       y       z     vdW  Elec       q    Type
REMARK                         _______ _______ _______ _____ _____    ______ ____
ROOT
ATOM      1  N   UNL     1       4.782   5.758  18.816  0.00  0.00    +0.000 NA
ATOM      2  C   UNL     1       5.607   4.535  18.595  0.00  0.00    +0.000 C 
ATOM      3  C   UNL     1       7.078   4.863  18.341  0.00  0.00    +0.000 C 
ATOM      4  C   UNL     1       7.285   5.857  17.201  0.00  0.00    +0.000 C 
ATOM      5  C   UNL     1       6.460   7.109  17.486  0.00  0.00    +0.000 C 
ATOM      6  C   UNL     1       4.990   6.809  17.755  0.00  0.00    +0.000 C 
ENDROOT
BRANCH   4   7
ATOM      7  C   UNL     1       6.985   5.252  15.855  0.00  0.00    +0.000 A 
ATOM      8  N   UNL     1       6.007   4.423  15.559  0.00  0.00    +0.000 NA
ATOM      9  C   UNL     1       6.137   4.142  14.220  0.00  0.00    +0.000 A 
ATOM     10  C   UNL     1       5.360   3.318  13.390  0.00  0.00    +0.000 A 
ATOM     11  C   UNL     1       5.714   3.201  12.039  0.00  0.00    +0.000 A 
ATOM     12  C   UNL     1       6.816   3.889  11.526  0.00  0.00    +0.000 A 
ATOM     13  C   UNL     1       7.601   4.714  12.339  0.00  0.00    +0.000 A 
ATOM     14  C   UNL     1       7.226   4.814  13.683  0.00  0.00    +0.000 A 
ATOM     15  N   UNL     1       7.748   5.510  14.742  0.00  0.00    +0.000 N 
ATOM     16  H   UNL     1       8.562   6.107  14.706  0.00  0.00    +0.000 HD
ENDBRANCH   4   7
BRANCH   1  18
ATOM     17  O   UNL     1       2.891   4.445  19.977  0.00  0.00    +0.000 OA
ATOM     18  S   UNL     1       3.072   5.427  18.929  0.00  0.00    +0.000 S 
ATOM     19  O   UNL     1       2.593   5.166  17.586  0.00  0.00    +0.000 OA
BRANCH  18  20
ATOM     20  C   UNL     1       2.311   6.934  19.478  0.00  0.00    +0.000 A 
ATOM     21  C   UNL     1       1.782   6.993  20.775  0.00  0.00    +0.000 A 
ATOM     22  C   UNL     1       1.112   8.139  21.202  0.00  0.00    +0.000 A 
ATOM     23  C   UNL     1       0.944   9.207  20.325  0.00  0.00    +0.000 A 
ATOM     24  C   UNL     1       1.471   9.146  19.028  0.00  0.00    +0.000 A 
ATOM     25  C   UNL     1       2.153   8.006  18.597  0.00  0.00    +0.000 A 
ATOM     26  O   UNL     1       1.328  10.161  18.116  0.00  0.00    +0.000 OA
ATOM     27  C   UNL     1       0.864  11.371  18.727  0.00  0.00    +0.000 C 
ATOM     28  C   UNL     1      -0.241  11.100  19.735  0.00  0.00    +0.000 C 
ATOM     29  O   UNL     1       0.243  10.283  20.805  0.00  0.00    +0.000 OA
ENDBRANCH  18  20
ENDBRANCH   1  18
TORSDOF 3
ENDMDL
MODEL 3
REMARK VINA RESULT:      -9.2      0.150      1.104
REMARK  Name = 
REMARK  3 active torsions:
REMARK  status: ('A' for Active; 'I' for Inactive)
REMARK    1  A    between atoms: S_2  and  C_4
REMARK    2  A    between atoms: S_2  and  N_14
REMARK    3  A    between atoms: C_17  and  C_18
REMARK                            x       y       z     vdW  Elec       q    Type
REMARK                         _______ _______ _______ _____ _____    ______ ____
ROOT
ATOM      1  N   UNL     1       4.838   5.749  18.690  0.00  0.00    +0.000 NA
ATOM      2  C   UNL     1       5.684   4.542  18.456  0.00  0.00    +0.000 C 
ATOM      3  C   UNL     1       7.151   4.897  18.216  0.00  0.00    +0.000 C 
ATOM      4  C   UNL     1       7.348   5.910  17.090  0.00  0.00    +0.000 C 
ATOM      5  C   UNL     1       6.501   7.145  17.388  0.00  0.00    +0.000 C 
ATOM      6  C   UNL     1       5.035   6.817  17.644  0.00  0.00    +0.000 C 
ENDROOT
BRANCH   4   7
ATOM      7  C   UNL     1       7.065   5.319  15.734  0.00  0.00    +0.000 A 
ATOM      8  N   UNL     1       7.790   5.456  14.645  0.00  0.00    +0.000 NA
ATOM      9  C   UNL     1       7.140   4.748  13.662  0.00  0.00    +0.000 A 
ATOM     10  C   UNL     1       7.478   4.556  12.313  0.00  0.00    +0.000 A 
ATOM     11  C   UNL     1       6.629   3.778  11.513  0.00  0.00    +0.000 A 
ATOM     12  C   UNL     1       5.472   3.204  12.045  0.00  0.00    +0.000 A 
ATOM     13  C   UNL     1       5.121   3.385  13.387  0.00  0.00    +0.000 A 
ATOM     14  C   UNL     1       5.985   4.165  14.163  0.00  0.00    +0.000 A 
ATOM     15  N   UNL     1       5.959   4.545  15.480  0.00  0.00    +0.000 N 
ATOM     16  H   UNL     1       5.242   4.299  16.147  0.00  0.00    +0.000 HD
ENDBRANCH   4   7
BRANCH   1  18
ATOM     17  O   UNL     1       2.929   4.590  19.978  0.00  0.00    +0.000 OA
ATOM     18  S   UNL     1       3.134   5.388  18.788  0.00  0.00    +0.000 S 
ATOM     19  O   UNL     1       2.721   4.891  17.490  0.00  0.00    +0.000 OA
BRANCH  18  20
ATOM     20  C   UNL     1       2.312   6.941  19.046  0.00  0.00    +0.000 A 
ATOM     21  C   UNL     1       2.133   7.802  17.954  0.00  0.00    +0.000 A 
ATOM     22  C   UNL     1       1.560   9.059  18.146  0.00  0.00    +0.000 A 
ATOM     23  C   UNL     1       1.198   9.464  19.428  0.00  0.00    +0.000 A 
ATOM     24  C   UNL     1       1.380   8.603  20.518  0.00  0.00    +0.000 A 
ATOM     25  C   UNL     1       1.944   7.339  20.332  0.00  0.00    +0.000 A 
ATOM     26  O   UNL     1       1.055   8.950  21.805  0.00  0.00    +0.000 OA
ATOM     27  C   UNL     1       0.247  10.133  21.855  0.00  0.00    +0.000 C 
ATOM     28  C   UNL     1       0.751  11.194  20.891  0.00  0.00    +0.000 C 
ATOM     29  O   UNL     1       0.675  10.726  19.541  0.00  0.00    +0.000 OA
ENDBRANCH  18  20
ENDBRANCH   1  18
TORSDOF 3
ENDMDL
MODEL 4
REMARK VINA RESULT:      -9.0      0.726      1.799
REMARK  Name = 
REMARK  3 active torsions:
REMARK  status: ('A' for Active; 'I' for Inactive)
REMARK    1  A    between atoms: S_2  and  C_4
REMARK    2  A    between atoms: S_2  and  N_14
REMARK    3  A    between atoms: C_17  and  C_18
REMARK                            x       y       z     vdW  Elec       q    Type
REMARK                         _______ _______ _______ _____ _____    ______ ____
ROOT
ATOM      1  N   UNL     1       4.837   5.730  18.744  0.00  0.00    +0.000 NA
ATOM      2  C   UNL     1       5.676   4.520  18.500  0.00  0.00    +0.000 C 
ATOM      3  C   UNL     1       7.143   4.869  18.255  0.00  0.00    +0.000 C 
ATOM      4  C   UNL     1       7.340   5.886  17.133  0.00  0.00    +0.000 C 
ATOM      5  C   UNL     1       6.501   7.124  17.441  0.00  0.00    +0.000 C 
ATOM      6  C   UNL     1       5.035   6.803  17.703  0.00  0.00    +0.000 C 
ENDROOT
BRANCH   4   7
ATOM      7  C   UNL     1       7.048   5.304  15.775  0.00  0.00    +0.000 A 
ATOM      8  N   UNL     1       7.776   5.429  14.687  0.00  0.00    +0.000 NA
ATOM      9  C   UNL     1       7.114   4.735  13.702  0.00  0.00    +0.000 A 
ATOM     10  C   UNL     1       7.449   4.541  12.353  0.00  0.00    +0.000 A 
ATOM     11  C   UNL     1       6.587   3.780  11.551  0.00  0.00    +0.000 A 
ATOM     12  C   UNL     1       5.419   3.227  12.080  0.00  0.00    +0.000 A 
ATOM     13  C   UNL     1       5.070   3.411  13.422  0.00  0.00    +0.000 A 
ATOM     14  C   UNL     1       5.947   4.173  14.201  0.00  0.00    +0.000 A 
ATOM     15  N   UNL     1       5.928   4.550  15.519  0.00  0.00    +0.000 N 
ATOM     16  H   UNL     1       5.206   4.316  16.185  0.00  0.00    +0.000 HD
ENDBRANCH   4   7
BRANCH   1  18
ATOM     17  O   UNL     1       2.959   4.380  19.883  0.00  0.00    +0.000 OA
ATOM     18  S   UNL     1       3.131   5.378  18.849  0.00  0.00    +0.000 S 
ATOM     19  O   UNL     1       2.657   5.130  17.502  0.00  0.00    +0.000 OA
BRANCH  18  20
ATOM     20  C   UNL     1       2.351   6.869  19.418  0.00  0.00    +0.000 A 
ATOM     21  C   UNL     1       1.789   6.893  20.702  0.00  0.00    +0.000 A 
ATOM     22  C   UNL     1       1.105   8.025  21.140  0.00  0.00    +0.000 A 
ATOM     23  C   UNL     1       0.958   9.116  20.288  0.00  0.00    +0.000 A 
ATOM     24  C   UNL     1       1.518   9.090  19.003  0.00  0.00    +0.000 A 
ATOM     25  C   UNL     1       2.214   7.963  18.561  0.00  0.00    +0.000 A 
ATOM     26  O   UNL     1       1.396  10.128  18.115  0.00  0.00    +0.000 OA
ATOM     27  C   UNL     1       0.913  11.321  18.745  0.00  0.00    +0.000 C 
ATOM     28  C   UNL     1      -0.217  11.022  19.717  0.00  0.00    +0.000 C 
ATOM     29  O   UNL     1       0.241  10.178  20.777  0.00  0.00    +0.000 OA
ENDBRANCH  18  20
ENDBRANCH   1  18
TORSDOF 3
ENDMDL
MODEL 5
REMARK VINA RESULT:      -8.5      4.527     10.841
REMARK  Name = 
REMARK  3 active torsions:
REMARK  status: ('A' for Active; 'I' for Inactive)
REMARK    1  A    between atoms: S_2  and  C_4
REMARK    2  A    between atoms: S_2  and  N_14
REMARK    3  A    between atoms: C_17  and  C_18
REMARK                            x       y       z     vdW  Elec       q    Type
REMARK                         _______ _______ _______ _____ _____    ______ ____
ROOT
ATOM      1  N   UNL     1       0.364  10.329  20.276  0.00  0.00    +0.000 NA
ATOM      2  C   UNL     1      -0.984  10.223  19.645  0.00  0.00    +0.000 C 
ATOM      3  C   UNL     1      -1.399  11.513  18.940  0.00  0.00    +0.000 C 
ATOM      4  C   UNL     1      -1.330  12.742  19.844  0.00  0.00    +0.000 C 
ATOM      5  C   UNL     1       0.074  12.839  20.435  0.00  0.00    +0.000 C 
ATOM      6  C   UNL     1       0.518  11.559  21.134  0.00  0.00    +0.000 C 
ENDROOT
BRANCH   4   7
ATOM      7  C   UNL     1      -2.409  12.738  20.895  0.00  0.00    +0.000 A 
ATOM      8  N   UNL     1      -2.248  12.616  22.195  0.00  0.00    +0.000 NA
ATOM      9  C   UNL     1      -3.508  12.664  22.743  0.00  0.00    +0.000 A 
ATOM     10  C   UNL     1      -3.914  12.583  24.084  0.00  0.00    +0.000 A 
ATOM     11  C   UNL     1      -5.283  12.659  24.377  0.00  0.00    +0.000 A 
ATOM     12  C   UNL     1      -6.225  12.811  23.356  0.00  0.00    +0.000 A 
ATOM     13  C   UNL     1      -5.838  12.892  22.015  0.00  0.00    +0.000 A 
ATOM     14  C   UNL     1      -4.466  12.815  21.750  0.00  0.00    +0.000 A 
ATOM     15  N   UNL     1      -3.743  12.858  20.587  0.00  0.00    +0.000 N 
ATOM     16  H   UNL     1      -4.130  12.955  19.659  0.00  0.00    +0.000 HD
ENDBRANCH   4   7
BRANCH   1  18
ATOM     17  O   UNL     1      -0.445   8.257  21.579  0.00  0.00    +0.000 OA
ATOM     18  S   UNL     1       0.787   8.936  21.238  0.00  0.00    +0.000 S 
ATOM     19  O   UNL     1       1.690   9.387  22.279  0.00  0.00    +0.000 OA
BRANCH  18  20
ATOM     20  C   UNL     1       1.708   7.856  20.171  0.00  0.00    +0.000 A 
ATOM     21  C   UNL     1       2.098   8.323  18.908  0.00  0.00    +0.000 A 
ATOM     22  C   UNL     1       2.755   7.469  18.023  0.00  0.00    +0.000 A 
ATOM     23  C   UNL     1       2.992   6.147  18.388  0.00  0.00    +0.000 A 
ATOM     24  C   UNL     1       2.600   5.681  19.650  0.00  0.00    +0.000 A 
ATOM     25  C   UNL     1       1.950   6.533  20.546  0.00  0.00    +0.000 A 
ATOM     26  O   UNL     1       2.795   4.387  20.061  0.00  0.00    +0.000 OA
ATOM     27  C   UNL     1       3.695   3.679  19.199  0.00  0.00    +0.000 C 
ATOM     28  C   UNL     1       3.411   3.971  17.735  0.00  0.00    +0.000 C 
ATOM     29  O   UNL     1       3.609   5.359  17.451  0.00  0.00    +0.000 OA
ENDBRANCH  18  20
ENDBRANCH   1  18
TORSDOF 3
ENDMDL
MODEL 6
REMARK VINA RESULT:      -8.5      1.116      1.834
REMARK  Name = 
REMARK  3 active torsions:
REMARK  status: ('A' for Active; 'I' for Inactive)
REMARK    1  A    between atoms: S_2  and  C_4
REMARK    2  A    between atoms: S_2  and  N_14
REMARK    3  A    between atoms: C_17  and  C_18
REMARK                            x       y       z     vdW  Elec       q    Type
REMARK                         _______ _______ _______ _____ _____    ______ ____
ROOT
ATOM      1  N   UNL     1       4.062   6.340  18.429  0.00  0.00    +0.000 NA
ATOM      2  C   UNL     1       4.120   4.871  18.172  0.00  0.00    +0.000 C 
ATOM      3  C   UNL     1       5.490   4.277  18.495  0.00  0.00    +0.000 C 
ATOM      4  C   UNL     1       6.636   4.987  17.779  0.00  0.00    +0.000 C 
ATOM      5  C   UNL     1       6.569   6.477  18.101  0.00  0.00    +0.000 C 
ATOM      6  C   UNL     1       5.207   7.092  17.800  0.00  0.00    +0.000 C 
ENDROOT
BRANCH   4   7
ATOM      7  C   UNL     1       6.646   4.707  16.299  0.00  0.00    +0.000 A 
ATOM      8  N   UNL     1       5.913   3.825  15.655  0.00  0.00    +0.000 NA
ATOM      9  C   UNL     1       6.269   3.925  14.331  0.00  0.00    +0.000 A 
ATOM     10  C   UNL     1       5.797   3.220  13.213  0.00  0.00    +0.000 A 
ATOM     11  C   UNL     1       6.337   3.519  11.954  0.00  0.00    +0.000 A 
ATOM     12  C   UNL     1       7.324   4.498  11.813  0.00  0.00    +0.000 A 
ATOM     13  C   UNL     1       7.805   5.209  12.917  0.00  0.00    +0.000 A 
ATOM     14  C   UNL     1       7.249   4.892  14.161  0.00  0.00    +0.000 A 
ATOM     15  N   UNL     1       7.473   5.372  15.426  0.00  0.00    +0.000 N 
ATOM     16  H   UNL     1       8.138   6.090  15.670  0.00  0.00    +0.000 HD
ENDBRANCH   4   7
BRANCH   1  18
ATOM     17  O   UNL     1       1.613   6.009  17.692  0.00  0.00    +0.000 OA
ATOM     18  S   UNL     1       2.570   7.075  17.900  0.00  0.00    +0.000 S 
ATOM     19  O   UNL     1       2.896   7.990  16.824  0.00  0.00    +0.000 OA
BRANCH  18  20
ATOM     20  C   UNL     1       1.987   8.050  19.266  0.00  0.00    +0.000 A 
ATOM     21  C   UNL     1       1.950   7.473  20.543  0.00  0.00    +0.000 A 
ATOM     22  C   UNL     1       1.425   8.193  21.616  0.00  0.00    +0.000 A 
ATOM     23  C   UNL     1       0.912   9.470  21.405  0.00  0.00    +0.000 A 
ATOM     24  C   UNL     1       0.948  10.043  20.127  0.00  0.00    +0.000 A 
ATOM     25  C   UNL     1       1.481   9.333  19.049  0.00  0.00    +0.000 A 
ATOM     26  O   UNL     1       0.446  11.292  19.856  0.00  0.00    +0.000 OA
ATOM     27  C   UNL     1       0.177  12.034  21.051  0.00  0.00    +0.000 C 
ATOM     28  C   UNL     1      -0.486  11.168  22.109  0.00  0.00    +0.000 C 
ATOM     29  O   UNL     1       0.380  10.099  22.501  0.00  0.00    +0.000 OA
ENDBRANCH  18  20
ENDBRANCH   1  18
TORSDOF 3
ENDMDL
MODEL 7
REMARK VINA RESULT:      -8.4      4.549     10.746
REMARK  Name = 
REMARK  3 active torsions:
REMARK  status: ('A' for Active; 'I' for Inactive)
REMARK    1  A    between atoms: S_2  and  C_4
REMARK    2  A    between atoms: S_2  and  N_14
REMARK    3  A    between atoms: C_17  and  C_18
REMARK                            x       y       z     vdW  Elec       q    Type
REMARK                         _______ _______ _______ _____ _____    ______ ____
ROOT
ATOM      1  N   UNL     1       0.463  10.336  20.223  0.00  0.00    +0.000 NA
ATOM      2  C   UNL     1      -0.852  10.246  19.524  0.00  0.00    +0.000 C 
ATOM      3  C   UNL     1      -1.215  11.540  18.798  0.00  0.00    +0.000 C 
ATOM      4  C   UNL     1      -1.178  12.768  19.703  0.00  0.00    +0.000 C 
ATOM      5  C   UNL     1       0.195  12.850  20.365  0.00  0.00    +0.000 C 
ATOM      6  C   UNL     1       0.588  11.566  21.086  0.00  0.00    +0.000 C 
ENDROOT
BRANCH   4   7
ATOM      7  C   UNL     1      -2.309  12.779  20.698  0.00  0.00    +0.000 A 
ATOM      8  N   UNL     1      -3.594  12.884  20.435  0.00  0.00    +0.000 NA
ATOM      9  C   UNL     1      -4.237  12.852  21.650  0.00  0.00    +0.000 A 
ATOM     10  C   UNL     1      -5.606  12.925  21.950  0.00  0.00    +0.000 A 
ATOM     11  C   UNL     1      -6.003  12.870  23.293  0.00  0.00    +0.000 A 
ATOM     12  C   UNL     1      -5.057  12.745  24.313  0.00  0.00    +0.000 A 
ATOM     13  C   UNL     1      -3.689  12.672  24.032  0.00  0.00    +0.000 A 
ATOM     14  C   UNL     1      -3.320  12.728  22.684  0.00  0.00    +0.000 A 
ATOM     15  N   UNL     1      -2.103  12.686  22.053  0.00  0.00    +0.000 N 
ATOM     16  H   UNL     1      -1.208  12.606  22.513  0.00  0.00    +0.000 HD
ENDBRANCH   4   7
BRANCH   1  18
ATOM     17  O   UNL     1      -0.441   8.302  21.524  0.00  0.00    +0.000 OA
ATOM     18  S   UNL     1       0.819   8.939  21.207  0.00  0.00    +0.000 S 
ATOM     19  O   UNL     1       1.711   9.372  22.265  0.00  0.00    +0.000 OA
BRANCH  18  20
ATOM     20  C   UNL     1       1.731   7.822  20.171  0.00  0.00    +0.000 A 
ATOM     21  C   UNL     1       2.133   8.253  18.898  0.00  0.00    +0.000 A 
ATOM     22  C   UNL     1       2.783   7.369  18.038  0.00  0.00    +0.000 A 
ATOM     23  C   UNL     1       3.001   6.053  18.437  0.00  0.00    +0.000 A 
ATOM     24  C   UNL     1       2.597   5.624  19.708  0.00  0.00    +0.000 A 
ATOM     25  C   UNL     1       1.954   6.506  20.580  0.00  0.00    +0.000 A 
ATOM     26  O   UNL     1       2.773   4.337  20.152  0.00  0.00    +0.000 OA
ATOM     27  C   UNL     1       3.668   3.597  19.312  0.00  0.00    +0.000 C 
ATOM     28  C   UNL     1       3.395   3.857  17.839  0.00  0.00    +0.000 C 
ATOM     29  O   UNL     1       3.612   5.235  17.523  0.00  0.00    +0.000 OA
ENDBRANCH  18  20
ENDBRANCH   1  18
TORSDOF 3
ENDMDL
MODEL 8
REMARK VINA RESULT:      -8.3      1.096      2.103
REMARK  Name = 
REMARK  3 active torsions:
REMARK  status: ('A' for Active; 'I' for Inactive)
REMARK    1  A    between atoms: S_2  and  C_4
REMARK    2  A    between atoms: S_2  and  N_14
REMARK    3  A    between atoms: C_17  and  C_18
REMARK                            x       y       z     vdW  Elec       q    Type
REMARK                         _______ _______ _______ _____ _____    ______ ____
ROOT
ATOM      1  N   UNL     1       4.069   6.257  18.422  0.00  0.00    +0.000 NA
ATOM      2  C   UNL     1       4.148   4.805  18.089  0.00  0.00    +0.000 C 
ATOM      3  C   UNL     1       5.508   4.202  18.435  0.00  0.00    +0.000 C 
ATOM      4  C   UNL     1       6.677   4.955  17.805  0.00  0.00    +0.000 C 
ATOM      5  C   UNL     1       6.585   6.425  18.203  0.00  0.00    +0.000 C 
ATOM      6  C   UNL     1       5.232   7.049  17.881  0.00  0.00    +0.000 C 
ENDROOT
BRANCH   4   7
ATOM      7  C   UNL     1       6.748   4.756  16.313  0.00  0.00    +0.000 A 
ATOM      8  N   UNL     1       7.521   5.398  15.465  0.00  0.00    +0.000 NA
ATOM      9  C   UNL     1       7.236   4.883  14.223  0.00  0.00    +0.000 A 
ATOM     10  C   UNL     1       7.772   5.206  12.966  0.00  0.00    +0.000 A 
ATOM     11  C   UNL     1       7.298   4.521  11.838  0.00  0.00    +0.000 A 
ATOM     12  C   UNL     1       6.314   3.537  11.961  0.00  0.00    +0.000 A 
ATOM     13  C   UNL     1       5.769   3.203  13.205  0.00  0.00    +0.000 A 
ATOM     14  C   UNL     1       6.260   3.901  14.314  0.00  0.00    +0.000 A 
ATOM     15  N   UNL     1       5.966   3.841  15.651  0.00  0.00    +0.000 N 
ATOM     16  H   UNL     1       5.283   3.229  16.074  0.00  0.00    +0.000 HD
ENDBRANCH   4   7
BRANCH   1  18
ATOM     17  O   UNL     1       1.623   5.959  17.663  0.00  0.00    +0.000 OA
ATOM     18  S   UNL     1       2.593   7.012  17.875  0.00  0.00    +0.000 S 
ATOM     19  O   UNL     1       2.944   7.915  16.797  0.00  0.00    +0.000 OA
BRANCH  18  20
ATOM     20  C   UNL     1       2.012   8.003  19.228  0.00  0.00    +0.000 A 
ATOM     21  C   UNL     1       1.957   7.436  20.509  0.00  0.00    +0.000 A 
ATOM     22  C   UNL     1       1.433   8.170  21.573  0.00  0.00    +0.000 A 
ATOM     23  C   UNL     1       0.937   9.452  21.349  0.00  0.00    +0.000 A 
ATOM     24  C   UNL     1       0.990  10.016  20.067  0.00  0.00    +0.000 A 
ATOM     25  C   UNL     1       1.524   9.291  18.999  0.00  0.00    +0.000 A 
ATOM     26  O   UNL     1       0.507  11.268  19.783  0.00  0.00    +0.000 OA
ATOM     27  C   UNL     1       0.237  12.023  20.971  0.00  0.00    +0.000 C 
ATOM     28  C   UNL     1      -0.445  11.172  22.030  0.00  0.00    +0.000 C 
ATOM     29  O   UNL     1       0.404  10.095  22.436  0.00  0.00    +0.000 OA
ENDBRANCH  18  20
ENDBRANCH   1  18
TORSDOF 3
ENDMDL
MODEL 9
REMARK VINA RESULT:      -8.2      8.494     11.371
REMARK  Name = 
REMARK  3 active torsions:
REMARK  status: ('A' for Active; 'I' for Inactive)
REMARK    1  A    between atoms: S_2  and  C_4
REMARK    2  A    between atoms: S_2  and  N_14
REMARK    3  A    between atoms: C_17  and  C_18
REMARK                            x       y       z     vdW  Elec       q    Type
REMARK                         _______ _______ _______ _____ _____    ______ ____
ROOT
ATOM      1  N   UNL     1      -5.790  14.010  21.351  0.00  0.00    +0.000 NA
ATOM      2  C   UNL     1      -5.745  14.506  19.945  0.00  0.00    +0.000 C 
ATOM      3  C   UNL     1      -6.865  13.922  19.085  0.00  0.00    +0.000 C 
ATOM      4  C   UNL     1      -6.908  12.396  19.109  0.00  0.00    +0.000 C 
ATOM      5  C   UNL     1      -6.997  11.930  20.560  0.00  0.00    +0.000 C 
ATOM      6  C   UNL     1      -5.898  12.509  21.443  0.00  0.00    +0.000 C 
ENDROOT
BRANCH   4   7
ATOM      7  C   UNL     1      -5.751  11.780  18.367  0.00  0.00    +0.000 A 
ATOM      8  N   UNL     1      -4.720  11.152  18.888  0.00  0.00    +0.000 NA
ATOM      9  C   UNL     1      -3.928  10.773  17.830  0.00  0.00    +0.000 A 
ATOM     10  C   UNL     1      -2.711  10.073  17.817  0.00  0.00    +0.000 A 
ATOM     11  C   UNL     1      -2.100   9.813  16.583  0.00  0.00    +0.000 A 
ATOM     12  C   UNL     1      -2.688  10.239  15.389  0.00  0.00    +0.000 A 
ATOM     13  C   UNL     1      -3.900  10.937  15.384  0.00  0.00    +0.000 A 
ATOM     14  C   UNL     1      -4.489  11.184  16.629  0.00  0.00    +0.000 A 
ATOM     15  N   UNL     1      -5.645  11.822  16.997  0.00  0.00    +0.000 N 
ATOM     16  H   UNL     1      -6.302  12.255  16.365  0.00  0.00    +0.000 HD
ENDBRANCH   4   7
BRANCH   1  18
ATOM     17  O   UNL     1      -4.755  14.287  23.696  0.00  0.00    +0.000 OA
ATOM     18  S   UNL     1      -4.421  14.518  22.307  0.00  0.00    +0.000 S 
ATOM     19  O   UNL     1      -4.044  15.842  21.852  0.00  0.00    +0.000 OA
BRANCH  18  20
ATOM     20  C   UNL     1      -3.091  13.418  21.892  0.00  0.00    +0.000 A 
ATOM     21  C   UNL     1      -2.534  13.481  20.607  0.00  0.00    +0.000 A 
ATOM     22  C   UNL     1      -1.541  12.577  20.234  0.00  0.00    +0.000 A 
ATOM     23  C   UNL     1      -1.131  11.593  21.130  0.00  0.00    +0.000 A 
ATOM     24  C   UNL     1      -1.690  11.530  22.414  0.00  0.00    +0.000 A 
ATOM     25  C   UNL     1      -2.678  12.439  22.798  0.00  0.00    +0.000 A 
ATOM     26  O   UNL     1      -1.335  10.577  23.335  0.00  0.00    +0.000 OA
ATOM     27  C   UNL     1      -0.145   9.876  22.953  0.00  0.00    +0.000 C 
ATOM     28  C   UNL     1      -0.152   9.529  21.473  0.00  0.00    +0.000 C 
ATOM     29  O   UNL     1      -0.178  10.718  20.678  0.00  0.00    +0.000 OA
ENDBRANCH  18  20
ENDBRANCH   1  18
TORSDOF 3
ENDMDL
