MODEL 1
REMARK VINA RESULT:      -8.4      0.000      0.000
REMARK  Name = 
REMARK  6 active torsions:
REMARK  status: ('A' for Active; 'I' for Inactive)
REMARK    1  A    between atoms: C_2  and  C_28
REMARK    2  A    between atoms: N_3  and  C_4
REMARK    3  A    between atoms: C_11  and  O_12
REMARK    4  A    between atoms: C_13  and  N_14
REMARK    5  A    between atoms: C_17  and  C_18
REMARK    6  A    between atoms: C_18  and  C_19
REMARK                            x       y       z     vdW  Elec       q    Type
REMARK                         _______ _______ _______ _____ _____    ______ ____
ROOT
ATOM      1  C   UNL     1      -3.688  14.050  23.840  0.00  0.00    +0.000 A 
ATOM      2  C   UNL     1      -3.223  15.298  24.290  0.00  0.00    +0.000 A 
ATOM      3  C   UNL     1      -4.083  16.374  24.493  0.00  0.00    +0.000 A 
ATOM      4  C   UNL     1      -5.421  16.254  24.170  0.00  0.00    +0.000 A 
ATOM      5  C   UNL     1      -5.908  15.045  23.659  0.00  0.00    +0.000 A 
ATOM      6  C   UNL     1      -5.069  13.902  23.576  0.00  0.00    +0.000 A 
ATOM      7  C   UNL     1      -5.657  12.560  23.168  0.00  0.00    +0.000 C 
ATOM      8  C   UNL     1      -7.150  12.601  22.821  0.00  0.00    +0.000 C 
ATOM      9  C   UNL     1      -7.573  13.913  22.108  0.00  0.00    +0.000 C 
ATOM     10  C   UNL     1      -7.320  15.053  23.114  0.00  0.00    +0.000 C 
ENDROOT
BRANCH   9  11
ATOM     11  N   UNL     1      -7.123  14.212  20.724  0.00  0.00    +0.000 NA
ATOM     12  C   UNL     1      -7.868  13.587  19.643  0.00  0.00    +0.000 C 
ATOM     13  C   UNL     1      -7.343  12.200  19.298  0.00  0.00    +0.000 C 
ATOM     14  C   UNL     1      -5.822  12.137  19.042  0.00  0.00    +0.000 C 
ATOM     15  C   UNL     1      -4.999  13.099  19.915  0.00  0.00    +0.000 C 
ATOM     16  C   UNL     1      -5.719  14.371  20.364  0.00  0.00    +0.000 C 
BRANCH  14  17
ATOM     17  C   UNL     1      -5.441  12.329  17.560  0.00  0.00    +0.000 C 
BRANCH  17  18
ATOM     18  C   UNL     1      -4.385  11.366  17.088  0.00  0.00    +0.000 A 
ATOM     19  C   UNL     1      -3.662  10.612  18.020  0.00  0.00    +0.000 A 
ATOM     20  C   UNL     1      -2.616   9.789  17.607  0.00  0.00    +0.000 A 
ATOM     21  C   UNL     1      -2.286   9.705  16.256  0.00  0.00    +0.000 A 
ATOM     22  C   UNL     1      -3.012  10.427  15.313  0.00  0.00    +0.000 A 
ATOM     23  C   UNL     1      -4.063  11.248  15.725  0.00  0.00    +0.000 A 
ENDBRANCH  17  18
ENDBRANCH  14  17
ENDBRANCH   9  11
BRANCH   1  26
ATOM     24  O   UNL     1      -1.979  13.682  21.478  0.00  0.00    +0.000 OA
ATOM     25  C   UNL     1      -2.060  12.852  22.377  0.00  0.00    +0.000 C 
ATOM     26  N   UNL     1      -2.777  12.989  23.554  0.00  0.00    +0.000 N 
ATOM     27  H   UNL     1      -2.605  12.313  24.284  0.00  0.00    +0.000 HD
BRANCH  25  28
ATOM     28  C   UNL     1      -1.283  11.604  22.176  0.00  0.00    +0.000 A 
ATOM     29  C   UNL     1      -0.873  11.327  20.859  0.00  0.00    +0.000 A 
ATOM     30  C   UNL     1      -0.264  10.114  20.542  0.00  0.00    +0.000 A 
ATOM     31  C   UNL     1      -0.064   9.177  21.545  0.00  0.00    +0.000 A 
ATOM     32  F   UNL     1       0.485   7.995  21.233  0.00  0.00    +0.000 F 
ATOM     33  C   UNL     1      -0.455   9.434  22.858  0.00  0.00    +0.000 A 
ATOM     34  C   UNL     1      -1.065  10.654  23.184  0.00  0.00    +0.000 A 
ENDBRANCH  25  28
ENDBRANCH   1  26
BRANCH   8  35
ATOM     35  O   UNL     1      -7.916  12.415  24.032  0.00  0.00    +0.000 OA
ATOM     36  H   UNL     1      -7.293  12.233  24.759  0.00  0.00    +0.000 HD
ENDBRANCH   8  35
TORSDOF 6
ENDMDL
MODEL 2
REMARK VINA RESULT:      -7.7      1.415      2.224
REMARK  Name = 
REMARK  6 active torsions:
REMARK  status: ('A' for Active; 'I' for Inactive)
REMARK    1  A    between atoms: C_2  and  C_28
REMARK    2  A    between atoms: N_3  and  C_4
REMARK    3  A    between atoms: C_11  and  O_12
REMARK    4  A    between atoms: C_13  and  N_14
REMARK    5  A    between atoms: C_17  and  C_18
REMARK    6  A    between atoms: C_18  and  C_19
REMARK                            x       y       z     vdW  Elec       q    Type
REMARK                         _______ _______ _______ _____ _____    ______ ____
ROOT
ATOM      1  C   UNL     1      -1.336  13.845  23.116  0.00  0.00    +0.000 A 
ATOM      2  C   UNL     1      -0.649  15.069  23.197  0.00  0.00    +0.000 A 
ATOM      3  C   UNL     1      -1.278  16.239  23.614  0.00  0.00    +0.000 A 
ATOM      4  C   UNL     1      -2.635  16.233  23.879  0.00  0.00    +0.000 A 
ATOM      5  C   UNL     1      -3.364  15.046  23.746  0.00  0.00    +0.000 A 
ATOM      6  C   UNL     1      -2.709  13.820  23.454  0.00  0.00    +0.000 A 
ATOM      7  C   UNL     1      -3.495  12.518  23.471  0.00  0.00    +0.000 C 
ATOM      8  C   UNL     1      -4.992  12.686  23.759  0.00  0.00    +0.000 C 
ATOM      9  C   UNL     1      -5.590  13.978  23.140  0.00  0.00    +0.000 C 
ATOM     10  C   UNL     1      -4.871  15.158  23.825  0.00  0.00    +0.000 C 
ENDROOT
BRANCH   9  11
ATOM     11  N   UNL     1      -5.736  14.126  21.670  0.00  0.00    +0.000 NA
ATOM     12  C   UNL     1      -6.869  13.454  21.053  0.00  0.00    +0.000 C 
ATOM     13  C   UNL     1      -6.556  12.013  20.673  0.00  0.00    +0.000 C 
ATOM     14  C   UNL     1      -5.273  11.837  19.834  0.00  0.00    +0.000 C 
ATOM     15  C   UNL     1      -4.147  12.821  20.195  0.00  0.00    +0.000 C 
ATOM     16  C   UNL     1      -4.598  14.168  20.760  0.00  0.00    +0.000 C 
BRANCH  14  17
ATOM     17  C   UNL     1      -5.524  11.874  18.313  0.00  0.00    +0.000 C 
BRANCH  17  18
ATOM     18  C   UNL     1      -4.412  11.253  17.511  0.00  0.00    +0.000 A 
ATOM     19  C   UNL     1      -4.299  11.532  16.144  0.00  0.00    +0.000 A 
ATOM     20  C   UNL     1      -3.335  10.889  15.367  0.00  0.00    +0.000 A 
ATOM     21  C   UNL     1      -2.470   9.967  15.952  0.00  0.00    +0.000 A 
ATOM     22  C   UNL     1      -2.551   9.698  17.315  0.00  0.00    +0.000 A 
ATOM     23  C   UNL     1      -3.513  10.344  18.094  0.00  0.00    +0.000 A 
ENDBRANCH  17  18
ENDBRANCH  14  17
ENDBRANCH   9  11
BRANCH   1  26
ATOM     24  O   UNL     1      -0.878  13.082  20.315  0.00  0.00    +0.000 OA
ATOM     25  C   UNL     1      -0.585  12.357  21.259  0.00  0.00    +0.000 C 
ATOM     26  N   UNL     1      -0.694  12.678  22.602  0.00  0.00    +0.000 N 
ATOM     27  H   UNL     1      -0.242  12.065  23.265  0.00  0.00    +0.000 HD
BRANCH  25  28
ATOM     28  C   UNL     1      -0.032  11.026  20.904  0.00  0.00    +0.000 A 
ATOM     29  C   UNL     1       0.260  10.164  21.976  0.00  0.00    +0.000 A 
ATOM     30  C   UNL     1       0.912   8.951  21.759  0.00  0.00    +0.000 A 
ATOM     31  C   UNL     1       1.272   8.601  20.467  0.00  0.00    +0.000 A 
ATOM     32  F   UNL     1       1.935   7.454  20.262  0.00  0.00    +0.000 F 
ATOM     33  C   UNL     1       0.986   9.437  19.388  0.00  0.00    +0.000 A 
ATOM     34  C   UNL     1       0.326  10.657  19.600  0.00  0.00    +0.000 A 
ENDBRANCH  25  28
ENDBRANCH   1  26
BRANCH   8  35
ATOM     35  O   UNL     1      -5.197  12.670  25.189  0.00  0.00    +0.000 OA
ATOM     36  H   UNL     1      -5.546  11.794  25.435  0.00  0.00    +0.000 HD
ENDBRANCH   8  35
TORSDOF 6
ENDMDL
MODEL 3
REMARK VINA RESULT:      -7.6      2.053      5.439
REMARK  Name = 
REMARK  6 active torsions:
REMARK  status: ('A' for Active; 'I' for Inactive)
REMARK    1  A    between atoms: C_2  and  C_28
REMARK    2  A    between atoms: N_3  and  C_4
REMARK    3  A    between atoms: C_11  and  O_12
REMARK    4  A    between atoms: C_13  and  N_14
REMARK    5  A    between atoms: C_17  and  C_18
REMARK    6  A    between atoms: C_18  and  C_19
REMARK                            x       y       z     vdW  Elec       q    Type
REMARK                         _______ _______ _______ _____ _____    ______ ____
ROOT
ATOM      1  C   UNL     1      -5.847  14.673  20.823  0.00  0.00    +0.000 A 
ATOM      2  C   UNL     1      -7.189  14.569  21.229  0.00  0.00    +0.000 A 
ATOM      3  C   UNL     1      -7.677  15.254  22.339  0.00  0.00    +0.000 A 
ATOM      4  C   UNL     1      -6.814  15.996  23.123  0.00  0.00    +0.000 A 
ATOM      5  C   UNL     1      -5.458  16.071  22.785  0.00  0.00    +0.000 A 
ATOM      6  C   UNL     1      -4.976  15.489  21.583  0.00  0.00    +0.000 A 
ATOM      7  C   UNL     1      -3.534  15.717  21.156  0.00  0.00    +0.000 C 
ATOM      8  C   UNL     1      -2.703  16.541  22.146  0.00  0.00    +0.000 C 
ATOM      9  C   UNL     1      -3.067  16.260  23.628  0.00  0.00    +0.000 C 
ATOM     10  C   UNL     1      -4.535  16.702  23.804  0.00  0.00    +0.000 C 
ENDROOT
BRANCH   9  11
ATOM     11  N   UNL     1      -2.745  14.956  24.262  0.00  0.00    +0.000 NA
ATOM     12  C   UNL     1      -1.350  14.545  24.243  0.00  0.00    +0.000 C 
ATOM     13  C   UNL     1      -0.982  13.790  22.974  0.00  0.00    +0.000 C 
ATOM     14  C   UNL     1      -1.919  12.611  22.635  0.00  0.00    +0.000 C 
ATOM     15  C   UNL     1      -3.391  12.853  23.013  0.00  0.00    +0.000 C 
ATOM     16  C   UNL     1      -3.629  13.799  24.190  0.00  0.00    +0.000 C 
BRANCH  14  17
ATOM     17  C   UNL     1      -1.448  11.265  23.222  0.00  0.00    +0.000 C 
BRANCH  17  18
ATOM     18  C   UNL     1      -0.615  10.458  22.263  0.00  0.00    +0.000 A 
ATOM     19  C   UNL     1       0.162   9.395  22.739  0.00  0.00    +0.000 A 
ATOM     20  C   UNL     1       1.013   8.700  21.881  0.00  0.00    +0.000 A 
ATOM     21  C   UNL     1       1.091   9.057  20.536  0.00  0.00    +0.000 A 
ATOM     22  C   UNL     1       0.305  10.093  20.040  0.00  0.00    +0.000 A 
ATOM     23  C   UNL     1      -0.551  10.787  20.898  0.00  0.00    +0.000 A 
ENDBRANCH  17  18
ENDBRANCH  14  17
ENDBRANCH   9  11
BRANCH   1  26
ATOM     24  O   UNL     1      -5.634  11.751  20.604  0.00  0.00    +0.000 OA
ATOM     25  C   UNL     1      -5.213  12.516  19.743  0.00  0.00    +0.000 C 
ATOM     26  N   UNL     1      -5.348  13.894  19.736  0.00  0.00    +0.000 N 
ATOM     27  H   UNL     1      -5.123  14.379  18.880  0.00  0.00    +0.000 HD
BRANCH  25  28
ATOM     28  C   UNL     1      -4.524  11.878  18.593  0.00  0.00    +0.000 A 
ATOM     29  C   UNL     1      -3.130  11.724  18.706  0.00  0.00    +0.000 A 
ATOM     30  C   UNL     1      -2.374  11.269  17.628  0.00  0.00    +0.000 A 
ATOM     31  C   UNL     1      -3.013  10.967  16.435  0.00  0.00    +0.000 A 
ATOM     32  F   UNL     1      -2.281  10.568  15.385  0.00  0.00    +0.000 F 
ATOM     33  C   UNL     1      -4.394  11.106  16.303  0.00  0.00    +0.000 A 
ATOM     34  C   UNL     1      -5.162  11.559  17.386  0.00  0.00    +0.000 A 
ENDBRANCH  25  28
ENDBRANCH   1  26
BRANCH   8  35
ATOM     35  O   UNL     1      -2.872  17.944  21.842  0.00  0.00    +0.000 OA
ATOM     36  H   UNL     1      -2.729  18.066  20.886  0.00  0.00    +0.000 HD
ENDBRANCH   8  35
TORSDOF 6
ENDMDL
MODEL 4
REMARK VINA RESULT:      -7.5      2.039      5.473
REMARK  Name = 
REMARK  6 active torsions:
REMARK  status: ('A' for Active; 'I' for Inactive)
REMARK    1  A    between atoms: C_2  and  C_28
REMARK    2  A    between atoms: N_3  and  C_4
REMARK    3  A    between atoms: C_11  and  O_12
REMARK    4  A    between atoms: C_13  and  N_14
REMARK    5  A    between atoms: C_17  and  C_18
REMARK    6  A    between atoms: C_18  and  C_19
REMARK                            x       y       z     vdW  Elec       q    Type
REMARK                         _______ _______ _______ _____ _____    ______ ____
ROOT
ATOM      1  C   UNL     1      -5.642  13.921  20.685  0.00  0.00    +0.000 A 
ATOM      2  C   UNL     1      -6.962  13.542  20.982  0.00  0.00    +0.000 A 
ATOM      3  C   UNL     1      -7.644  14.048  22.085  0.00  0.00    +0.000 A 
ATOM      4  C   UNL     1      -6.991  14.884  22.971  0.00  0.00    +0.000 A 
ATOM      5  C   UNL     1      -5.654  15.233  22.743  0.00  0.00    +0.000 A 
ATOM      6  C   UNL     1      -4.994  14.832  21.551  0.00  0.00    +0.000 A 
ATOM      7  C   UNL     1      -3.596  15.353  21.249  0.00  0.00    +0.000 C 
ATOM      8  C   UNL     1      -3.004  16.251  22.342  0.00  0.00    +0.000 C 
ATOM      9  C   UNL     1      -3.404  15.809  23.775  0.00  0.00    +0.000 C 
ATOM     10  C   UNL     1      -4.937  15.956  23.861  0.00  0.00    +0.000 C 
ENDROOT
BRANCH   9  11
ATOM     11  N   UNL     1      -2.881  14.548  24.362  0.00  0.00    +0.000 NA
ATOM     12  C   UNL     1      -1.449  14.318  24.249  0.00  0.00    +0.000 C 
ATOM     13  C   UNL     1      -1.070  13.631  22.944  0.00  0.00    +0.000 C 
ATOM     14  C   UNL     1      -1.871  12.347  22.640  0.00  0.00    +0.000 C 
ATOM     15  C   UNL     1      -3.335  12.396  23.112  0.00  0.00    +0.000 C 
ATOM     16  C   UNL     1      -3.615  13.290  24.320  0.00  0.00    +0.000 C 
BRANCH  14  17
ATOM     17  C   UNL     1      -1.199  11.065  23.170  0.00  0.00    +0.000 C 
BRANCH  17  18
ATOM     18  C   UNL     1      -0.334  10.380  22.146  0.00  0.00    +0.000 A 
ATOM     19  C   UNL     1      -0.431  10.742  20.797  0.00  0.00    +0.000 A 
ATOM     20  C   UNL     1       0.291  10.052  19.824  0.00  0.00    +0.000 A 
ATOM     21  C   UNL     1       1.123   8.997  20.191  0.00  0.00    +0.000 A 
ATOM     22  C   UNL     1       1.253   8.641  21.530  0.00  0.00    +0.000 A 
ATOM     23  C   UNL     1       0.533   9.335  22.506  0.00  0.00    +0.000 A 
ENDBRANCH  17  18
ENDBRANCH  14  17
ENDBRANCH   9  11
BRANCH   1  26
ATOM     24  O   UNL     1      -6.223  11.410  19.276  0.00  0.00    +0.000 OA
ATOM     25  C   UNL     1      -5.233  12.092  19.039  0.00  0.00    +0.000 C 
ATOM     26  N   UNL     1      -4.934  13.323  19.600  0.00  0.00    +0.000 N 
ATOM     27  H   UNL     1      -4.189  13.858  19.178  0.00  0.00    +0.000 HD
BRANCH  25  28
ATOM     28  C   UNL     1      -4.296  11.542  18.027  0.00  0.00    +0.000 A 
ATOM     29  C   UNL     1      -4.732  11.570  16.690  0.00  0.00    +0.000 A 
ATOM     30  C   UNL     1      -3.990  10.951  15.685  0.00  0.00    +0.000 A 
ATOM     31  C   UNL     1      -2.810  10.304  16.019  0.00  0.00    +0.000 A 
ATOM     32  F   UNL     1      -2.117   9.674  15.060  0.00  0.00    +0.000 F 
ATOM     33  C   UNL     1      -2.355  10.271  17.337  0.00  0.00    +0.000 A 
ATOM     34  C   UNL     1      -3.095  10.896  18.352  0.00  0.00    +0.000 A 
ENDBRANCH  25  28
ENDBRANCH   1  26
BRANCH   8  35
ATOM     35  O   UNL     1      -3.417  17.614  22.101  0.00  0.00    +0.000 OA
ATOM     36  H   UNL     1      -3.719  17.993  22.946  0.00  0.00    +0.000 HD
ENDBRANCH   8  35
TORSDOF 6
ENDMDL
MODEL 5
REMARK VINA RESULT:      -7.5      2.078      5.510
REMARK  Name = 
REMARK  6 active torsions:
REMARK  status: ('A' for Active; 'I' for Inactive)
REMARK    1  A    between atoms: C_2  and  C_28
REMARK    2  A    between atoms: N_3  and  C_4
REMARK    3  A    between atoms: C_11  and  O_12
REMARK    4  A    between atoms: C_13  and  N_14
REMARK    5  A    between atoms: C_17  and  C_18
REMARK    6  A    between atoms: C_18  and  C_19
REMARK                            x       y       z     vdW  Elec       q    Type
REMARK                         _______ _______ _______ _____ _____    ______ ____
ROOT
ATOM      1  C   UNL     1      -5.812  13.021  20.921  0.00  0.00    +0.000 A 
ATOM      2  C   UNL     1      -7.013  12.482  21.417  0.00  0.00    +0.000 A 
ATOM      3  C   UNL     1      -7.672  13.035  22.511  0.00  0.00    +0.000 A 
ATOM      4  C   UNL     1      -7.102  14.094  23.192  0.00  0.00    +0.000 A 
ATOM      5  C   UNL     1      -5.875  14.616  22.767  0.00  0.00    +0.000 A 
ATOM      6  C   UNL     1      -5.263  14.149  21.574  0.00  0.00    +0.000 A 
ATOM      7  C   UNL     1      -4.013  14.837  21.044  0.00  0.00    +0.000 C 
ATOM      8  C   UNL     1      -3.495  15.978  21.928  0.00  0.00    +0.000 C 
ATOM      9  C   UNL     1      -3.681  15.705  23.445  0.00  0.00    +0.000 C 
ATOM     10  C   UNL     1      -5.201  15.612  23.685  0.00  0.00    +0.000 C 
ENDROOT
BRANCH   9  11
ATOM     11  N   UNL     1      -2.891  14.653  24.136  0.00  0.00    +0.000 NA
ATOM     12  C   UNL     1      -1.513  14.478  23.703  0.00  0.00    +0.000 C 
ATOM     13  C   UNL     1      -1.388  13.517  22.530  0.00  0.00    +0.000 C 
ATOM     14  C   UNL     1      -2.088  12.157  22.738  0.00  0.00    +0.000 C 
ATOM     15  C   UNL     1      -3.389  12.241  23.556  0.00  0.00    +0.000 C 
ATOM     16  C   UNL     1      -3.465  13.385  24.567  0.00  0.00    +0.000 C 
BRANCH  14  17
ATOM     17  C   UNL     1      -1.166  11.078  23.341  0.00  0.00    +0.000 C 
BRANCH  17  18
ATOM     18  C   UNL     1      -0.436  10.272  22.300  0.00  0.00    +0.000 A 
ATOM     19  C   UNL     1       0.530   9.339  22.694  0.00  0.00    +0.000 A 
ATOM     20  C   UNL     1       1.284   8.654  21.741  0.00  0.00    +0.000 A 
ATOM     21  C   UNL     1       1.074   8.892  20.384  0.00  0.00    +0.000 A 
ATOM     22  C   UNL     1       0.098   9.796  19.975  0.00  0.00    +0.000 A 
ATOM     23  C   UNL     1      -0.661  10.478  20.929  0.00  0.00    +0.000 A 
ENDBRANCH  17  18
ENDBRANCH  14  17
ENDBRANCH   9  11
BRANCH   1  26
ATOM     24  O   UNL     1      -6.506  12.914  18.068  0.00  0.00    +0.000 OA
ATOM     25  C   UNL     1      -5.546  12.318  18.543  0.00  0.00    +0.000 C 
ATOM     26  N   UNL     1      -5.109  12.384  19.855  0.00  0.00    +0.000 N 
ATOM     27  H   UNL     1      -4.201  11.995  20.063  0.00  0.00    +0.000 HD
BRANCH  25  28
ATOM     28  C   UNL     1      -4.774  11.477  17.594  0.00  0.00    +0.000 A 
ATOM     29  C   UNL     1      -3.986  10.458  18.159  0.00  0.00    +0.000 A 
ATOM     30  C   UNL     1      -3.117   9.707  17.369  0.00  0.00    +0.000 A 
ATOM     31  C   UNL     1      -3.036   9.977  16.011  0.00  0.00    +0.000 A 
ATOM     32  F   UNL     1      -2.171   9.283  15.259  0.00  0.00    +0.000 F 
ATOM     33  C   UNL     1      -3.813  10.977  15.429  0.00  0.00    +0.000 A 
ATOM     34  C   UNL     1      -4.693  11.733  16.218  0.00  0.00    +0.000 A 
ENDBRANCH  25  28
ENDBRANCH   1  26
BRANCH   8  35
ATOM     35  O   UNL     1      -4.165  17.201  21.551  0.00  0.00    +0.000 OA
ATOM     36  H   UNL     1      -4.327  17.720  22.360  0.00  0.00    +0.000 HD
ENDBRANCH   8  35
TORSDOF 6
ENDMDL
MODEL 6
REMARK VINA RESULT:      -7.3      1.480      1.855
REMARK  Name = 
REMARK  6 active torsions:
REMARK  status: ('A' for Active; 'I' for Inactive)
REMARK    1  A    between atoms: C_2  and  C_28
REMARK    2  A    between atoms: N_3  and  C_4
REMARK    3  A    between atoms: C_11  and  O_12
REMARK    4  A    between atoms: C_13  and  N_14
REMARK    5  A    between atoms: C_17  and  C_18
REMARK    6  A    between atoms: C_18  and  C_19
REMARK                            x       y       z     vdW  Elec       q    Type
REMARK                         _______ _______ _______ _____ _____    ______ ____
ROOT
ATOM      1  C   UNL     1      -1.719  14.358  22.707  0.00  0.00    +0.000 A 
ATOM      2  C   UNL     1      -1.221  15.673  22.700  0.00  0.00    +0.000 A 
ATOM      3  C   UNL     1      -1.991  16.753  23.123  0.00  0.00    +0.000 A 
ATOM      4  C   UNL     1      -3.310  16.557  23.486  0.00  0.00    +0.000 A 
ATOM      5  C   UNL     1      -3.858  15.270  23.445  0.00  0.00    +0.000 A 
ATOM      6  C   UNL     1      -3.046  14.144  23.145  0.00  0.00    +0.000 A 
ATOM      7  C   UNL     1      -3.624  12.741  23.260  0.00  0.00    +0.000 C 
ATOM      8  C   UNL     1      -5.106  12.696  23.651  0.00  0.00    +0.000 C 
ATOM      9  C   UNL     1      -5.932  13.858  23.037  0.00  0.00    +0.000 C 
ATOM     10  C   UNL     1      -5.356  15.160  23.629  0.00  0.00    +0.000 C 
ENDROOT
BRANCH   9  11
ATOM     11  N   UNL     1      -6.197  13.921  21.577  0.00  0.00    +0.000 NA
ATOM     12  C   UNL     1      -7.191  12.997  21.051  0.00  0.00    +0.000 C 
ATOM     13  C   UNL     1      -6.593  11.647  20.680  0.00  0.00    +0.000 C 
ATOM     14  C   UNL     1      -5.356  11.725  19.760  0.00  0.00    +0.000 C 
ATOM     15  C   UNL     1      -4.455  12.943  20.025  0.00  0.00    +0.000 C 
ATOM     16  C   UNL     1      -5.155  14.178  20.591  0.00  0.00    +0.000 C 
BRANCH  14  17
ATOM     17  C   UNL     1      -5.703  11.654  18.259  0.00  0.00    +0.000 C 
BRANCH  17  18
ATOM     18  C   UNL     1      -4.604  11.057  17.422  0.00  0.00    +0.000 A 
ATOM     19  C   UNL     1      -3.757  10.088  17.973  0.00  0.00    +0.000 A 
ATOM     20  C   UNL     1      -2.675   9.596  17.244  0.00  0.00    +0.000 A 
ATOM     21  C   UNL     1      -2.432  10.063  15.954  0.00  0.00    +0.000 A 
ATOM     22  C   UNL     1      -3.280  11.006  15.381  0.00  0.00    +0.000 A 
ATOM     23  C   UNL     1      -4.367  11.497  16.109  0.00  0.00    +0.000 A 
ENDBRANCH  17  18
ENDBRANCH  14  17
ENDBRANCH   9  11
BRANCH   1  26
ATOM     24  O   UNL     1      -1.079  13.741  19.907  0.00  0.00    +0.000 OA
ATOM     25  C   UNL     1      -0.751  13.017  20.839  0.00  0.00    +0.000 C 
ATOM     26  N   UNL     1      -0.943  13.279  22.186  0.00  0.00    +0.000 N 
ATOM     27  H   UNL     1      -0.459  12.691  22.848  0.00  0.00    +0.000 HD
BRANCH  25  28
ATOM     28  C   UNL     1      -0.054  11.760  20.468  0.00  0.00    +0.000 A 
ATOM     29  C   UNL     1       0.372  11.652  19.131  0.00  0.00    +0.000 A 
ATOM     30  C   UNL     1       0.907  10.460  18.648  0.00  0.00    +0.000 A 
ATOM     31  C   UNL     1       1.015   9.373  19.503  0.00  0.00    +0.000 A 
ATOM     32  F   UNL     1       1.492   8.214  19.027  0.00  0.00    +0.000 F 
ATOM     33  C   UNL     1       0.607   9.460  20.833  0.00  0.00    +0.000 A 
ATOM     34  C   UNL     1       0.072  10.659  21.327  0.00  0.00    +0.000 A 
ENDBRANCH  25  28
ENDBRANCH   1  26
BRANCH   8  35
ATOM     35  O   UNL     1      -5.209  12.711  25.092  0.00  0.00    +0.000 OA
ATOM     36  H   UNL     1      -4.395  13.110  25.450  0.00  0.00    +0.000 HD
ENDBRANCH   8  35
TORSDOF 6
ENDMDL
MODEL 7
REMARK VINA RESULT:      -7.3      1.016      1.354
REMARK  Name = 
REMARK  6 active torsions:
REMARK  status: ('A' for Active; 'I' for Inactive)
REMARK    1  A    between atoms: C_2  and  C_28
REMARK    2  A    between atoms: N_3  and  C_4
REMARK    3  A    between atoms: C_11  and  O_12
REMARK    4  A    between atoms: C_13  and  N_14
REMARK    5  A    between atoms: C_17  and  C_18
REMARK    6  A    between atoms: C_18  and  C_19
REMARK                            x       y       z     vdW  Elec       q    Type
REMARK                         _______ _______ _______ _____ _____    ______ ____
ROOT
ATOM      1  C   UNL     1      -2.772  14.086  22.835  0.00  0.00    +0.000 A 
ATOM      2  C   UNL     1      -2.010  15.266  22.792  0.00  0.00    +0.000 A 
ATOM      3  C   UNL     1      -2.593  16.524  22.927  0.00  0.00    +0.000 A 
ATOM      4  C   UNL     1      -3.967  16.638  23.023  0.00  0.00    +0.000 A 
ATOM      5  C   UNL     1      -4.763  15.487  23.004  0.00  0.00    +0.000 A 
ATOM      6  C   UNL     1      -4.172  14.196  23.004  0.00  0.00    +0.000 A 
ATOM      7  C   UNL     1      -5.050  12.961  23.144  0.00  0.00    +0.000 C 
ATOM      8  C   UNL     1      -6.553  13.257  23.217  0.00  0.00    +0.000 C 
ATOM      9  C   UNL     1      -6.982  14.451  22.322  0.00  0.00    +0.000 C 
ATOM     10  C   UNL     1      -6.257  15.692  22.880  0.00  0.00    +0.000 C 
ENDROOT
BRANCH   9  11
ATOM     11  N   UNL     1      -6.954  14.347  20.841  0.00  0.00    +0.000 NA
ATOM     12  C   UNL     1      -7.895  13.419  20.232  0.00  0.00    +0.000 C 
ATOM     13  C   UNL     1      -7.343  12.004  20.140  0.00  0.00    +0.000 C 
ATOM     14  C   UNL     1      -5.949  11.901  19.484  0.00  0.00    +0.000 C 
ATOM     15  C   UNL     1      -5.025  13.092  19.789  0.00  0.00    +0.000 C 
ATOM     16  C   UNL     1      -5.724  14.424  20.063  0.00  0.00    +0.000 C 
BRANCH  14  17
ATOM     17  C   UNL     1      -6.004  11.664  17.962  0.00  0.00    +0.000 C 
BRANCH  17  18
ATOM     18  C   UNL     1      -4.737  11.068  17.407  0.00  0.00    +0.000 A 
ATOM     19  C   UNL     1      -4.008  10.148  18.169  0.00  0.00    +0.000 A 
ATOM     20  C   UNL     1      -2.784   9.661  17.712  0.00  0.00    +0.000 A 
ATOM     21  C   UNL     1      -2.280  10.085  16.484  0.00  0.00    +0.000 A 
ATOM     22  C   UNL     1      -3.005  10.979  15.701  0.00  0.00    +0.000 A 
ATOM     23  C   UNL     1      -4.233  11.464  16.156  0.00  0.00    +0.000 A 
ENDBRANCH  17  18
ENDBRANCH  14  17
ENDBRANCH   9  11
BRANCH   1  26
ATOM     24  O   UNL     1      -0.106  13.489  21.753  0.00  0.00    +0.000 OA
ATOM     25  C   UNL     1      -0.926  12.619  22.021  0.00  0.00    +0.000 C 
ATOM     26  N   UNL     1      -2.166  12.814  22.606  0.00  0.00    +0.000 N 
ATOM     27  H   UNL     1      -2.656  11.998  22.941  0.00  0.00    +0.000 HD
BRANCH  25  28
ATOM     28  C   UNL     1      -0.517  11.227  21.707  0.00  0.00    +0.000 A 
ATOM     29  C   UNL     1      -0.473  10.328  22.788  0.00  0.00    +0.000 A 
ATOM     30  C   UNL     1       0.034   9.040  22.625  0.00  0.00    +0.000 A 
ATOM     31  C   UNL     1       0.497   8.651  21.378  0.00  0.00    +0.000 A 
ATOM     32  F   UNL     1       1.022   7.426  21.230  0.00  0.00    +0.000 F 
ATOM     33  C   UNL     1       0.456   9.522  20.290  0.00  0.00    +0.000 A 
ATOM     34  C   UNL     1      -0.057  10.818  20.447  0.00  0.00    +0.000 A 
ENDBRANCH  25  28
ENDBRANCH   1  26
BRANCH   8  35
ATOM     35  O   UNL     1      -6.914  13.504  24.594  0.00  0.00    +0.000 OA
ATOM     36  H   UNL     1      -6.100  13.713  25.087  0.00  0.00    +0.000 HD
ENDBRANCH   8  35
TORSDOF 6
ENDMDL
MODEL 8
REMARK VINA RESULT:      -7.2      6.779      9.049
REMARK  Name = 
REMARK  6 active torsions:
REMARK  status: ('A' for Active; 'I' for Inactive)
REMARK    1  A    between atoms: C_2  and  C_28
REMARK    2  A    between atoms: N_3  and  C_4
REMARK    3  A    between atoms: C_11  and  O_12
REMARK    4  A    between atoms: C_13  and  N_14
REMARK    5  A    between atoms: C_17  and  C_18
REMARK    6  A    between atoms: C_18  and  C_19
REMARK                            x       y       z     vdW  Elec       q    Type
REMARK                         _______ _______ _______ _____ _____    ______ ____
ROOT
ATOM      1  C   UNL     1       3.671  15.688  18.158  0.00  0.00    +0.000 A 
ATOM      2  C   UNL     1       3.318  16.737  17.292  0.00  0.00    +0.000 A 
ATOM      3  C   UNL     1       2.080  17.369  17.367  0.00  0.00    +0.000 A 
ATOM      4  C   UNL     1       1.128  16.911  18.257  0.00  0.00    +0.000 A 
ATOM      5  C   UNL     1       1.421  15.827  19.092  0.00  0.00    +0.000 A 
ATOM      6  C   UNL     1       2.724  15.263  19.119  0.00  0.00    +0.000 A 
ATOM      7  C   UNL     1       3.065  14.192  20.144  0.00  0.00    +0.000 C 
ATOM      8  C   UNL     1       1.893  13.779  21.042  0.00  0.00    +0.000 C 
ATOM      9  C   UNL     1       0.529  13.776  20.300  0.00  0.00    +0.000 C 
ATOM     10  C   UNL     1       0.267  15.234  19.871  0.00  0.00    +0.000 C 
ENDROOT
BRANCH   9  11
ATOM     11  N   UNL     1       0.232  12.770  19.248  0.00  0.00    +0.000 NA
ATOM     12  C   UNL     1      -0.425  11.546  19.680  0.00  0.00    +0.000 C 
ATOM     13  C   UNL     1       0.565  10.482  20.133  0.00  0.00    +0.000 C 
ATOM     14  C   UNL     1       1.696  10.187  19.125  0.00  0.00    +0.000 C 
ATOM     15  C   UNL     1       2.167  11.420  18.335  0.00  0.00    +0.000 C 
ATOM     16  C   UNL     1       1.120  12.514  18.122  0.00  0.00    +0.000 C 
BRANCH  14  17
ATOM     17  C   UNL     1       1.363   9.042  18.147  0.00  0.00    +0.000 C 
BRANCH  17  18
ATOM     18  C   UNL     1       2.326   7.889  18.232  0.00  0.00    +0.000 A 
ATOM     19  C   UNL     1       2.209   6.957  19.269  0.00  0.00    +0.000 A 
ATOM     20  C   UNL     1       3.151   5.940  19.418  0.00  0.00    +0.000 A 
ATOM     21  C   UNL     1       4.216   5.840  18.526  0.00  0.00    +0.000 A 
ATOM     22  C   UNL     1       4.333   6.742  17.473  0.00  0.00    +0.000 A 
ATOM     23  C   UNL     1       3.388   7.759  17.320  0.00  0.00    +0.000 A 
ENDBRANCH  17  18
ENDBRANCH  14  17
ENDBRANCH   9  11
BRANCH   1  26
ATOM     24  O   UNL     1       6.344  16.481  19.084  0.00  0.00    +0.000 OA
ATOM     25  C   UNL     1       6.144  15.479  18.409  0.00  0.00    +0.000 C 
ATOM     26  N   UNL     1       4.910  14.997  18.005  0.00  0.00    +0.000 N 
ATOM     27  H   UNL     1       4.879  14.065  17.617  0.00  0.00    +0.000 HD
BRANCH  25  28
ATOM     28  C   UNL     1       7.352  14.706  18.026  0.00  0.00    +0.000 A 
ATOM     29  C   UNL     1       7.139  13.384  17.592  0.00  0.00    +0.000 A 
ATOM     30  C   UNL     1       8.213  12.532  17.346  0.00  0.00    +0.000 A 
ATOM     31  C   UNL     1       9.504  13.002  17.535  0.00  0.00    +0.000 A 
ATOM     32  F   UNL     1      10.537  12.171  17.337  0.00  0.00    +0.000 F 
ATOM     33  C   UNL     1       9.739  14.310  17.957  0.00  0.00    +0.000 A 
ATOM     34  C   UNL     1       8.662  15.174  18.201  0.00  0.00    +0.000 A 
ENDBRANCH  25  28
ENDBRANCH   1  26
BRANCH   8  35
ATOM     35  O   UNL     1       1.844  14.664  22.183  0.00  0.00    +0.000 OA
ATOM     36  H   UNL     1       2.593  15.283  22.117  0.00  0.00    +0.000 HD
ENDBRANCH   8  35
TORSDOF 6
ENDMDL
MODEL 9
REMARK VINA RESULT:      -7.1      3.563      7.617
REMARK  Name = 
REMARK  6 active torsions:
REMARK  status: ('A' for Active; 'I' for Inactive)
REMARK    1  A    between atoms: C_2  and  C_28
REMARK    2  A    between atoms: N_3  and  C_4
REMARK    3  A    between atoms: C_11  and  O_12
REMARK    4  A    between atoms: C_13  and  N_14
REMARK    5  A    between atoms: C_17  and  C_18
REMARK    6  A    between atoms: C_18  and  C_19
REMARK                            x       y       z     vdW  Elec       q    Type
REMARK                         _______ _______ _______ _____ _____    ______ ____
ROOT
ATOM      1  C   UNL     1      -0.096   9.971  18.318  0.00  0.00    +0.000 A 
ATOM      2  C   UNL     1      -1.184   9.640  17.492  0.00  0.00    +0.000 A 
ATOM      3  C   UNL     1      -2.129  10.587  17.104  0.00  0.00    +0.000 A 
ATOM      4  C   UNL     1      -2.056  11.873  17.602  0.00  0.00    +0.000 A 
ATOM      5  C   UNL     1      -1.022  12.223  18.479  0.00  0.00    +0.000 A 
ATOM      6  C   UNL     1       0.021  11.304  18.774  0.00  0.00    +0.000 A 
ATOM      7  C   UNL     1       1.216  11.756  19.600  0.00  0.00    +0.000 C 
ATOM      8  C   UNL     1       1.133  13.204  20.096  0.00  0.00    +0.000 C 
ATOM      9  C   UNL     1      -0.311  13.639  20.466  0.00  0.00    +0.000 C 
ATOM     10  C   UNL     1      -1.132  13.568  19.163  0.00  0.00    +0.000 C 
ENDROOT
BRANCH   9  11
ATOM     11  N   UNL     1      -1.002  13.069  21.651  0.00  0.00    +0.000 NA
ATOM     12  C   UNL     1      -2.439  12.872  21.539  0.00  0.00    +0.000 C 
ATOM     13  C   UNL     1      -3.230  14.114  21.927  0.00  0.00    +0.000 C 
ATOM     14  C   UNL     1      -2.850  14.713  23.298  0.00  0.00    +0.000 C 
ATOM     15  C   UNL     1      -1.357  14.587  23.644  0.00  0.00    +0.000 C 
ATOM     16  C   UNL     1      -0.628  13.397  23.021  0.00  0.00    +0.000 C 
BRANCH  14  17
ATOM     17  C   UNL     1      -3.700  14.167  24.463  0.00  0.00    +0.000 C 
BRANCH  17  18
ATOM     18  C   UNL     1      -5.155  14.005  24.112  0.00  0.00    +0.000 A 
ATOM     19  C   UNL     1      -5.958  15.137  23.932  0.00  0.00    +0.000 A 
ATOM     20  C   UNL     1      -7.327  15.005  23.703  0.00  0.00    +0.000 A 
ATOM     21  C   UNL     1      -7.906  13.739  23.646  0.00  0.00    +0.000 A 
ATOM     22  C   UNL     1      -7.117  12.602  23.796  0.00  0.00    +0.000 A 
ATOM     23  C   UNL     1      -5.745  12.733  24.020  0.00  0.00    +0.000 A 
ENDBRANCH  17  18
ENDBRANCH  14  17
ENDBRANCH   9  11
BRANCH   1  26
ATOM     24  O   UNL     1       2.404   9.050  17.081  0.00  0.00    +0.000 OA
ATOM     25  C   UNL     1       1.933   8.538  18.090  0.00  0.00    +0.000 C 
ATOM     26  N   UNL     1       0.808   8.966  18.775  0.00  0.00    +0.000 N 
ATOM     27  H   UNL     1       0.643   8.571  19.690  0.00  0.00    +0.000 HD
BRANCH  25  28
ATOM     28  C   UNL     1       2.674   7.370  18.628  0.00  0.00    +0.000 A 
ATOM     29  C   UNL     1       3.750   6.899  17.852  0.00  0.00    +0.000 A 
ATOM     30  C   UNL     1       4.417   5.726  18.196  0.00  0.00    +0.000 A 
ATOM     31  C   UNL     1       4.007   5.021  19.318  0.00  0.00    +0.000 A 
ATOM     32  F   UNL     1       4.623   3.870  19.627  0.00  0.00    +0.000 F 
ATOM     33  C   UNL     1       2.949   5.473  20.105  0.00  0.00    +0.000 A 
ATOM     34  C   UNL     1       2.276   6.656  19.767  0.00  0.00    +0.000 A 
ENDBRANCH  25  28
ENDBRANCH   1  26
BRANCH   8  35
ATOM     35  O   UNL     1       1.677  14.077  19.081  0.00  0.00    +0.000 OA
ATOM     36  H   UNL     1       2.096  13.522  18.398  0.00  0.00    +0.000 HD
ENDBRANCH   8  35
TORSDOF 6
ENDMDL
