MODEL 1
REMARK VINA RESULT:      -5.7      0.000      0.000
REMARK  Name = 
REMARK  0 active torsions:
REMARK  status: ('A' for Active; 'I' for Inactive)
REMARK                            x       y       z     vdW  Elec       q    Type
REMARK                         _______ _______ _______ _____ _____    ______ ____
ROOT
ATOM      1  C   UNL     1       0.755   3.096  19.885  0.00  0.00    +0.000 A 
ATOM      2  C   UNL     1       1.569   2.803  20.973  0.00  0.00    +0.000 A 
ATOM      3  C   UNL     1       2.956   2.809  20.825  0.00  0.00    +0.000 A 
ATOM      4  C   UNL     1       3.557   3.108  19.591  0.00  0.00    +0.000 A 
ATOM      5  C   UNL     1       2.734   3.414  18.491  0.00  0.00    +0.000 A 
ATOM      6  C   UNL     1       1.333   3.401  18.652  0.00  0.00    +0.000 A 
ATOM      7  C   UNL     1       3.311   3.668  17.118  0.00  0.00    +0.000 C 
ATOM      8  N   UNL     1       4.140   4.873  17.039  0.00  0.00    +0.000 NA
ATOM      9  C   UNL     1       5.484   4.623  17.576  0.00  0.00    +0.000 C 
ATOM     10  C   UNL     1       5.552   4.372  19.093  0.00  0.00    +0.000 C 
ATOM     11  N   UNL     1       4.960   3.088  19.489  0.00  0.00    +0.000 N 
ATOM     12  H   UNL     1       3.685   5.604  17.584  0.00  0.00    +0.000 HD
ATOM     13  H   UNL     1       5.377   2.751  20.354  0.00  0.00    +0.000 HD
ENDROOT
TORSDOF 0
ENDMDL
MODEL 2
REMARK VINA RESULT:      -5.5      0.986      1.199
REMARK  Name = 
REMARK  0 active torsions:
REMARK  status: ('A' for Active; 'I' for Inactive)
REMARK                            x       y       z     vdW  Elec       q    Type
REMARK                         _______ _______ _______ _____ _____    ______ ____
ROOT
ATOM      1  C   UNL     1       1.438   2.890  18.438  0.00  0.00    +0.000 A 
ATOM      2  C   UNL     1       1.972   2.603  19.687  0.00  0.00    +0.000 A 
ATOM      3  C   UNL     1       3.319   2.858  19.944  0.00  0.00    +0.000 A 
ATOM      4  C   UNL     1       4.158   3.407  18.959  0.00  0.00    +0.000 A 
ATOM      5  C   UNL     1       3.615   3.707  17.695  0.00  0.00    +0.000 A 
ATOM      6  C   UNL     1       2.253   3.440  17.448  0.00  0.00    +0.000 A 
ATOM      7  C   UNL     1       4.477   4.225  16.567  0.00  0.00    +0.000 C 
ATOM      8  N   UNL     1       5.045   5.552  16.819  0.00  0.00    +0.000 NA
ATOM      9  C   UNL     1       6.218   5.464  17.698  0.00  0.00    +0.000 C 
ATOM     10  C   UNL     1       5.926   5.039  19.147  0.00  0.00    +0.000 C 
ATOM     11  N   UNL     1       5.513   3.634  19.261  0.00  0.00    +0.000 N 
ATOM     12  H   UNL     1       4.327   6.122  17.263  0.00  0.00    +0.000 HD
ATOM     13  H   UNL     1       5.741   3.265  20.181  0.00  0.00    +0.000 HD
ENDROOT
TORSDOF 0
ENDMDL
MODEL 3
REMARK VINA RESULT:      -5.5      1.560      2.899
REMARK  Name = 
REMARK  0 active torsions:
REMARK  status: ('A' for Active; 'I' for Inactive)
REMARK                            x       y       z     vdW  Elec       q    Type
REMARK                         _______ _______ _______ _____ _____    ______ ____
ROOT
ATOM      1  C   UNL     1       2.912   2.426  19.536  0.00  0.00    +0.000 A 
ATOM      2  C   UNL     1       2.354   2.305  18.270  0.00  0.00    +0.000 A 
ATOM      3  C   UNL     1       2.944   2.951  17.184  0.00  0.00    +0.000 A 
ATOM      4  C   UNL     1       4.105   3.728  17.341  0.00  0.00    +0.000 A 
ATOM      5  C   UNL     1       4.677   3.843  18.622  0.00  0.00    +0.000 A 
ATOM      6  C   UNL     1       4.067   3.188  19.711  0.00  0.00    +0.000 A 
ATOM      7  C   UNL     1       5.878   4.724  18.875  0.00  0.00    +0.000 C 
ATOM      8  N   UNL     1       7.094   4.276  18.194  0.00  0.00    +0.000 NA
ATOM      9  C   UNL     1       7.082   4.671  16.779  0.00  0.00    +0.000 C 
ATOM     10  C   UNL     1       6.032   3.962  15.907  0.00  0.00    +0.000 C 
ATOM     11  N   UNL     1       4.656   4.371  16.217  0.00  0.00    +0.000 N 
ATOM     12  H   UNL     1       7.138   3.260  18.265  0.00  0.00    +0.000 HD
ATOM     13  H   UNL     1       4.053   4.254  15.407  0.00  0.00    +0.000 HD
ENDROOT
TORSDOF 0
ENDMDL
MODEL 4
REMARK VINA RESULT:      -5.4      1.245      2.228
REMARK  Name = 
REMARK  0 active torsions:
REMARK  status: ('A' for Active; 'I' for Inactive)
REMARK                            x       y       z     vdW  Elec       q    Type
REMARK                         _______ _______ _______ _____ _____    ______ ____
ROOT
ATOM      1  C   UNL     1       1.169   3.579  20.759  0.00  0.00    +0.000 A 
ATOM      2  C   UNL     1       0.744   2.923  19.612  0.00  0.00    +0.000 A 
ATOM      3  C   UNL     1       1.443   3.089  18.416  0.00  0.00    +0.000 A 
ATOM      4  C   UNL     1       2.580   3.912  18.344  0.00  0.00    +0.000 A 
ATOM      5  C   UNL     1       3.016   4.570  19.509  0.00  0.00    +0.000 A 
ATOM      6  C   UNL     1       2.299   4.396  20.710  0.00  0.00    +0.000 A 
ATOM      7  C   UNL     1       4.184   5.529  19.485  0.00  0.00    +0.000 C 
ATOM      8  N   UNL     1       5.465   4.893  19.168  0.00  0.00    +0.000 NA
ATOM      9  C   UNL     1       5.597   4.669  17.722  0.00  0.00    +0.000 C 
ATOM     10  C   UNL     1       4.644   3.618  17.128  0.00  0.00    +0.000 C 
ATOM     11  N   UNL     1       3.243   4.058  17.111  0.00  0.00    +0.000 N 
ATOM     12  H   UNL     1       5.502   4.001  19.657  0.00  0.00    +0.000 HD
ATOM     13  H   UNL     1       2.727   3.591  16.370  0.00  0.00    +0.000 HD
ENDROOT
TORSDOF 0
ENDMDL
MODEL 5
REMARK VINA RESULT:      -5.4      1.930      4.297
REMARK  Name = 
REMARK  0 active torsions:
REMARK  status: ('A' for Active; 'I' for Inactive)
REMARK                            x       y       z     vdW  Elec       q    Type
REMARK                         _______ _______ _______ _____ _____    ______ ____
ROOT
ATOM      1  C   UNL     1       4.982   6.540  16.337  0.00  0.00    +0.000 A 
ATOM      2  C   UNL     1       5.449   5.437  15.635  0.00  0.00    +0.000 A 
ATOM      3  C   UNL     1       5.167   4.150  16.094  0.00  0.00    +0.000 A 
ATOM      4  C   UNL     1       4.413   3.941  17.261  0.00  0.00    +0.000 A 
ATOM      5  C   UNL     1       3.931   5.058  17.967  0.00  0.00    +0.000 A 
ATOM      6  C   UNL     1       4.226   6.353  17.495  0.00  0.00    +0.000 A 
ATOM      7  C   UNL     1       3.180   4.907  19.270  0.00  0.00    +0.000 C 
ATOM      8  N   UNL     1       1.887   4.233  19.132  0.00  0.00    +0.000 NA
ATOM      9  C   UNL     1       2.060   2.777  19.043  0.00  0.00    +0.000 C 
ATOM     10  C   UNL     1       2.742   2.272  17.760  0.00  0.00    +0.000 C 
ATOM     11  N   UNL     1       4.166   2.623  17.690  0.00  0.00    +0.000 N 
ATOM     12  H   UNL     1       1.442   4.577  18.283  0.00  0.00    +0.000 HD
ATOM     13  H   UNL     1       4.674   1.958  17.114  0.00  0.00    +0.000 HD
ENDROOT
TORSDOF 0
ENDMDL
MODEL 6
REMARK VINA RESULT:      -5.4      1.459      1.490
REMARK  Name = 
REMARK  0 active torsions:
REMARK  status: ('A' for Active; 'I' for Inactive)
REMARK                            x       y       z     vdW  Elec       q    Type
REMARK                         _______ _______ _______ _____ _____    ______ ____
ROOT
ATOM      1  C   UNL     1       0.820   2.909  19.611  0.00  0.00    +0.000 A 
ATOM      2  C   UNL     1       0.950   4.004  20.454  0.00  0.00    +0.000 A 
ATOM      3  C   UNL     1       2.076   4.822  20.365  0.00  0.00    +0.000 A 
ATOM      4  C   UNL     1       3.093   4.563  19.431  0.00  0.00    +0.000 A 
ATOM      5  C   UNL     1       2.959   3.458  18.569  0.00  0.00    +0.000 A 
ATOM      6  C   UNL     1       1.817   2.638  18.672  0.00  0.00    +0.000 A 
ATOM      7  C   UNL     1       4.050   3.077  17.595  0.00  0.00    +0.000 C 
ATOM      8  N   UNL     1       4.280   4.074  16.547  0.00  0.00    +0.000 NA
ATOM      9  C   UNL     1       5.095   5.188  17.050  0.00  0.00    +0.000 C 
ATOM     10  C   UNL     1       4.412   6.083  18.098  0.00  0.00    +0.000 C 
ATOM     11  N   UNL     1       4.217   5.410  19.388  0.00  0.00    +0.000 N 
ATOM     12  H   UNL     1       3.374   4.424  16.241  0.00  0.00    +0.000 HD
ATOM     13  H   UNL     1       4.184   6.086  20.147  0.00  0.00    +0.000 HD
ENDROOT
TORSDOF 0
ENDMDL
MODEL 7
REMARK VINA RESULT:      -5.3      1.726      2.124
REMARK  Name = 
REMARK  0 active torsions:
REMARK  status: ('A' for Active; 'I' for Inactive)
REMARK                            x       y       z     vdW  Elec       q    Type
REMARK                         _______ _______ _______ _____ _____    ______ ____
ROOT
ATOM      1  C   UNL     1       1.158   4.001  20.760  0.00  0.00    +0.000 A 
ATOM      2  C   UNL     1       1.108   2.786  20.088  0.00  0.00    +0.000 A 
ATOM      3  C   UNL     1       1.697   2.661  18.830  0.00  0.00    +0.000 A 
ATOM      4  C   UNL     1       2.350   3.746  18.220  0.00  0.00    +0.000 A 
ATOM      5  C   UNL     1       2.409   4.975  18.904  0.00  0.00    +0.000 A 
ATOM      6  C   UNL     1       1.806   5.088  20.173  0.00  0.00    +0.000 A 
ATOM      7  C   UNL     1       3.027   6.202  18.274  0.00  0.00    +0.000 C 
ATOM      8  N   UNL     1       4.466   6.081  18.031  0.00  0.00    +0.000 NA
ATOM      9  C   UNL     1       4.731   5.301  16.815  0.00  0.00    +0.000 C 
ATOM     10  C   UNL     1       4.366   3.809  16.895  0.00  0.00    +0.000 C 
ATOM     11  N   UNL     1       2.918   3.575  16.944  0.00  0.00    +0.000 N 
ATOM     12  H   UNL     1       4.882   5.612  18.834  0.00  0.00    +0.000 HD
ATOM     13  H   UNL     1       2.688   2.657  16.570  0.00  0.00    +0.000 HD
ENDROOT
TORSDOF 0
ENDMDL
MODEL 8
REMARK VINA RESULT:      -5.3      1.865      3.850
REMARK  Name = 
REMARK  0 active torsions:
REMARK  status: ('A' for Active; 'I' for Inactive)
REMARK                            x       y       z     vdW  Elec       q    Type
REMARK                         _______ _______ _______ _____ _____    ______ ____
ROOT
ATOM      1  C   UNL     1       5.291   4.258  17.038  0.00  0.00    +0.000 A 
ATOM      2  C   UNL     1       5.876   4.894  18.124  0.00  0.00    +0.000 A 
ATOM      3  C   UNL     1       5.089   5.286  19.208  0.00  0.00    +0.000 A 
ATOM      4  C   UNL     1       3.705   5.047  19.228  0.00  0.00    +0.000 A 
ATOM      5  C   UNL     1       3.112   4.394  18.131  0.00  0.00    +0.000 A 
ATOM      6  C   UNL     1       3.918   4.007  17.041  0.00  0.00    +0.000 A 
ATOM      7  C   UNL     1       1.619   4.175  18.053  0.00  0.00    +0.000 C 
ATOM      8  N   UNL     1       1.099   3.271  19.080  0.00  0.00    +0.000 NA
ATOM      9  C   UNL     1       0.947   3.966  20.366  0.00  0.00    +0.000 C 
ATOM     10  C   UNL     1       2.261   4.388  21.046  0.00  0.00    +0.000 C 
ATOM     11  N   UNL     1       2.952   5.473  20.338  0.00  0.00    +0.000 N 
ATOM     12  H   UNL     1       1.758   2.501  19.185  0.00  0.00    +0.000 HD
ATOM     13  H   UNL     1       3.531   6.010  20.978  0.00  0.00    +0.000 HD
ENDROOT
TORSDOF 0
ENDMDL
MODEL 9
REMARK VINA RESULT:      -5.3      1.751      4.146
REMARK  Name = 
REMARK  0 active torsions:
REMARK  status: ('A' for Active; 'I' for Inactive)
REMARK                            x       y       z     vdW  Elec       q    Type
REMARK                         _______ _______ _______ _____ _____    ______ ____
ROOT
ATOM      1  C   UNL     1       4.873   6.581  16.405  0.00  0.00    +0.000 A 
ATOM      2  C   UNL     1       5.762   5.550  16.129  0.00  0.00    +0.000 A 
ATOM      3  C   UNL     1       5.875   4.474  17.010  0.00  0.00    +0.000 A 
ATOM      4  C   UNL     1       5.101   4.405  18.180  0.00  0.00    +0.000 A 
ATOM      5  C   UNL     1       4.193   5.445  18.456  0.00  0.00    +0.000 A 
ATOM      6  C   UNL     1       4.092   6.528  17.560  0.00  0.00    +0.000 A 
ATOM      7  C   UNL     1       3.387   5.473  19.734  0.00  0.00    +0.000 C 
ATOM      8  N   UNL     1       2.420   4.379  19.847  0.00  0.00    +0.000 NA
ATOM      9  C   UNL     1       3.079   3.136  20.270  0.00  0.00    +0.000 C 
ATOM     10  C   UNL     1       4.038   2.515  19.240  0.00  0.00    +0.000 C 
ATOM     11  N   UNL     1       5.260   3.305  19.044  0.00  0.00    +0.000 N 
ATOM     12  H   UNL     1       1.990   4.243  18.934  0.00  0.00    +0.000 HD
ATOM     13  H   UNL     1       6.026   2.714  18.732  0.00  0.00    +0.000 HD
ENDROOT
TORSDOF 0
ENDMDL
