MODEL 1
REMARK VINA RESULT:      -7.6      0.000      0.000
REMARK  Name = 
REMARK  5 active torsions:
REMARK  status: ('A' for Active; 'I' for Inactive)
REMARK    1  A    between atoms: C_1  and  C_2
REMARK    2  A    between atoms: C_4  and  C_5
REMARK    3  A    between atoms: C_6  and  C_7
REMARK    4  A    between atoms: C_7  and  N_8
REMARK    5  A    between atoms: C_15  and  C_16
REMARK                            x       y       z     vdW  Elec       q    Type
REMARK                         _______ _______ _______ _____ _____    ______ ____
ROOT
ATOM      1  N   UNL     1      -0.551  11.146  20.095  0.00  0.00    +0.000 N 
ATOM      2  C   UNL     1      -1.277  11.017  18.866  0.00  0.00    +0.000 C 
ATOM      3  C   UNL     1      -2.493  11.851  18.786  0.00  0.00    +0.000 C 
ATOM      4  C   UNL     1      -3.321  12.285  19.943  0.00  0.00    +0.000 A 
ATOM      5  C   UNL     1      -4.666  12.545  19.573  0.00  0.00    +0.000 A 
ATOM      6 CL   UNL     1      -5.232  12.220  17.963  0.00  0.00    +0.000 Cl
ATOM      7  C   UNL     1      -5.589  12.893  20.504  0.00  0.00    +0.000 A 
ATOM      8  C   UNL     1      -5.199  13.026  21.840  0.00  0.00    +0.000 A 
ATOM      9  C   UNL     1      -3.771  12.787  22.200  0.00  0.00    +0.000 A 
ATOM     10 CL   UNL     1      -3.337  13.146  23.841  0.00  0.00    +0.000 Cl
ATOM     11  C   UNL     1      -2.784  12.342  21.234  0.00  0.00    +0.000 A 
ATOM     12  C   UNL     1      -1.152  11.859  21.303  0.00  0.00    +0.000 C 
ATOM     13  O   UNL     1      -0.493  12.083  22.334  0.00  0.00    +0.000 OA
ENDROOT
BRANCH   8  14
ATOM     14  C   UNL     1      -6.396  13.326  22.676  0.00  0.00    +0.000 A 
ATOM     15  C   UNL     1      -7.080  12.564  23.667  0.00  0.00    +0.000 A 
ATOM     16  N   UNL     1      -7.825  13.305  24.496  0.00  0.00    +0.000 NA
ATOM     17  N   UNL     1      -7.579  14.567  24.116  0.00  0.00    +0.000 N 
ATOM     18  C   UNL     1      -6.694  14.631  23.069  0.00  0.00    +0.000 A 
ATOM     19  H   UNL     1      -7.975  15.329  24.656  0.00  0.00    +0.000 HD
ENDBRANCH   8  14
BRANCH   1  20
ATOM     20  C   UNL     1       0.910  10.878  19.777  0.00  0.00    +0.000 C 
BRANCH  20  26
ATOM     21  C   UNL     1       3.253   5.397  19.084  0.00  0.00    +0.000 C 
ATOM     22  C   UNL     1       2.541   6.712  19.296  0.00  0.00    +0.000 A 
ATOM     23  C   UNL     1       1.921   7.032  20.460  0.00  0.00    +0.000 A 
ATOM     24  C   UNL     1       1.314   8.370  20.656  0.00  0.00    +0.000 A 
ATOM     25  C   UNL     1       0.668   8.545  22.003  0.00  0.00    +0.000 C 
ATOM     26  C   UNL     1       1.380   9.350  19.721  0.00  0.00    +0.000 A 
ATOM     27  C   UNL     1       1.960   8.886  18.381  0.00  0.00    +0.000 A 
ATOM     28  O   UNL     1       1.935   9.597  17.381  0.00  0.00    +0.000 OA
ATOM     29  N   UNL     1       2.500   7.615  18.295  0.00  0.00    +0.000 N 
ATOM     30  H   UNL     1       2.888   7.358  17.396  0.00  0.00    +0.000 HD
ENDBRANCH  20  26
ENDBRANCH   1  20
TORSDOF 3
ENDMDL
MODEL 2
REMARK VINA RESULT:      -7.3      4.015     10.329
REMARK  Name = 
REMARK  5 active torsions:
REMARK  status: ('A' for Active; 'I' for Inactive)
REMARK    1  A    between atoms: C_1  and  C_2
REMARK    2  A    between atoms: C_4  and  C_5
REMARK    3  A    between atoms: C_6  and  C_7
REMARK    4  A    between atoms: C_7  and  N_8
REMARK    5  A    between atoms: C_15  and  C_16
REMARK                            x       y       z     vdW  Elec       q    Type
REMARK                         _______ _______ _______ _____ _____    ______ ____
ROOT
ATOM      1  N   UNL     1       0.742   9.665  19.199  0.00  0.00    +0.000 N 
ATOM      2  C   UNL     1       0.357   8.787  20.264  0.00  0.00    +0.000 C 
ATOM      3  C   UNL     1       1.353   7.744  20.585  0.00  0.00    +0.000 C 
ATOM      4  C   UNL     1       2.324   7.152  19.626  0.00  0.00    +0.000 A 
ATOM      5  C   UNL     1       2.721   5.843  20.003  0.00  0.00    +0.000 A 
ATOM      6 CL   UNL     1       1.993   5.041  21.360  0.00  0.00    +0.000 Cl
ATOM      7  C   UNL     1       3.557   5.117  19.219  0.00  0.00    +0.000 A 
ATOM      8  C   UNL     1       4.055   5.680  18.041  0.00  0.00    +0.000 A 
ATOM      9  C   UNL     1       3.655   7.073  17.684  0.00  0.00    +0.000 A 
ATOM     10 CL   UNL     1       4.454   7.757  16.304  0.00  0.00    +0.000 Cl
ATOM     11  C   UNL     1       2.704   7.840  18.467  0.00  0.00    +0.000 A 
ATOM     12  C   UNL     1       1.937   9.352  18.303  0.00  0.00    +0.000 C 
ATOM     13  O   UNL     1       2.356  10.158  17.453  0.00  0.00    +0.000 OA
ENDROOT
BRANCH   8  14
ATOM     14  C   UNL     1       4.871   4.667  17.315  0.00  0.00    +0.000 A 
ATOM     15  C   UNL     1       4.729   4.072  16.028  0.00  0.00    +0.000 A 
ATOM     16  N   UNL     1       5.863   3.546  15.550  0.00  0.00    +0.000 NA
ATOM     17  N   UNL     1       6.783   3.857  16.474  0.00  0.00    +0.000 N 
ATOM     18  C   UNL     1       6.249   4.568  17.519  0.00  0.00    +0.000 A 
ATOM     19  H   UNL     1       7.755   3.630  16.296  0.00  0.00    +0.000 HD
ENDBRANCH   8  14
BRANCH   1  20
ATOM     20  C   UNL     1       0.076  11.003  19.464  0.00  0.00    +0.000 C 
BRANCH  20  26
ATOM     21  C   UNL     1      -5.595  12.357  18.042  0.00  0.00    +0.000 C 
ATOM     22  C   UNL     1      -4.207  11.878  18.395  0.00  0.00    +0.000 A 
ATOM     23  C   UNL     1      -3.519  10.992  17.631  0.00  0.00    +0.000 A 
ATOM     24  C   UNL     1      -2.123  10.621  17.967  0.00  0.00    +0.000 A 
ATOM     25  C   UNL     1      -1.522   9.624  17.014  0.00  0.00    +0.000 C 
ATOM     26  C   UNL     1      -1.449  11.166  19.008  0.00  0.00    +0.000 A 
ATOM     27  C   UNL     1      -2.319  12.044  19.914  0.00  0.00    +0.000 A 
ATOM     28  O   UNL     1      -1.910  12.475  20.989  0.00  0.00    +0.000 OA
ATOM     29  N   UNL     1      -3.613  12.331  19.518  0.00  0.00    +0.000 N 
ATOM     30  H   UNL     1      -4.144  12.929  20.138  0.00  0.00    +0.000 HD
ENDBRANCH  20  26
ENDBRANCH   1  20
TORSDOF 3
ENDMDL
MODEL 3
REMARK VINA RESULT:      -7.3      5.687      9.255
REMARK  Name = 
REMARK  5 active torsions:
REMARK  status: ('A' for Active; 'I' for Inactive)
REMARK    1  A    between atoms: C_1  and  C_2
REMARK    2  A    between atoms: C_4  and  C_5
REMARK    3  A    between atoms: C_6  and  C_7
REMARK    4  A    between atoms: C_7  and  N_8
REMARK    5  A    between atoms: C_15  and  C_16
REMARK                            x       y       z     vdW  Elec       q    Type
REMARK                         _______ _______ _______ _____ _____    ______ ____
ROOT
ATOM      1  N   UNL     1       4.719   4.063  17.255  0.00  0.00    +0.000 N 
ATOM      2  C   UNL     1       4.311   3.155  18.285  0.00  0.00    +0.000 C 
ATOM      3  C   UNL     1       3.106   3.576  19.027  0.00  0.00    +0.000 C 
ATOM      4  C   UNL     1       2.673   4.982  19.246  0.00  0.00    +0.000 A 
ATOM      5  C   UNL     1       1.881   5.125  20.415  0.00  0.00    +0.000 A 
ATOM      6 CL   UNL     1       1.624   3.787  21.493  0.00  0.00    +0.000 Cl
ATOM      7  C   UNL     1       1.443   6.344  20.814  0.00  0.00    +0.000 A 
ATOM      8  C   UNL     1       1.752   7.470  20.045  0.00  0.00    +0.000 A 
ATOM      9  C   UNL     1       2.552   7.291  18.798  0.00  0.00    +0.000 A 
ATOM     10 CL   UNL     1       2.738   8.707  17.812  0.00  0.00    +0.000 Cl
ATOM     11  C   UNL     1       3.093   6.008  18.392  0.00  0.00    +0.000 A 
ATOM     12  C   UNL     1       4.123   5.464  17.148  0.00  0.00    +0.000 C 
ATOM     13  O   UNL     1       4.378   6.221  16.194  0.00  0.00    +0.000 OA
ENDROOT
BRANCH   8  14
ATOM     14  C   UNL     1       1.241   8.691  20.728  0.00  0.00    +0.000 A 
ATOM     15  C   UNL     1       0.303   9.687  20.326  0.00  0.00    +0.000 A 
ATOM     16  N   UNL     1      -0.223  10.374  21.348  0.00  0.00    +0.000 NA
ATOM     17  N   UNL     1       0.295   9.789  22.437  0.00  0.00    +0.000 N 
ATOM     18  C   UNL     1       1.133   8.749  22.119  0.00  0.00    +0.000 A 
ATOM     19  H   UNL     1      -0.021  10.087  23.353  0.00  0.00    +0.000 HD
ENDBRANCH   8  14
BRANCH   1  20
ATOM     20  C   UNL     1       5.408   3.238  16.183  0.00  0.00    +0.000 C 
BRANCH  20  26
ATOM     21  C   UNL     1       8.936   6.134  12.286  0.00  0.00    +0.000 C 
ATOM     22  C   UNL     1       7.936   5.473  13.205  0.00  0.00    +0.000 A 
ATOM     23  C   UNL     1       6.868   4.772  12.748  0.00  0.00    +0.000 A 
ATOM     24  C   UNL     1       5.965   4.063  13.686  0.00  0.00    +0.000 A 
ATOM     25  C   UNL     1       4.834   3.345  13.002  0.00  0.00    +0.000 C 
ATOM     26  C   UNL     1       6.174   4.033  15.025  0.00  0.00    +0.000 A 
ATOM     27  C   UNL     1       7.304   4.956  15.493  0.00  0.00    +0.000 A 
ATOM     28  O   UNL     1       7.513   5.176  16.683  0.00  0.00    +0.000 OA
ATOM     29  N   UNL     1       8.091   5.579  14.541  0.00  0.00    +0.000 N 
ATOM     30  H   UNL     1       8.837   6.165  14.896  0.00  0.00    +0.000 HD
ENDBRANCH  20  26
ENDBRANCH   1  20
TORSDOF 3
ENDMDL
MODEL 4
REMARK VINA RESULT:      -7.2      3.956      9.561
REMARK  Name = 
REMARK  5 active torsions:
REMARK  status: ('A' for Active; 'I' for Inactive)
REMARK    1  A    between atoms: C_1  and  C_2
REMARK    2  A    between atoms: C_4  and  C_5
REMARK    3  A    between atoms: C_6  and  C_7
REMARK    4  A    between atoms: C_7  and  N_8
REMARK    5  A    between atoms: C_15  and  C_16
REMARK                            x       y       z     vdW  Elec       q    Type
REMARK                         _______ _______ _______ _____ _____    ______ ____
ROOT
ATOM      1  N   UNL     1       1.274  10.434  19.171  0.00  0.00    +0.000 N 
ATOM      2  C   UNL     1       2.117  10.543  18.017  0.00  0.00    +0.000 C 
ATOM      3  C   UNL     1       2.494   9.249  17.413  0.00  0.00    +0.000 C 
ATOM      4  C   UNL     1       2.619   7.958  18.142  0.00  0.00    +0.000 A 
ATOM      5  C   UNL     1       3.515   7.064  17.502  0.00  0.00    +0.000 A 
ATOM      6 CL   UNL     1       4.434   7.558  16.113  0.00  0.00    +0.000 Cl
ATOM      7  C   UNL     1       3.806   5.858  18.050  0.00  0.00    +0.000 A 
ATOM      8  C   UNL     1       3.191   5.483  19.248  0.00  0.00    +0.000 A 
ATOM      9  C   UNL     1       2.222   6.422  19.884  0.00  0.00    +0.000 A 
ATOM     10 CL   UNL     1       1.372   5.808  21.267  0.00  0.00    +0.000 Cl
ATOM     11  C   UNL     1       1.952   7.746  19.355  0.00  0.00    +0.000 A 
ATOM     12  C   UNL     1       1.042   9.094  19.863  0.00  0.00    +0.000 C 
ATOM     13  O   UNL     1       0.223   8.961  20.790  0.00  0.00    +0.000 OA
ENDROOT
BRANCH   8  14
ATOM     14  C   UNL     1       3.734   4.168  19.691  0.00  0.00    +0.000 A 
ATOM     15  C   UNL     1       3.095   2.951  20.067  0.00  0.00    +0.000 A 
ATOM     16  N   UNL     1       3.891   1.878  19.983  0.00  0.00    +0.000 NA
ATOM     17  N   UNL     1       5.035   2.358  19.477  0.00  0.00    +0.000 N 
ATOM     18  C   UNL     1       4.971   3.708  19.239  0.00  0.00    +0.000 A 
ATOM     19  H   UNL     1       5.780   1.710  19.244  0.00  0.00    +0.000 HD
ENDBRANCH   8  14
BRANCH   1  20
ATOM     20  C   UNL     1       0.422  11.689  19.218  0.00  0.00    +0.000 C 
BRANCH  20  26
ATOM     21  C   UNL     1      -5.506  11.848  18.293  0.00  0.00    +0.000 C 
ATOM     22  C   UNL     1      -4.028  11.667  18.547  0.00  0.00    +0.000 A 
ATOM     23  C   UNL     1      -3.265  10.787  17.849  0.00  0.00    +0.000 A 
ATOM     24  C   UNL     1      -1.801  10.709  18.068  0.00  0.00    +0.000 A 
ATOM     25  C   UNL     1      -1.121   9.675  17.212  0.00  0.00    +0.000 C 
ATOM     26  C   UNL     1      -1.143  11.525  18.927  0.00  0.00    +0.000 A 
ATOM     27  C   UNL     1      -2.069  12.391  19.787  0.00  0.00    +0.000 A 
ATOM     28  O   UNL     1      -1.647  13.058  20.727  0.00  0.00    +0.000 OA
ATOM     29  N   UNL     1      -3.424  12.394  19.509  0.00  0.00    +0.000 N 
ATOM     30  H   UNL     1      -3.995  12.995  20.090  0.00  0.00    +0.000 HD
ENDBRANCH  20  26
ENDBRANCH   1  20
TORSDOF 3
ENDMDL
MODEL 5
REMARK VINA RESULT:      -7.1      4.768      6.946
REMARK  Name = 
REMARK  5 active torsions:
REMARK  status: ('A' for Active; 'I' for Inactive)
REMARK    1  A    between atoms: C_1  and  C_2
REMARK    2  A    between atoms: C_4  and  C_5
REMARK    3  A    between atoms: C_6  and  C_7
REMARK    4  A    between atoms: C_7  and  N_8
REMARK    5  A    between atoms: C_15  and  C_16
REMARK                            x       y       z     vdW  Elec       q    Type
REMARK                         _______ _______ _______ _____ _____    ______ ____
ROOT
ATOM      1  N   UNL     1       2.917   6.104  19.722  0.00  0.00    +0.000 N 
ATOM      2  C   UNL     1       2.179   5.971  20.943  0.00  0.00    +0.000 C 
ATOM      3  C   UNL     1       1.049   6.912  21.079  0.00  0.00    +0.000 C 
ATOM      4  C   UNL     1       0.970   8.264  20.462  0.00  0.00    +0.000 A 
ATOM      5  C   UNL     1       0.120   9.137  21.187  0.00  0.00    +0.000 A 
ATOM      6 CL   UNL     1      -0.588   8.650  22.697  0.00  0.00    +0.000 Cl
ATOM      7  C   UNL     1      -0.031  10.432  20.812  0.00  0.00    +0.000 A 
ATOM      8  C   UNL     1       0.639  10.900  19.678  0.00  0.00    +0.000 A 
ATOM      9  C   UNL     1       1.496   9.953  18.907  0.00  0.00    +0.000 A 
ATOM     10 CL   UNL     1       2.146  10.565  17.419  0.00  0.00    +0.000 Cl
ATOM     11  C   UNL     1       1.731   8.586  19.331  0.00  0.00    +0.000 A 
ATOM     12  C   UNL     1       2.716   7.302  18.798  0.00  0.00    +0.000 C 
ATOM     13  O   UNL     1       3.259   7.374  17.680  0.00  0.00    +0.000 OA
ENDROOT
BRANCH   8  14
ATOM     14  C   UNL     1       0.387  12.360  19.524  0.00  0.00    +0.000 A 
ATOM     15  C   UNL     1       1.269  13.479  19.473  0.00  0.00    +0.000 A 
ATOM     16  N   UNL     1       0.731  14.563  18.900  0.00  0.00    +0.000 NA
ATOM     17  N   UNL     1      -0.479  14.151  18.494  0.00  0.00    +0.000 N 
ATOM     18  C   UNL     1      -0.707  12.833  18.798  0.00  0.00    +0.000 A 
ATOM     19  H   UNL     1      -1.057  14.784  17.951  0.00  0.00    +0.000 HD
ENDBRANCH   8  14
BRANCH   1  20
ATOM     20  C   UNL     1       3.483   4.734  19.394  0.00  0.00    +0.000 C 
BRANCH  20  26
ATOM     21  C   UNL     1       6.929   4.544  14.485  0.00  0.00    +0.000 C 
ATOM     22  C   UNL     1       6.165   4.518  15.788  0.00  0.00    +0.000 A 
ATOM     23  C   UNL     1       6.689   4.966  16.956  0.00  0.00    +0.000 A 
ATOM     24  C   UNL     1       5.871   5.007  18.191  0.00  0.00    +0.000 A 
ATOM     25  C   UNL     1       6.618   5.527  19.389  0.00  0.00    +0.000 C 
ATOM     26  C   UNL     1       4.564   4.649  18.218  0.00  0.00    +0.000 A 
ATOM     27  C   UNL     1       4.070   4.018  16.911  0.00  0.00    +0.000 A 
ATOM     28  O   UNL     1       2.967   3.488  16.822  0.00  0.00    +0.000 OA
ATOM     29  N   UNL     1       4.910   4.023  15.812  0.00  0.00    +0.000 N 
ATOM     30  H   UNL     1       4.536   3.612  14.966  0.00  0.00    +0.000 HD
ENDBRANCH  20  26
ENDBRANCH   1  20
TORSDOF 3
ENDMDL
MODEL 6
REMARK VINA RESULT:      -7.0      1.617      2.283
REMARK  Name = 
REMARK  5 active torsions:
REMARK  status: ('A' for Active; 'I' for Inactive)
REMARK    1  A    between atoms: C_1  and  C_2
REMARK    2  A    between atoms: C_4  and  C_5
REMARK    3  A    between atoms: C_6  and  C_7
REMARK    4  A    between atoms: C_7  and  N_8
REMARK    5  A    between atoms: C_15  and  C_16
REMARK                            x       y       z     vdW  Elec       q    Type
REMARK                         _______ _______ _______ _____ _____    ______ ____
ROOT
ATOM      1  N   UNL     1       0.428  10.322  19.632  0.00  0.00    +0.000 N 
ATOM      2  C   UNL     1      -0.526  10.092  18.589  0.00  0.00    +0.000 C 
ATOM      3  C   UNL     1      -1.617  11.086  18.530  0.00  0.00    +0.000 C 
ATOM      4  C   UNL     1      -2.151  11.854  19.687  0.00  0.00    +0.000 A 
ATOM      5  C   UNL     1      -3.496  12.259  19.489  0.00  0.00    +0.000 A 
ATOM      6 CL   UNL     1      -4.391  11.744  18.093  0.00  0.00    +0.000 Cl
ATOM      7  C   UNL     1      -4.174  12.919  20.461  0.00  0.00    +0.000 A 
ATOM      8  C   UNL     1      -3.526  13.227  21.661  0.00  0.00    +0.000 A 
ATOM      9  C   UNL     1      -2.099  12.827  21.832  0.00  0.00    +0.000 A 
ATOM     10 CL   UNL     1      -1.321  13.403  23.272  0.00  0.00    +0.000 Cl
ATOM     11  C   UNL     1      -1.377  12.056  20.837  0.00  0.00    +0.000 A 
ATOM     12  C   UNL     1       0.162  11.332  20.745  0.00  0.00    +0.000 C 
ATOM     13  O   UNL     1       1.026  11.629  21.589  0.00  0.00    +0.000 OA
ENDROOT
BRANCH   8  14
ATOM     14  C   UNL     1      -4.495  13.867  22.595  0.00  0.00    +0.000 A 
ATOM     15  C   UNL     1      -5.592  14.750  22.372  0.00  0.00    +0.000 A 
ATOM     16  N   UNL     1      -6.481  14.766  23.373  0.00  0.00    +0.000 NA
ATOM     17  N   UNL     1      -6.028  13.838  24.228  0.00  0.00    +0.000 N 
ATOM     18  C   UNL     1      -4.877  13.240  23.782  0.00  0.00    +0.000 A 
ATOM     19  H   UNL     1      -6.586  13.606  25.042  0.00  0.00    +0.000 HD
ENDBRANCH   8  14
BRANCH   1  20
ATOM     20  C   UNL     1       1.755   9.764  19.150  0.00  0.00    +0.000 C 
BRANCH  20  26
ATOM     21  C   UNL     1       2.065   3.901  20.392  0.00  0.00    +0.000 C 
ATOM     22  C   UNL     1       2.128   5.371  20.052  0.00  0.00    +0.000 A 
ATOM     23  C   UNL     1       2.620   5.833  18.874  0.00  0.00    +0.000 A 
ATOM     24  C   UNL     1       2.577   7.278  18.546  0.00  0.00    +0.000 A 
ATOM     25  C   UNL     1       3.171   7.605  17.203  0.00  0.00    +0.000 C 
ATOM     26  C   UNL     1       2.015   8.200  19.364  0.00  0.00    +0.000 A 
ATOM     27  C   UNL     1       1.610   7.645  20.734  0.00  0.00    +0.000 A 
ATOM     28  O   UNL     1       1.244   8.376  21.649  0.00  0.00    +0.000 OA
ATOM     29  N   UNL     1       1.690   6.280  20.947  0.00  0.00    +0.000 N 
ATOM     30  H   UNL     1       1.395   5.956  21.860  0.00  0.00    +0.000 HD
ENDBRANCH  20  26
ENDBRANCH   1  20
TORSDOF 3
ENDMDL
MODEL 7
REMARK VINA RESULT:      -7.0      1.177      1.454
REMARK  Name = 
REMARK  5 active torsions:
REMARK  status: ('A' for Active; 'I' for Inactive)
REMARK    1  A    between atoms: C_1  and  C_2
REMARK    2  A    between atoms: C_4  and  C_5
REMARK    3  A    between atoms: C_6  and  C_7
REMARK    4  A    between atoms: C_7  and  N_8
REMARK    5  A    between atoms: C_15  and  C_16
REMARK                            x       y       z     vdW  Elec       q    Type
REMARK                         _______ _______ _______ _____ _____    ______ ____
ROOT
ATOM      1  N   UNL     1       0.160  10.451  19.376  0.00  0.00    +0.000 N 
ATOM      2  C   UNL     1      -0.838  10.276  18.362  0.00  0.00    +0.000 C 
ATOM      3  C   UNL     1      -1.947  11.250  18.423  0.00  0.00    +0.000 C 
ATOM      4  C   UNL     1      -2.438  11.924  19.654  0.00  0.00    +0.000 A 
ATOM      5  C   UNL     1      -3.797  12.315  19.546  0.00  0.00    +0.000 A 
ATOM      6 CL   UNL     1      -4.748  11.881  18.159  0.00  0.00    +0.000 Cl
ATOM      7  C   UNL     1      -4.441  12.892  20.592  0.00  0.00    +0.000 A 
ATOM      8  C   UNL     1      -3.744  13.129  21.780  0.00  0.00    +0.000 A 
ATOM      9  C   UNL     1      -2.304  12.746  21.858  0.00  0.00    +0.000 A 
ATOM     10 CL   UNL     1      -1.470  13.236  23.299  0.00  0.00    +0.000 Cl
ATOM     11  C   UNL     1      -1.616  12.061  20.779  0.00  0.00    +0.000 A 
ATOM     12  C   UNL     1      -0.071  11.376  20.567  0.00  0.00    +0.000 C 
ATOM     13  O   UNL     1       0.827  11.631  21.391  0.00  0.00    +0.000 OA
ENDROOT
BRANCH   8  14
ATOM     14  C   UNL     1      -4.679  13.683  22.799  0.00  0.00    +0.000 A 
ATOM     15  C   UNL     1      -5.752  14.616  22.701  0.00  0.00    +0.000 A 
ATOM     16  N   UNL     1      -6.625  14.541  23.713  0.00  0.00    +0.000 NA
ATOM     17  N   UNL     1      -6.187  13.507  24.446  0.00  0.00    +0.000 N 
ATOM     18  C   UNL     1      -5.061  12.933  23.913  0.00  0.00    +0.000 A 
ATOM     19  H   UNL     1      -6.739  13.198  25.238  0.00  0.00    +0.000 HD
ENDBRANCH   8  14
BRANCH   1  20
ATOM     20  C   UNL     1       1.473   9.955  18.796  0.00  0.00    +0.000 C 
BRANCH  20  26
ATOM     21  C   UNL     1       3.717   4.448  19.603  0.00  0.00    +0.000 C 
ATOM     22  C   UNL     1       3.023   5.778  19.429  0.00  0.00    +0.000 A 
ATOM     23  C   UNL     1       2.233   6.326  20.388  0.00  0.00    +0.000 A 
ATOM     24  C   UNL     1       1.647   7.675  20.210  0.00  0.00    +0.000 A 
ATOM     25  C   UNL     1       0.796   8.117  21.370  0.00  0.00    +0.000 C 
ATOM     26  C   UNL     1       1.895   8.447  19.124  0.00  0.00    +0.000 A 
ATOM     27  C   UNL     1       2.670   7.723  18.018  0.00  0.00    +0.000 A 
ATOM     28  O   UNL     1       2.831   8.219  16.906  0.00  0.00    +0.000 OA
ATOM     29  N   UNL     1       3.175   6.461  18.276  0.00  0.00    +0.000 N 
ATOM     30  H   UNL     1       3.696   6.029  17.523  0.00  0.00    +0.000 HD
ENDBRANCH  20  26
ENDBRANCH   1  20
TORSDOF 3
ENDMDL
MODEL 8
REMARK VINA RESULT:      -7.0      4.293      5.674
REMARK  Name = 
REMARK  5 active torsions:
REMARK  status: ('A' for Active; 'I' for Inactive)
REMARK    1  A    between atoms: C_1  and  C_2
REMARK    2  A    between atoms: C_4  and  C_5
REMARK    3  A    between atoms: C_6  and  C_7
REMARK    4  A    between atoms: C_7  and  N_8
REMARK    5  A    between atoms: C_15  and  C_16
REMARK                            x       y       z     vdW  Elec       q    Type
REMARK                         _______ _______ _______ _____ _____    ______ ____
ROOT
ATOM      1  N   UNL     1       1.939   8.031  19.057  0.00  0.00    +0.000 N 
ATOM      2  C   UNL     1       1.508   7.589  20.350  0.00  0.00    +0.000 C 
ATOM      3  C   UNL     1       0.556   8.499  21.019  0.00  0.00    +0.000 C 
ATOM      4  C   UNL     1       0.482   9.971  20.820  0.00  0.00    +0.000 A 
ATOM      5  C   UNL     1      -0.066  10.638  21.946  0.00  0.00    +0.000 A 
ATOM      6 CL   UNL     1      -0.439   9.775  23.406  0.00  0.00    +0.000 Cl
ATOM      7  C   UNL     1      -0.159  11.991  21.976  0.00  0.00    +0.000 A 
ATOM      8  C   UNL     1       0.266  12.733  20.870  0.00  0.00    +0.000 A 
ATOM      9  C   UNL     1       0.802  12.008  19.681  0.00  0.00    +0.000 A 
ATOM     10 CL   UNL     1       1.138  12.988  18.289  0.00  0.00    +0.000 Cl
ATOM     11  C   UNL     1       0.979  10.568  19.656  0.00  0.00    +0.000 A 
ATOM     12  C   UNL     1       1.657   9.448  18.566  0.00  0.00    +0.000 C 
ATOM     13  O   UNL     1       1.919   9.810  17.404  0.00  0.00    +0.000 OA
ENDROOT
BRANCH   8  14
ATOM     14  C   UNL     1       0.149  14.186  21.176  0.00  0.00    +0.000 A 
ATOM     15  C   UNL     1       1.126  15.177  21.485  0.00  0.00    +0.000 A 
ATOM     16  N   UNL     1       0.708  16.430  21.272  0.00  0.00    +0.000 NA
ATOM     17  N   UNL     1      -0.515  16.282  20.744  0.00  0.00    +0.000 N 
ATOM     18  C   UNL     1      -0.870  14.962  20.620  0.00  0.00    +0.000 A 
ATOM     19  H   UNL     1      -1.014  17.103  20.419  0.00  0.00    +0.000 HD
ENDBRANCH   8  14
BRANCH   1  20
ATOM     20  C   UNL     1       2.254   6.787  18.246  0.00  0.00    +0.000 C 
BRANCH  20  26
ATOM     21  C   UNL     1       8.016   5.151  18.611  0.00  0.00    +0.000 C 
ATOM     22  C   UNL     1       6.534   5.423  18.507  0.00  0.00    +0.000 A 
ATOM     23  C   UNL     1       5.621   4.844  19.327  0.00  0.00    +0.000 A 
ATOM     24  C   UNL     1       4.187   5.211  19.248  0.00  0.00    +0.000 A 
ATOM     25  C   UNL     1       3.322   4.465  20.227  0.00  0.00    +0.000 C 
ATOM     26  C   UNL     1       3.718   6.160  18.402  0.00  0.00    +0.000 A 
ATOM     27  C   UNL     1       4.765   6.672  17.406  0.00  0.00    +0.000 A 
ATOM     28  O   UNL     1       4.466   7.404  16.468  0.00  0.00    +0.000 OA
ATOM     29  N   UNL     1       6.079   6.268  17.559  0.00  0.00    +0.000 N 
ATOM     30  H   UNL     1       6.739   6.645  16.890  0.00  0.00    +0.000 HD
ENDBRANCH  20  26
ENDBRANCH   1  20
TORSDOF 3
ENDMDL
MODEL 9
REMARK VINA RESULT:      -7.0      3.887      5.576
REMARK  Name = 
REMARK  5 active torsions:
REMARK  status: ('A' for Active; 'I' for Inactive)
REMARK    1  A    between atoms: C_1  and  C_2
REMARK    2  A    between atoms: C_4  and  C_5
REMARK    3  A    between atoms: C_6  and  C_7
REMARK    4  A    between atoms: C_7  and  N_8
REMARK    5  A    between atoms: C_15  and  C_16
REMARK                            x       y       z     vdW  Elec       q    Type
REMARK                         _______ _______ _______ _____ _____    ______ ____
ROOT
ATOM      1  N   UNL     1       2.603   7.922  18.620  0.00  0.00    +0.000 N 
ATOM      2  C   UNL     1       2.234   7.245  19.828  0.00  0.00    +0.000 C 
ATOM      3  C   UNL     1       1.094   7.852  20.545  0.00  0.00    +0.000 C 
ATOM      4  C   UNL     1       0.723   9.292  20.514  0.00  0.00    +0.000 A 
ATOM      5  C   UNL     1       0.015   9.689  21.678  0.00  0.00    +0.000 A 
ATOM      6 CL   UNL     1      -0.214   8.592  23.006  0.00  0.00    +0.000 Cl
ATOM      7  C   UNL     1      -0.357  10.980  21.860  0.00  0.00    +0.000 A 
ATOM      8  C   UNL     1      -0.062  11.924  20.872  0.00  0.00    +0.000 A 
ATOM      9  C   UNL     1       0.647  11.477  19.638  0.00  0.00    +0.000 A 
ATOM     10 CL   UNL     1       0.814  12.671  18.389  0.00  0.00    +0.000 Cl
ATOM     11  C   UNL     1       1.119  10.118  19.455  0.00  0.00    +0.000 A 
ATOM     12  C   UNL     1       2.047   9.303  18.282  0.00  0.00    +0.000 C 
ATOM     13  O   UNL     1       2.262   9.852  17.186  0.00  0.00    +0.000 OA
ENDROOT
BRANCH   8  14
ATOM     14  C   UNL     1      -0.487  13.275  21.337  0.00  0.00    +0.000 A 
ATOM     15  C   UNL     1      -1.263  14.296  20.715  0.00  0.00    +0.000 A 
ATOM     16  N   UNL     1      -1.796  15.169  21.580  0.00  0.00    +0.000 NA
ATOM     17  N   UNL     1      -1.449  14.690  22.783  0.00  0.00    +0.000 N 
ATOM     18  C   UNL     1      -0.713  13.536  22.689  0.00  0.00    +0.000 A 
ATOM     19  H   UNL     1      -1.809  15.143  23.615  0.00  0.00    +0.000 HD
ENDBRANCH   8  14
BRANCH   1  20
ATOM     20  C   UNL     1       3.192   6.879  17.688  0.00  0.00    +0.000 C 
BRANCH  20  26
ATOM     21  C   UNL     1       4.710   1.797  20.497  0.00  0.00    +0.000 C 
ATOM     22  C   UNL     1       4.294   2.995  19.676  0.00  0.00    +0.000 A 
ATOM     23  C   UNL     1       3.072   3.099  19.094  0.00  0.00    +0.000 A 
ATOM     24  C   UNL     1       2.674   4.333  18.376  0.00  0.00    +0.000 A 
ATOM     25  C   UNL     1       1.290   4.266  17.791  0.00  0.00    +0.000 C 
ATOM     26  C   UNL     1       3.472   5.426  18.297  0.00  0.00    +0.000 A 
ATOM     27  C   UNL     1       4.885   5.199  18.843  0.00  0.00    +0.000 A 
ATOM     28  O   UNL     1       5.779   6.027  18.695  0.00  0.00    +0.000 OA
ATOM     29  N   UNL     1       5.163   4.011  19.495  0.00  0.00    +0.000 N 
ATOM     30  H   UNL     1       6.104   3.912  19.856  0.00  0.00    +0.000 HD
ENDBRANCH  20  26
ENDBRANCH   1  20
TORSDOF 3
ENDMDL
