MODEL 1
REMARK VINA RESULT:      -7.5      0.000      0.000
REMARK  Name = 
REMARK  8 active torsions:
REMARK  status: ('A' for Active; 'I' for Inactive)
REMARK    1  A    between atoms: C_2  and  O_3
REMARK    2  A    between atoms: C_2  and  C_4
REMARK    3  A    between atoms: C_4  and  N_5
REMARK    4  A    between atoms: C_6  and  C_8
REMARK    5  A    between atoms: C_9  and  O_10
REMARK    6  A    between atoms: C_12  and  C_13
REMARK    7  A    between atoms: C_13  and  C_14
REMARK    8  A    between atoms: C_14  and  C_15
REMARK                            x       y       z     vdW  Elec       q    Type
REMARK                         _______ _______ _______ _____ _____    ______ ____
ROOT
ATOM      1  C   UNL     1      -0.680  11.024  21.804  0.00  0.00    +0.000 A 
ATOM      2  C   UNL     1       0.112   9.997  22.407  0.00  0.00    +0.000 A 
ATOM      3  C   UNL     1       0.839   9.101  21.604  0.00  0.00    +0.000 A 
ATOM      4  C   UNL     1       0.790   9.181  20.198  0.00  0.00    +0.000 A 
ATOM      5  N   UNL     1      -0.006  10.142  19.663  0.00  0.00    +0.000 N 
ATOM      6  N   UNL     1      -0.230  10.369  18.382  0.00  0.00    +0.000 NA
ATOM      7  C   UNL     1      -1.106  11.396  18.346  0.00  0.00    +0.000 A 
ATOM      8  N   UNL     1      -1.428  11.827  19.585  0.00  0.00    +0.000 NA
ATOM      9  C   UNL     1      -0.711  11.022  20.388  0.00  0.00    +0.000 A 
ENDROOT
BRANCH   1  11
ATOM     10  N   UNL     1      -2.770  12.267  22.388  0.00  0.00    +0.000 N 
ATOM     11  C   UNL     1      -1.436  12.058  22.599  0.00  0.00    +0.000 C 
ATOM     12  O   UNL     1      -0.846  12.743  23.419  0.00  0.00    +0.000 OA
ATOM     13  H   UNL     1      -3.271  11.746  21.661  0.00  0.00    +0.000 HD
BRANCH  10  14
ATOM     14  C   UNL     1      -3.561  13.249  23.105  0.00  0.00    +0.000 C 
BRANCH  14  16
ATOM     15  O   UNL     1      -4.317  12.204  25.084  0.00  0.00    +0.000 OA
ATOM     16  C   UNL     1      -4.593  12.545  23.944  0.00  0.00    +0.000 C 
BRANCH  16  17
ATOM     17  O   UNL     1      -5.824  12.279  23.455  0.00  0.00    +0.000 OA
ATOM     18  H   UNL     1      -6.611  12.308  24.016  0.00  0.00    +0.000 HD
ENDBRANCH  16  17
ENDBRANCH  14  16
ENDBRANCH  10  14
ENDBRANCH   1  11
BRANCH   2  19
ATOM     19  O   UNL     1       0.251   9.843  23.744  0.00  0.00    +0.000 OA
ATOM     20  H   UNL     1       0.392  10.543  24.389  0.00  0.00    +0.000 HD
ENDBRANCH   2  19
BRANCH   4  21
ATOM     21  C   UNL     1       1.595   8.267  19.293  0.00  0.00    +0.000 C 
BRANCH  21  22
ATOM     22  C   UNL     1       2.362   7.163  20.040  0.00  0.00    +0.000 C 
BRANCH  22  23
ATOM     23  C   UNL     1       1.922   5.781  19.641  0.00  0.00    +0.000 A 
ATOM     24  C   UNL     1       2.081   5.347  18.314  0.00  0.00    +0.000 A 
ATOM     25  C   UNL     1       1.709   4.051  17.948  0.00  0.00    +0.000 A 
ATOM     26  C   UNL     1       1.177   3.180  18.901  0.00  0.00    +0.000 A 
ATOM     27  F   UNL     1       0.824   1.919  18.545  0.00  0.00    +0.000 F 
ATOM     28  C   UNL     1       1.015   3.604  20.223  0.00  0.00    +0.000 A 
ATOM     29  C   UNL     1       1.385   4.900  20.594  0.00  0.00    +0.000 A 
ENDBRANCH  22  23
ENDBRANCH  21  22
ENDBRANCH   4  21
TORSDOF 8
ENDMDL
MODEL 2
REMARK VINA RESULT:      -7.5      1.079      1.564
REMARK  Name = 
REMARK  8 active torsions:
REMARK  status: ('A' for Active; 'I' for Inactive)
REMARK    1  A    between atoms: C_2  and  O_3
REMARK    2  A    between atoms: C_2  and  C_4
REMARK    3  A    between atoms: C_4  and  N_5
REMARK    4  A    between atoms: C_6  and  C_8
REMARK    5  A    between atoms: C_9  and  O_10
REMARK    6  A    between atoms: C_12  and  C_13
REMARK    7  A    between atoms: C_13  and  C_14
REMARK    8  A    between atoms: C_14  and  C_15
REMARK                            x       y       z     vdW  Elec       q    Type
REMARK                         _______ _______ _______ _____ _____    ______ ____
ROOT
ATOM      1  C   UNL     1      -0.375  10.487  21.438  0.00  0.00    +0.000 A 
ATOM      2  C   UNL     1      -0.227   9.094  21.728  0.00  0.00    +0.000 A 
ATOM      3  C   UNL     1       0.581   8.283  20.911  0.00  0.00    +0.000 A 
ATOM      4  C   UNL     1       1.244   8.815  19.787  0.00  0.00    +0.000 A 
ATOM      5  N   UNL     1       1.045  10.132  19.521  0.00  0.00    +0.000 N 
ATOM      6  N   UNL     1       1.532  10.823  18.507  0.00  0.00    +0.000 NA
ATOM      7  C   UNL     1       1.036  12.071  18.649  0.00  0.00    +0.000 A 
ATOM      8  N   UNL     1       0.254  12.180  19.745  0.00  0.00    +0.000 NA
ATOM      9  C   UNL     1       0.290  10.944  20.275  0.00  0.00    +0.000 A 
ENDROOT
BRANCH   1  11
ATOM     10  N   UNL     1      -2.048  12.319  21.745  0.00  0.00    +0.000 N 
ATOM     11  C   UNL     1      -1.174  11.429  22.302  0.00  0.00    +0.000 C 
ATOM     12  O   UNL     1      -1.015  11.424  23.512  0.00  0.00    +0.000 OA
ATOM     13  H   UNL     1      -2.151  12.383  20.727  0.00  0.00    +0.000 HD
BRANCH  10  14
ATOM     14  C   UNL     1      -2.842  13.263  22.509  0.00  0.00    +0.000 C 
BRANCH  14  16
ATOM     15  O   UNL     1      -5.059  12.461  22.360  0.00  0.00    +0.000 OA
ATOM     16  C   UNL     1      -4.060  12.568  23.055  0.00  0.00    +0.000 C 
BRANCH  16  17
ATOM     17  O   UNL     1      -4.069  12.065  24.308  0.00  0.00    +0.000 OA
ATOM     18  H   UNL     1      -4.346  11.155  24.488  0.00  0.00    +0.000 HD
ENDBRANCH  16  17
ENDBRANCH  14  16
ENDBRANCH  10  14
ENDBRANCH   1  11
BRANCH   2  19
ATOM     19  O   UNL     1      -0.797   8.483  22.792  0.00  0.00    +0.000 OA
ATOM     20  H   UNL     1      -1.736   8.325  22.926  0.00  0.00    +0.000 HD
ENDBRANCH   2  19
BRANCH   4  21
ATOM     21  C   UNL     1       2.164   7.991  18.907  0.00  0.00    +0.000 C 
BRANCH  21  22
ATOM     22  C   UNL     1       2.864   6.835  19.641  0.00  0.00    +0.000 C 
BRANCH  22  23
ATOM     23  C   UNL     1       2.228   5.501  19.358  0.00  0.00    +0.000 A 
ATOM     24  C   UNL     1       1.645   4.762  20.401  0.00  0.00    +0.000 A 
ATOM     25  C   UNL     1       1.019   3.542  20.136  0.00  0.00    +0.000 A 
ATOM     26  C   UNL     1       0.969   3.050  18.829  0.00  0.00    +0.000 A 
ATOM     27  F   UNL     1       0.354   1.869  18.573  0.00  0.00    +0.000 F 
ATOM     28  C   UNL     1       1.548   3.779  17.786  0.00  0.00    +0.000 A 
ATOM     29  C   UNL     1       2.175   5.000  18.046  0.00  0.00    +0.000 A 
ENDBRANCH  22  23
ENDBRANCH  21  22
ENDBRANCH   4  21
TORSDOF 8
ENDMDL
MODEL 3
REMARK VINA RESULT:      -7.3      1.437      1.860
REMARK  Name = 
REMARK  8 active torsions:
REMARK  status: ('A' for Active; 'I' for Inactive)
REMARK    1  A    between atoms: C_2  and  O_3
REMARK    2  A    between atoms: C_2  and  C_4
REMARK    3  A    between atoms: C_4  and  N_5
REMARK    4  A    between atoms: C_6  and  C_8
REMARK    5  A    between atoms: C_9  and  O_10
REMARK    6  A    between atoms: C_12  and  C_13
REMARK    7  A    between atoms: C_13  and  C_14
REMARK    8  A    between atoms: C_14  and  C_15
REMARK                            x       y       z     vdW  Elec       q    Type
REMARK                         _______ _______ _______ _____ _____    ______ ____
ROOT
ATOM      1  C   UNL     1       0.117  10.266  21.277  0.00  0.00    +0.000 A 
ATOM      2  C   UNL     1       1.211   9.363  21.463  0.00  0.00    +0.000 A 
ATOM      3  C   UNL     1       1.792   8.717  20.357  0.00  0.00    +0.000 A 
ATOM      4  C   UNL     1       1.303   8.929  19.053  0.00  0.00    +0.000 A 
ATOM      5  N   UNL     1       0.238   9.760  18.922  0.00  0.00    +0.000 N 
ATOM      6  N   UNL     1      -0.401  10.068  17.807  0.00  0.00    +0.000 NA
ATOM      7  C   UNL     1      -1.399  10.897  18.181  0.00  0.00    +0.000 A 
ATOM      8  N   UNL     1      -1.392  11.124  19.513  0.00  0.00    +0.000 NA
ATOM      9  C   UNL     1      -0.344  10.402  19.945  0.00  0.00    +0.000 A 
ENDROOT
BRANCH   1  11
ATOM     10  N   UNL     1      -0.883  12.346  22.239  0.00  0.00    +0.000 N 
ATOM     11  C   UNL     1      -0.515  11.040  22.405  0.00  0.00    +0.000 C 
ATOM     12  O   UNL     1      -0.673  10.507  23.492  0.00  0.00    +0.000 OA
ATOM     13  H   UNL     1      -0.702  12.830  21.354  0.00  0.00    +0.000 HD
BRANCH  10  14
ATOM     14  C   UNL     1      -1.486  13.157  23.279  0.00  0.00    +0.000 C 
BRANCH  14  16
ATOM     15  O   UNL     1      -3.703  13.741  22.711  0.00  0.00    +0.000 OA
ATOM     16  C   UNL     1      -2.975  12.943  23.282  0.00  0.00    +0.000 C 
BRANCH  16  17
ATOM     17  O   UNL     1      -3.523  11.883  23.913  0.00  0.00    +0.000 OA
ATOM     18  H   UNL     1      -4.050  11.224  23.438  0.00  0.00    +0.000 HD
ENDBRANCH  16  17
ENDBRANCH  14  16
ENDBRANCH  10  14
ENDBRANCH   1  11
BRANCH   2  19
ATOM     19  O   UNL     1       1.775   9.104  22.665  0.00  0.00    +0.000 OA
ATOM     20  H   UNL     1       1.764   8.263  23.133  0.00  0.00    +0.000 HD
ENDBRANCH   2  19
BRANCH   4  21
ATOM     21  C   UNL     1       1.929   8.293  17.826  0.00  0.00    +0.000 C 
BRANCH  21  22
ATOM     22  C   UNL     1       3.201   7.480  18.121  0.00  0.00    +0.000 C 
BRANCH  22  23
ATOM     23  C   UNL     1       3.017   6.008  17.871  0.00  0.00    +0.000 A 
ATOM     24  C   UNL     1       4.092   5.232  17.405  0.00  0.00    +0.000 A 
ATOM     25  C   UNL     1       3.937   3.859  17.208  0.00  0.00    +0.000 A 
ATOM     26  C   UNL     1       2.709   3.248  17.475  0.00  0.00    +0.000 A 
ATOM     27  F   UNL     1       2.563   1.912  17.292  0.00  0.00    +0.000 F 
ATOM     28  C   UNL     1       1.634   4.012  17.938  0.00  0.00    +0.000 A 
ATOM     29  C   UNL     1       1.785   5.387  18.137  0.00  0.00    +0.000 A 
ENDBRANCH  22  23
ENDBRANCH  21  22
ENDBRANCH   4  21
TORSDOF 8
ENDMDL
MODEL 4
REMARK VINA RESULT:      -7.2      5.536      9.396
REMARK  Name = 
REMARK  8 active torsions:
REMARK  status: ('A' for Active; 'I' for Inactive)
REMARK    1  A    between atoms: C_2  and  O_3
REMARK    2  A    between atoms: C_2  and  C_4
REMARK    3  A    between atoms: C_4  and  N_5
REMARK    4  A    between atoms: C_6  and  C_8
REMARK    5  A    between atoms: C_9  and  O_10
REMARK    6  A    between atoms: C_12  and  C_13
REMARK    7  A    between atoms: C_13  and  C_14
REMARK    8  A    between atoms: C_14  and  C_15
REMARK                            x       y       z     vdW  Elec       q    Type
REMARK                         _______ _______ _______ _____ _____    ______ ____
ROOT
ATOM      1  C   UNL     1       3.585   5.183  18.904  0.00  0.00    +0.000 A 
ATOM      2  C   UNL     1       2.975   4.653  20.084  0.00  0.00    +0.000 A 
ATOM      3  C   UNL     1       2.018   5.406  20.785  0.00  0.00    +0.000 A 
ATOM      4  C   UNL     1       1.652   6.698  20.356  0.00  0.00    +0.000 A 
ATOM      5  N   UNL     1       2.284   7.182  19.256  0.00  0.00    +0.000 N 
ATOM      6  N   UNL     1       2.127   8.373  18.707  0.00  0.00    +0.000 NA
ATOM      7  C   UNL     1       2.983   8.405  17.663  0.00  0.00    +0.000 A 
ATOM      8  N   UNL     1       3.669   7.247  17.540  0.00  0.00    +0.000 NA
ATOM      9  C   UNL     1       3.196   6.499  18.552  0.00  0.00    +0.000 A 
ENDROOT
BRANCH   1  11
ATOM     10  N   UNL     1       4.748   4.702  16.743  0.00  0.00    +0.000 N 
ATOM     11  C   UNL     1       4.572   4.411  18.066  0.00  0.00    +0.000 C 
ATOM     12  O   UNL     1       5.200   3.490  18.564  0.00  0.00    +0.000 OA
ATOM     13  H   UNL     1       4.185   5.430  16.290  0.00  0.00    +0.000 HD
BRANCH  10  14
ATOM     14  C   UNL     1       5.669   3.998  15.871  0.00  0.00    +0.000 C 
BRANCH  14  16
ATOM     15  O   UNL     1       7.425   5.463  15.283  0.00  0.00    +0.000 OA
ATOM     16  C   UNL     1       7.050   4.574  16.031  0.00  0.00    +0.000 C 
BRANCH  16  17
ATOM     17  O   UNL     1       7.887   4.117  16.987  0.00  0.00    +0.000 OA
ATOM     18  H   UNL     1       7.556   3.727  17.808  0.00  0.00    +0.000 HD
ENDBRANCH  16  17
ENDBRANCH  14  16
ENDBRANCH  10  14
ENDBRANCH   1  11
BRANCH   2  19
ATOM     19  O   UNL     1       3.233   3.417  20.572  0.00  0.00    +0.000 OA
ATOM     20  H   UNL     1       3.243   3.159  21.498  0.00  0.00    +0.000 HD
ENDBRANCH   2  19
BRANCH   4  21
ATOM     21  C   UNL     1       0.589   7.527  21.053  0.00  0.00    +0.000 C 
BRANCH  21  22
ATOM     22  C   UNL     1       1.150   8.688  21.890  0.00  0.00    +0.000 C 
BRANCH  22  23
ATOM     23  C   UNL     1       0.204   9.855  21.967  0.00  0.00    +0.000 A 
ATOM     24  C   UNL     1       0.050  10.711  20.863  0.00  0.00    +0.000 A 
ATOM     25  C   UNL     1      -0.856  11.773  20.916  0.00  0.00    +0.000 A 
ATOM     26  C   UNL     1      -1.616  11.987  22.068  0.00  0.00    +0.000 A 
ATOM     27  F   UNL     1      -2.501  13.014  22.114  0.00  0.00    +0.000 F 
ATOM     28  C   UNL     1      -1.469  11.141  23.170  0.00  0.00    +0.000 A 
ATOM     29  C   UNL     1      -0.563  10.077  23.123  0.00  0.00    +0.000 A 
ENDBRANCH  22  23
ENDBRANCH  21  22
ENDBRANCH   4  21
TORSDOF 8
ENDMDL
MODEL 5
REMARK VINA RESULT:      -7.2      5.654      9.569
REMARK  Name = 
REMARK  8 active torsions:
REMARK  status: ('A' for Active; 'I' for Inactive)
REMARK    1  A    between atoms: C_2  and  O_3
REMARK    2  A    between atoms: C_2  and  C_4
REMARK    3  A    between atoms: C_4  and  N_5
REMARK    4  A    between atoms: C_6  and  C_8
REMARK    5  A    between atoms: C_9  and  O_10
REMARK    6  A    between atoms: C_12  and  C_13
REMARK    7  A    between atoms: C_13  and  C_14
REMARK    8  A    between atoms: C_14  and  C_15
REMARK                            x       y       z     vdW  Elec       q    Type
REMARK                         _______ _______ _______ _____ _____    ______ ____
ROOT
ATOM      1  C   UNL     1       3.603   6.291  17.911  0.00  0.00    +0.000 A 
ATOM      2  C   UNL     1       2.980   7.578  17.890  0.00  0.00    +0.000 A 
ATOM      3  C   UNL     1       2.140   7.975  18.945  0.00  0.00    +0.000 A 
ATOM      4  C   UNL     1       1.880   7.115  20.030  0.00  0.00    +0.000 A 
ATOM      5  N   UNL     1       2.457   5.886  19.993  0.00  0.00    +0.000 N 
ATOM      6  N   UNL     1       2.319   4.914  20.877  0.00  0.00    +0.000 NA
ATOM      7  C   UNL     1       3.052   3.886  20.399  0.00  0.00    +0.000 A 
ATOM      8  N   UNL     1       3.657   4.198  19.233  0.00  0.00    +0.000 NA
ATOM      9  C   UNL     1       3.269   5.467  19.013  0.00  0.00    +0.000 A 
ENDROOT
BRANCH   1  11
ATOM     10  N   UNL     1       4.913   4.503  16.753  0.00  0.00    +0.000 N 
ATOM     11  C   UNL     1       4.562   5.820  16.847  0.00  0.00    +0.000 C 
ATOM     12  O   UNL     1       5.061   6.628  16.080  0.00  0.00    +0.000 OA
ATOM     13  H   UNL     1       4.555   3.818  17.427  0.00  0.00    +0.000 HD
BRANCH  10  14
ATOM     14  C   UNL     1       5.837   3.977  15.766  0.00  0.00    +0.000 C 
BRANCH  14  16
ATOM     15  O   UNL     1       7.847   4.356  16.947  0.00  0.00    +0.000 OA
ATOM     16  C   UNL     1       7.187   4.615  15.953  0.00  0.00    +0.000 C 
BRANCH  16  17
ATOM     17  O   UNL     1       7.680   5.478  15.038  0.00  0.00    +0.000 OA
ATOM     18  H   UNL     1       7.339   6.379  14.954  0.00  0.00    +0.000 HD
ENDBRANCH  16  17
ENDBRANCH  14  16
ENDBRANCH  10  14
ENDBRANCH   1  11
BRANCH   2  19
ATOM     19  O   UNL     1       3.176   8.492  16.911  0.00  0.00    +0.000 OA
ATOM     20  H   UNL     1       2.499   9.013  16.470  0.00  0.00    +0.000 HD
ENDBRANCH   2  19
BRANCH   4  21
ATOM     21  C   UNL     1       1.021   7.519  21.213  0.00  0.00    +0.000 C 
BRANCH  21  22
ATOM     22  C   UNL     1       1.514   8.778  21.945  0.00  0.00    +0.000 C 
BRANCH  22  23
ATOM     23  C   UNL     1       0.459   9.848  22.028  0.00  0.00    +0.000 A 
ATOM     24  C   UNL     1       0.277  10.743  20.961  0.00  0.00    +0.000 A 
ATOM     25  C   UNL     1      -0.726  11.713  21.018  0.00  0.00    +0.000 A 
ATOM     26  C   UNL     1      -1.557  11.795  22.139  0.00  0.00    +0.000 A 
ATOM     27  F   UNL     1      -2.536  12.732  22.188  0.00  0.00    +0.000 F 
ATOM     28  C   UNL     1      -1.382  10.909  23.205  0.00  0.00    +0.000 A 
ATOM     29  C   UNL     1      -0.379   9.937  23.153  0.00  0.00    +0.000 A 
ENDBRANCH  22  23
ENDBRANCH  21  22
ENDBRANCH   4  21
TORSDOF 8
ENDMDL
MODEL 6
REMARK VINA RESULT:      -7.2      6.766     10.539
REMARK  Name = 
REMARK  8 active torsions:
REMARK  status: ('A' for Active; 'I' for Inactive)
REMARK    1  A    between atoms: C_2  and  O_3
REMARK    2  A    between atoms: C_2  and  C_4
REMARK    3  A    between atoms: C_4  and  N_5
REMARK    4  A    between atoms: C_6  and  C_8
REMARK    5  A    between atoms: C_9  and  O_10
REMARK    6  A    between atoms: C_12  and  C_13
REMARK    7  A    between atoms: C_13  and  C_14
REMARK    8  A    between atoms: C_14  and  C_15
REMARK                            x       y       z     vdW  Elec       q    Type
REMARK                         _______ _______ _______ _____ _____    ______ ____
ROOT
ATOM      1  C   UNL     1       4.888   5.116  16.506  0.00  0.00    +0.000 A 
ATOM      2  C   UNL     1       4.625   6.520  16.427  0.00  0.00    +0.000 A 
ATOM      3  C   UNL     1       3.791   7.137  17.376  0.00  0.00    +0.000 A 
ATOM      4  C   UNL     1       3.186   6.391  18.407  0.00  0.00    +0.000 A 
ATOM      5  N   UNL     1       3.427   5.055  18.423  0.00  0.00    +0.000 N 
ATOM      6  N   UNL     1       2.936   4.167  19.268  0.00  0.00    +0.000 NA
ATOM      7  C   UNL     1       3.432   2.976  18.868  0.00  0.00    +0.000 A 
ATOM      8  N   UNL     1       4.238   3.103  17.791  0.00  0.00    +0.000 NA
ATOM      9  C   UNL     1       4.219   4.424  17.545  0.00  0.00    +0.000 A 
ENDROOT
BRANCH   1  11
ATOM     10  N   UNL     1       5.524   4.289  14.233  0.00  0.00    +0.000 N 
ATOM     11  C   UNL     1       5.819   4.397  15.563  0.00  0.00    +0.000 C 
ATOM     12  O   UNL     1       6.834   3.873  15.995  0.00  0.00    +0.000 OA
ATOM     13  H   UNL     1       4.646   4.667  13.861  0.00  0.00    +0.000 HD
BRANCH  10  14
ATOM     14  C   UNL     1       6.363   3.604  13.268  0.00  0.00    +0.000 C 
BRANCH  14  16
ATOM     15  O   UNL     1       4.473   3.556  11.852  0.00  0.00    +0.000 OA
ATOM     16  C   UNL     1       5.500   2.993  12.197  0.00  0.00    +0.000 C 
BRANCH  16  17
ATOM     17  O   UNL     1       5.841   1.823  11.614  0.00  0.00    +0.000 OA
ATOM     18  H   UNL     1       5.176   1.234  11.232  0.00  0.00    +0.000 HD
ENDBRANCH  16  17
ENDBRANCH  14  16
ENDBRANCH  10  14
ENDBRANCH   1  11
BRANCH   2  19
ATOM     19  O   UNL     1       5.170   7.335  15.495  0.00  0.00    +0.000 OA
ATOM     20  H   UNL     1       5.663   7.064  14.716  0.00  0.00    +0.000 HD
ENDBRANCH   2  19
BRANCH   4  21
ATOM     21  C   UNL     1       2.319   7.023  19.480  0.00  0.00    +0.000 C 
BRANCH  21  22
ATOM     22  C   UNL     1       1.847   8.448  19.146  0.00  0.00    +0.000 C 
BRANCH  22  23
ATOM     23  C   UNL     1       1.078   9.081  20.274  0.00  0.00    +0.000 A 
ATOM     24  C   UNL     1       0.764  10.449  20.232  0.00  0.00    +0.000 A 
ATOM     25  C   UNL     1       0.017  11.033  21.258  0.00  0.00    +0.000 A 
ATOM     26  C   UNL     1      -0.423  10.255  22.332  0.00  0.00    +0.000 A 
ATOM     27  F   UNL     1      -1.156  10.822  23.323  0.00  0.00    +0.000 F 
ATOM     28  C   UNL     1      -0.114   8.893  22.382  0.00  0.00    +0.000 A 
ATOM     29  C   UNL     1       0.633   8.305  21.358  0.00  0.00    +0.000 A 
ENDBRANCH  22  23
ENDBRANCH  21  22
ENDBRANCH   4  21
TORSDOF 8
ENDMDL
MODEL 7
REMARK VINA RESULT:      -7.2      4.232      6.199
REMARK  Name = 
REMARK  8 active torsions:
REMARK  status: ('A' for Active; 'I' for Inactive)
REMARK    1  A    between atoms: C_2  and  O_3
REMARK    2  A    between atoms: C_2  and  C_4
REMARK    3  A    between atoms: C_4  and  N_5
REMARK    4  A    between atoms: C_6  and  C_8
REMARK    5  A    between atoms: C_9  and  O_10
REMARK    6  A    between atoms: C_12  and  C_13
REMARK    7  A    between atoms: C_13  and  C_14
REMARK    8  A    between atoms: C_14  and  C_15
REMARK                            x       y       z     vdW  Elec       q    Type
REMARK                         _______ _______ _______ _____ _____    ______ ____
ROOT
ATOM      1  C   UNL     1       2.183   7.332  19.450  0.00  0.00    +0.000 A 
ATOM      2  C   UNL     1       2.678   7.536  18.124  0.00  0.00    +0.000 A 
ATOM      3  C   UNL     1       3.169   6.452  17.376  0.00  0.00    +0.000 A 
ATOM      4  C   UNL     1       3.201   5.152  17.917  0.00  0.00    +0.000 A 
ATOM      5  N   UNL     1       2.762   5.005  19.193  0.00  0.00    +0.000 N 
ATOM      6  N   UNL     1       2.740   3.893  19.906  0.00  0.00    +0.000 NA
ATOM      7  C   UNL     1       2.252   4.248  21.113  0.00  0.00    +0.000 A 
ATOM      8  N   UNL     1       1.956   5.565  21.169  0.00  0.00    +0.000 NA
ATOM      9  C   UNL     1       2.279   6.007  19.941  0.00  0.00    +0.000 A 
ENDROOT
BRANCH   1  11
ATOM     10  N   UNL     1       1.654   8.391  21.652  0.00  0.00    +0.000 N 
ATOM     11  C   UNL     1       1.586   8.433  20.288  0.00  0.00    +0.000 C 
ATOM     12  O   UNL     1       1.003   9.359  19.746  0.00  0.00    +0.000 OA
ATOM     13  H   UNL     1       2.084   7.591  22.129  0.00  0.00    +0.000 HD
BRANCH  10  14
ATOM     14  C   UNL     1       1.094   9.406  22.524  0.00  0.00    +0.000 C 
BRANCH  14  16
ATOM     15  O   UNL     1      -0.882   8.142  22.249  0.00  0.00    +0.000 OA
ATOM     16  C   UNL     1      -0.381   9.161  22.697  0.00  0.00    +0.000 C 
BRANCH  16  17
ATOM     17  O   UNL     1      -1.163  10.057  23.337  0.00  0.00    +0.000 OA
ATOM     18  H   UNL     1      -0.907  10.986  23.422  0.00  0.00    +0.000 HD
ENDBRANCH  16  17
ENDBRANCH  14  16
ENDBRANCH  10  14
ENDBRANCH   1  11
BRANCH   2  19
ATOM     19  O   UNL     1       2.672   8.736  17.497  0.00  0.00    +0.000 OA
ATOM     20  H   UNL     1       2.661   9.601  17.918  0.00  0.00    +0.000 HD
ENDBRANCH   2  19
BRANCH   4  21
ATOM     21  C   UNL     1       3.677   3.944  17.130  0.00  0.00    +0.000 C 
BRANCH  21  22
ATOM     22  C   UNL     1       4.925   4.207  16.272  0.00  0.00    +0.000 C 
BRANCH  22  23
ATOM     23  C   UNL     1       5.961   5.024  16.995  0.00  0.00    +0.000 A 
ATOM     24  C   UNL     1       6.454   6.207  16.419  0.00  0.00    +0.000 A 
ATOM     25  C   UNL     1       7.387   6.989  17.104  0.00  0.00    +0.000 A 
ATOM     26  C   UNL     1       7.834   6.598  18.368  0.00  0.00    +0.000 A 
ATOM     27  F   UNL     1       8.733   7.363  19.035  0.00  0.00    +0.000 F 
ATOM     28  C   UNL     1       7.349   5.422  18.948  0.00  0.00    +0.000 A 
ATOM     29  C   UNL     1       6.416   4.636  18.267  0.00  0.00    +0.000 A 
ENDBRANCH  22  23
ENDBRANCH  21  22
ENDBRANCH   4  21
TORSDOF 8
ENDMDL
MODEL 8
REMARK VINA RESULT:      -7.2      4.435      6.534
REMARK  Name = 
REMARK  8 active torsions:
REMARK  status: ('A' for Active; 'I' for Inactive)
REMARK    1  A    between atoms: C_2  and  O_3
REMARK    2  A    between atoms: C_2  and  C_4
REMARK    3  A    between atoms: C_4  and  N_5
REMARK    4  A    between atoms: C_6  and  C_8
REMARK    5  A    between atoms: C_9  and  O_10
REMARK    6  A    between atoms: C_12  and  C_13
REMARK    7  A    between atoms: C_13  and  C_14
REMARK    8  A    between atoms: C_14  and  C_15
REMARK                            x       y       z     vdW  Elec       q    Type
REMARK                         _______ _______ _______ _____ _____    ______ ____
ROOT
ATOM      1  C   UNL     1       2.201   7.114  19.255  0.00  0.00    +0.000 A 
ATOM      2  C   UNL     1       2.861   7.311  18.001  0.00  0.00    +0.000 A 
ATOM      3  C   UNL     1       3.563   6.253  17.397  0.00  0.00    +0.000 A 
ATOM      4  C   UNL     1       3.645   4.989  18.014  0.00  0.00    +0.000 A 
ATOM      5  N   UNL     1       3.041   4.853  19.223  0.00  0.00    +0.000 N 
ATOM      6  N   UNL     1       3.026   3.779  19.991  0.00  0.00    +0.000 NA
ATOM      7  C   UNL     1       2.334   4.134  21.094  0.00  0.00    +0.000 A 
ATOM      8  N   UNL     1       1.902   5.412  21.028  0.00  0.00    +0.000 NA
ATOM      9  C   UNL     1       2.356   5.830  19.833  0.00  0.00    +0.000 A 
ENDROOT
BRANCH   1  11
ATOM     10  N   UNL     1       0.648   7.898  21.051  0.00  0.00    +0.000 N 
ATOM     11  C   UNL     1       1.380   8.181  19.932  0.00  0.00    +0.000 C 
ATOM     12  O   UNL     1       1.340   9.306  19.460  0.00  0.00    +0.000 OA
ATOM     13  H   UNL     1       0.618   6.945  21.427  0.00  0.00    +0.000 HD
BRANCH  10  14
ATOM     14  C   UNL     1      -0.173   8.867  21.750  0.00  0.00    +0.000 C 
BRANCH  14  16
ATOM     15  O   UNL     1       0.041  10.127  23.736  0.00  0.00    +0.000 OA
ATOM     16  C   UNL     1       0.614   9.465  22.885  0.00  0.00    +0.000 C 
BRANCH  16  17
ATOM     17  O   UNL     1       1.949   9.286  22.974  0.00  0.00    +0.000 OA
ATOM     18  H   UNL     1       2.413   9.331  23.823  0.00  0.00    +0.000 HD
ENDBRANCH  16  17
ENDBRANCH  14  16
ENDBRANCH  10  14
ENDBRANCH   1  11
BRANCH   2  19
ATOM     19  O   UNL     1       2.828   8.473  17.309  0.00  0.00    +0.000 OA
ATOM     20  H   UNL     1       2.613   9.342  17.661  0.00  0.00    +0.000 HD
ENDBRANCH   2  19
BRANCH   4  21
ATOM     21  C   UNL     1       4.349   3.805  17.376  0.00  0.00    +0.000 C 
BRANCH  21  22
ATOM     22  C   UNL     1       5.556   4.190  16.505  0.00  0.00    +0.000 C 
BRANCH  22  23
ATOM     23  C   UNL     1       6.464   5.181  17.181  0.00  0.00    +0.000 A 
ATOM     24  C   UNL     1       6.749   6.411  16.564  0.00  0.00    +0.000 A 
ATOM     25  C   UNL     1       7.560   7.350  17.206  0.00  0.00    +0.000 A 
ATOM     26  C   UNL     1       8.091   7.070  18.467  0.00  0.00    +0.000 A 
ATOM     27  F   UNL     1       8.872   7.986  19.092  0.00  0.00    +0.000 F 
ATOM     28  C   UNL     1       7.814   5.848  19.088  0.00  0.00    +0.000 A 
ATOM     29  C   UNL     1       7.003   4.906  18.450  0.00  0.00    +0.000 A 
ENDBRANCH  22  23
ENDBRANCH  21  22
ENDBRANCH   4  21
TORSDOF 8
ENDMDL
MODEL 9
REMARK VINA RESULT:      -7.2      1.462      1.903
REMARK  Name = 
REMARK  8 active torsions:
REMARK  status: ('A' for Active; 'I' for Inactive)
REMARK    1  A    between atoms: C_2  and  O_3
REMARK    2  A    between atoms: C_2  and  C_4
REMARK    3  A    between atoms: C_4  and  N_5
REMARK    4  A    between atoms: C_6  and  C_8
REMARK    5  A    between atoms: C_9  and  O_10
REMARK    6  A    between atoms: C_12  and  C_13
REMARK    7  A    between atoms: C_13  and  C_14
REMARK    8  A    between atoms: C_14  and  C_15
REMARK                            x       y       z     vdW  Elec       q    Type
REMARK                         _______ _______ _______ _____ _____    ______ ____
ROOT
ATOM      1  C   UNL     1      -0.287  10.608  21.546  0.00  0.00    +0.000 A 
ATOM      2  C   UNL     1       0.647   9.675  22.097  0.00  0.00    +0.000 A 
ATOM      3  C   UNL     1       1.385   8.829  21.252  0.00  0.00    +0.000 A 
ATOM      4  C   UNL     1       1.212   8.867  19.854  0.00  0.00    +0.000 A 
ATOM      5  N   UNL     1       0.287   9.737  19.371  0.00  0.00    +0.000 N 
ATOM      6  N   UNL     1      -0.063   9.909  18.110  0.00  0.00    +0.000 NA
ATOM      7  C   UNL     1      -1.031  10.850  18.130  0.00  0.00    +0.000 A 
ATOM      8  N   UNL     1      -1.288  11.281  19.384  0.00  0.00    +0.000 NA
ATOM      9  C   UNL     1      -0.434  10.567  20.138  0.00  0.00    +0.000 A 
ENDROOT
BRANCH   1  11
ATOM     10  N   UNL     1      -1.423  12.810  21.884  0.00  0.00    +0.000 N 
ATOM     11  C   UNL     1      -1.068  11.588  22.383  0.00  0.00    +0.000 C 
ATOM     12  O   UNL     1      -1.359  11.305  23.534  0.00  0.00    +0.000 OA
ATOM     13  H   UNL     1      -1.134  13.093  20.942  0.00  0.00    +0.000 HD
BRANCH  10  14
ATOM     14  C   UNL     1      -2.163  13.808  22.632  0.00  0.00    +0.000 C 
BRANCH  14  16
ATOM     15  O   UNL     1      -0.729  15.680  22.508  0.00  0.00    +0.000 OA
ATOM     16  C   UNL     1      -1.205  14.809  23.219  0.00  0.00    +0.000 C 
BRANCH  16  17
ATOM     17  O   UNL     1      -0.856  14.755  24.522  0.00  0.00    +0.000 OA
ATOM     18  H   UNL     1      -1.425  14.338  25.184  0.00  0.00    +0.000 HD
ENDBRANCH  16  17
ENDBRANCH  14  16
ENDBRANCH  10  14
ENDBRANCH   1  11
BRANCH   2  19
ATOM     19  O   UNL     1       0.910   9.569  23.420  0.00  0.00    +0.000 OA
ATOM     20  H   UNL     1       0.695  10.215  24.100  0.00  0.00    +0.000 HD
ENDBRANCH   2  19
BRANCH   4  21
ATOM     21  C   UNL     1       2.021   8.008  18.900  0.00  0.00    +0.000 C 
BRANCH  21  22
ATOM     22  C   UNL     1       2.768   6.849  19.581  0.00  0.00    +0.000 C 
BRANCH  22  23
ATOM     23  C   UNL     1       2.126   5.515  19.319  0.00  0.00    +0.000 A 
ATOM     24  C   UNL     1       2.150   4.962  18.028  0.00  0.00    +0.000 A 
ATOM     25  C   UNL     1       1.589   3.706  17.788  0.00  0.00    +0.000 A 
ATOM     26  C   UNL     1       1.001   2.990  18.835  0.00  0.00    +0.000 A 
ATOM     27  F   UNL     1       0.465   1.767  18.602  0.00  0.00    +0.000 F 
ATOM     28  C   UNL     1       0.973   3.533  20.123  0.00  0.00    +0.000 A 
ATOM     29  C   UNL     1       1.533   4.790  20.367  0.00  0.00    +0.000 A 
ENDBRANCH  22  23
ENDBRANCH  21  22
ENDBRANCH   4  21
TORSDOF 8
ENDMDL
