MODEL 1
REMARK VINA RESULT:      -7.4      0.000      0.000
REMARK  Name = 
REMARK  3 active torsions:
REMARK  status: ('A' for Active; 'I' for Inactive)
REMARK    1  A    between atoms: N_2  and  C_4
REMARK    2  A    between atoms: C_12  and  C_13
REMARK    3  A    between atoms: C_16  and  O_17
REMARK                            x       y       z     vdW  Elec       q    Type
REMARK                         _______ _______ _______ _____ _____    ______ ____
ROOT
ATOM      1  C   UNL     1       3.887   2.667  20.470  0.00  0.00    +0.000 A 
ATOM      2  C   UNL     1       2.875   2.681  21.440  0.00  0.00    +0.000 A 
ATOM      3  C   UNL     1       2.033   3.795  21.571  0.00  0.00    +0.000 A 
ATOM      4  C   UNL     1       2.214   4.894  20.715  0.00  0.00    +0.000 A 
ATOM      5  N   UNL     1       1.507   6.077  20.669  0.00  0.00    +0.000 NA
ATOM      6  C   UNL     1       2.083   6.727  19.698  0.00  0.00    +0.000 A 
ATOM      7  S   UNL     1       1.829   8.278  18.964  0.00  0.00    +0.000 S 
ATOM      8  C   UNL     1       3.155   7.930  17.847  0.00  0.00    +0.000 A 
ATOM      9  C   UNL     1       3.721   6.721  18.052  0.00  0.00    +0.000 A 
ATOM     10  N   UNL     1       3.109   6.054  19.101  0.00  0.00    +0.000 N 
ATOM     11  C   UNL     1       3.232   4.849  19.749  0.00  0.00    +0.000 A 
ATOM     12  C   UNL     1       4.095   3.753  19.600  0.00  0.00    +0.000 A 
ENDROOT
BRANCH   9  13
ATOM     13  C   UNL     1       4.822   6.216  17.242  0.00  0.00    +0.000 A 
ATOM     14  C   UNL     1       6.117   6.724  17.411  0.00  0.00    +0.000 A 
ATOM     15  C   UNL     1       7.164   6.271  16.603  0.00  0.00    +0.000 A 
ATOM     16  C   UNL     1       6.910   5.314  15.627  0.00  0.00    +0.000 A 
ATOM     17  C   UNL     1       5.633   4.791  15.457  0.00  0.00    +0.000 A 
ATOM     18  C   UNL     1       4.587   5.242  16.262  0.00  0.00    +0.000 A 
BRANCH  16  19
ATOM     19  O   UNL     1       7.894   4.862  14.799  0.00  0.00    +0.000 OA
ATOM     20  H   UNL     1       8.754   5.154  15.144  0.00  0.00    +0.000 HD
ENDBRANCH  16  19
ENDBRANCH   9  13
BRANCH   1  22
ATOM     21  O   UNL     1       4.639   0.783  19.337  0.00  0.00    +0.000 OA
ATOM     22  N   UNL     1       4.756   1.485  20.351  0.00  0.00    +0.000 N 
ATOM     23  O   UNL     1       5.550   1.259  21.274  0.00  0.00    +0.000 OA
ENDBRANCH   1  22
TORSDOF 3
ENDMDL
MODEL 2
REMARK VINA RESULT:      -7.4      0.138      1.233
REMARK  Name = 
REMARK  3 active torsions:
REMARK  status: ('A' for Active; 'I' for Inactive)
REMARK    1  A    between atoms: N_2  and  C_4
REMARK    2  A    between atoms: C_12  and  C_13
REMARK    3  A    between atoms: C_16  and  O_17
REMARK                            x       y       z     vdW  Elec       q    Type
REMARK                         _______ _______ _______ _____ _____    ______ ____
ROOT
ATOM      1  C   UNL     1       3.816   2.761  20.387  0.00  0.00    +0.000 A 
ATOM      2  C   UNL     1       2.820   2.774  21.375  0.00  0.00    +0.000 A 
ATOM      3  C   UNL     1       1.994   3.896  21.533  0.00  0.00    +0.000 A 
ATOM      4  C   UNL     1       2.174   5.004  20.688  0.00  0.00    +0.000 A 
ATOM      5  N   UNL     1       1.481   6.196  20.669  0.00  0.00    +0.000 NA
ATOM      6  C   UNL     1       2.049   6.851  19.696  0.00  0.00    +0.000 A 
ATOM      7  S   UNL     1       1.801   8.415  18.986  0.00  0.00    +0.000 S 
ATOM      8  C   UNL     1       3.104   8.064  17.842  0.00  0.00    +0.000 A 
ATOM      9  C   UNL     1       3.658   6.847  18.022  0.00  0.00    +0.000 A 
ATOM     10  N   UNL     1       3.057   6.173  19.074  0.00  0.00    +0.000 N 
ATOM     11  C   UNL     1       3.175   4.959  19.705  0.00  0.00    +0.000 A 
ATOM     12  C   UNL     1       4.022   3.855  19.527  0.00  0.00    +0.000 A 
ENDROOT
BRANCH   9  13
ATOM     13  C   UNL     1       4.740   6.338  17.188  0.00  0.00    +0.000 A 
ATOM     14  C   UNL     1       4.487   5.356  16.221  0.00  0.00    +0.000 A 
ATOM     15  C   UNL     1       5.532   4.835  15.453  0.00  0.00    +0.000 A 
ATOM     16  C   UNL     1       6.827   5.298  15.659  0.00  0.00    +0.000 A 
ATOM     17  C   UNL     1       7.092   6.281  16.604  0.00  0.00    +0.000 A 
ATOM     18  C   UNL     1       6.049   6.802  17.372  0.00  0.00    +0.000 A 
BRANCH  16  19
ATOM     19  O   UNL     1       7.881   4.801  14.951  0.00  0.00    +0.000 OA
ATOM     20  H   UNL     1       8.249   4.039  15.428  0.00  0.00    +0.000 HD
ENDBRANCH  16  19
ENDBRANCH   9  13
BRANCH   1  22
ATOM     21  O   UNL     1       5.472   1.319  21.147  0.00  0.00    +0.000 OA
ATOM     22  N   UNL     1       4.668   1.569  20.239  0.00  0.00    +0.000 N 
ATOM     23  O   UNL     1       4.532   0.889  19.213  0.00  0.00    +0.000 OA
ENDBRANCH   1  22
TORSDOF 3
ENDMDL
MODEL 3
REMARK VINA RESULT:      -7.0      3.082      4.662
REMARK  Name = 
REMARK  3 active torsions:
REMARK  status: ('A' for Active; 'I' for Inactive)
REMARK    1  A    between atoms: N_2  and  C_4
REMARK    2  A    between atoms: C_12  and  C_13
REMARK    3  A    between atoms: C_16  and  O_17
REMARK                            x       y       z     vdW  Elec       q    Type
REMARK                         _______ _______ _______ _____ _____    ______ ____
ROOT
ATOM      1  C   UNL     1       2.185   7.949  18.943  0.00  0.00    +0.000 A 
ATOM      2  C   UNL     1       1.284   7.990  20.017  0.00  0.00    +0.000 A 
ATOM      3  C   UNL     1       1.139   6.882  20.863  0.00  0.00    +0.000 A 
ATOM      4  C   UNL     1       1.909   5.732  20.624  0.00  0.00    +0.000 A 
ATOM      5  N   UNL     1       1.926   4.544  21.324  0.00  0.00    +0.000 NA
ATOM      6  C   UNL     1       2.815   3.838  20.684  0.00  0.00    +0.000 A 
ATOM      7  S   UNL     1       3.464   2.241  20.887  0.00  0.00    +0.000 S 
ATOM      8  C   UNL     1       4.512   2.527  19.491  0.00  0.00    +0.000 A 
ATOM      9  C   UNL     1       4.348   3.749  18.942  0.00  0.00    +0.000 A 
ATOM     10  N   UNL     1       3.385   4.478  19.623  0.00  0.00    +0.000 N 
ATOM     11  C   UNL     1       2.808   5.722  19.545  0.00  0.00    +0.000 A 
ATOM     12  C   UNL     1       2.969   6.812  18.677  0.00  0.00    +0.000 A 
ENDROOT
BRANCH   9  13
ATOM     13  C   UNL     1       5.114   4.210  17.791  0.00  0.00    +0.000 A 
ATOM     14  C   UNL     1       4.629   4.012  16.492  0.00  0.00    +0.000 A 
ATOM     15  C   UNL     1       5.385   4.412  15.386  0.00  0.00    +0.000 A 
ATOM     16  C   UNL     1       6.626   5.007  15.587  0.00  0.00    +0.000 A 
ATOM     17  C   UNL     1       7.115   5.222  16.870  0.00  0.00    +0.000 A 
ATOM     18  C   UNL     1       6.361   4.823  17.975  0.00  0.00    +0.000 A 
BRANCH  16  19
ATOM     19  O   UNL     1       7.410   5.390  14.539  0.00  0.00    +0.000 OA
ATOM     20  H   UNL     1       8.174   4.793  14.483  0.00  0.00    +0.000 HD
ENDBRANCH  16  19
ENDBRANCH   9  13
BRANCH   1  22
ATOM     21  O   UNL     1       1.856  10.201  18.476  0.00  0.00    +0.000 OA
ATOM     22  N   UNL     1       2.322   9.127  18.071  0.00  0.00    +0.000 N 
ATOM     23  O   UNL     1       2.892   8.975  16.982  0.00  0.00    +0.000 OA
ENDBRANCH   1  22
TORSDOF 3
ENDMDL
MODEL 4
REMARK VINA RESULT:      -6.9      3.052      4.545
REMARK  Name = 
REMARK  3 active torsions:
REMARK  status: ('A' for Active; 'I' for Inactive)
REMARK    1  A    between atoms: N_2  and  C_4
REMARK    2  A    between atoms: C_12  and  C_13
REMARK    3  A    between atoms: C_16  and  O_17
REMARK                            x       y       z     vdW  Elec       q    Type
REMARK                         _______ _______ _______ _____ _____    ______ ____
ROOT
ATOM      1  C   UNL     1       2.249   7.883  18.875  0.00  0.00    +0.000 A 
ATOM      2  C   UNL     1       1.326   7.959  19.929  0.00  0.00    +0.000 A 
ATOM      3  C   UNL     1       1.150   6.871  20.796  0.00  0.00    +0.000 A 
ATOM      4  C   UNL     1       1.912   5.708  20.599  0.00  0.00    +0.000 A 
ATOM      5  N   UNL     1       1.900   4.536  21.326  0.00  0.00    +0.000 NA
ATOM      6  C   UNL     1       2.794   3.806  20.721  0.00  0.00    +0.000 A 
ATOM      7  S   UNL     1       3.420   2.207  20.973  0.00  0.00    +0.000 S 
ATOM      8  C   UNL     1       4.501   2.450  19.593  0.00  0.00    +0.000 A 
ATOM      9  C   UNL     1       4.363   3.661  19.015  0.00  0.00    +0.000 A 
ATOM     10  N   UNL     1       3.393   4.416  19.658  0.00  0.00    +0.000 N 
ATOM     11  C   UNL     1       2.833   5.664  19.540  0.00  0.00    +0.000 A 
ATOM     12  C   UNL     1       3.025   6.732  18.652  0.00  0.00    +0.000 A 
ENDROOT
BRANCH   9  13
ATOM     13  C   UNL     1       5.158   4.088  17.870  0.00  0.00    +0.000 A 
ATOM     14  C   UNL     1       6.435   4.635  18.059  0.00  0.00    +0.000 A 
ATOM     15  C   UNL     1       7.179   5.086  16.965  0.00  0.00    +0.000 A 
ATOM     16  C   UNL     1       6.640   4.989  15.686  0.00  0.00    +0.000 A 
ATOM     17  C   UNL     1       5.381   4.437  15.482  0.00  0.00    +0.000 A 
ATOM     18  C   UNL     1       4.637   3.987  16.573  0.00  0.00    +0.000 A 
BRANCH  16  19
ATOM     19  O   UNL     1       7.318   5.440  14.593  0.00  0.00    +0.000 OA
ATOM     20  H   UNL     1       7.907   4.735  14.275  0.00  0.00    +0.000 HD
ENDBRANCH  16  19
ENDBRANCH   9  13
BRANCH   1  22
ATOM     21  O   UNL     1       1.925  10.120  18.336  0.00  0.00    +0.000 OA
ATOM     22  N   UNL     1       2.417   9.040  17.981  0.00  0.00    +0.000 N 
ATOM     23  O   UNL     1       3.039   8.865  16.924  0.00  0.00    +0.000 OA
ENDBRANCH   1  22
TORSDOF 3
ENDMDL
MODEL 5
REMARK VINA RESULT:      -6.6      3.658      6.703
REMARK  Name = 
REMARK  3 active torsions:
REMARK  status: ('A' for Active; 'I' for Inactive)
REMARK    1  A    between atoms: N_2  and  C_4
REMARK    2  A    between atoms: C_12  and  C_13
REMARK    3  A    between atoms: C_16  and  O_17
REMARK                            x       y       z     vdW  Elec       q    Type
REMARK                         _______ _______ _______ _____ _____    ______ ____
ROOT
ATOM      1  C   UNL     1       5.747   3.715  12.958  0.00  0.00    +0.000 A 
ATOM      2  C   UNL     1       6.897   4.312  12.420  0.00  0.00    +0.000 A 
ATOM      3  C   UNL     1       7.720   5.114  13.223  0.00  0.00    +0.000 A 
ATOM      4  C   UNL     1       7.381   5.309  14.572  0.00  0.00    +0.000 A 
ATOM      5  N   UNL     1       8.042   6.050  15.530  0.00  0.00    +0.000 NA
ATOM      6  C   UNL     1       7.306   5.882  16.591  0.00  0.00    +0.000 A 
ATOM      7  S   UNL     1       7.404   6.443  18.230  0.00  0.00    +0.000 S 
ATOM      8  C   UNL     1       5.930   5.534  18.594  0.00  0.00    +0.000 A 
ATOM      9  C   UNL     1       5.434   4.874  17.526  0.00  0.00    +0.000 A 
ATOM     10  N   UNL     1       6.217   5.081  16.401  0.00  0.00    +0.000 N 
ATOM     11  C   UNL     1       6.227   4.694  15.084  0.00  0.00    +0.000 A 
ATOM     12  C   UNL     1       5.380   3.893  14.304  0.00  0.00    +0.000 A 
ENDROOT
BRANCH   9  13
ATOM     13  C   UNL     1       4.233   4.050  17.592  0.00  0.00    +0.000 A 
ATOM     14  C   UNL     1       2.964   4.642  17.544  0.00  0.00    +0.000 A 
ATOM     15  C   UNL     1       1.814   3.855  17.654  0.00  0.00    +0.000 A 
ATOM     16  C   UNL     1       1.940   2.480  17.815  0.00  0.00    +0.000 A 
ATOM     17  C   UNL     1       3.191   1.877  17.852  0.00  0.00    +0.000 A 
ATOM     18  C   UNL     1       4.341   2.661  17.742  0.00  0.00    +0.000 A 
BRANCH  16  19
ATOM     19  O   UNL     1       0.847   1.676  17.952  0.00  0.00    +0.000 OA
ATOM     20  H   UNL     1       0.725   1.468  18.894  0.00  0.00    +0.000 HD
ENDBRANCH  16  19
ENDBRANCH   9  13
BRANCH   1  22
ATOM     21  O   UNL     1       5.395   1.831  11.643  0.00  0.00    +0.000 OA
ATOM     22  N   UNL     1       4.901   2.874  12.095  0.00  0.00    +0.000 N 
ATOM     23  O   UNL     1       3.746   3.261  11.868  0.00  0.00    +0.000 OA
ENDBRANCH   1  22
TORSDOF 3
ENDMDL
MODEL 6
REMARK VINA RESULT:      -6.5      3.585      5.993
REMARK  Name = 
REMARK  3 active torsions:
REMARK  status: ('A' for Active; 'I' for Inactive)
REMARK    1  A    between atoms: N_2  and  C_4
REMARK    2  A    between atoms: C_12  and  C_13
REMARK    3  A    between atoms: C_16  and  O_17
REMARK                            x       y       z     vdW  Elec       q    Type
REMARK                         _______ _______ _______ _____ _____    ______ ____
ROOT
ATOM      1  C   UNL     1       6.933   6.746  17.555  0.00  0.00    +0.000 A 
ATOM      2  C   UNL     1       7.674   5.686  17.013  0.00  0.00    +0.000 A 
ATOM      3  C   UNL     1       7.066   4.444  16.779  0.00  0.00    +0.000 A 
ATOM      4  C   UNL     1       5.707   4.277  17.091  0.00  0.00    +0.000 A 
ATOM      5  N   UNL     1       4.918   3.155  16.943  0.00  0.00    +0.000 NA
ATOM      6  C   UNL     1       3.756   3.553  17.375  0.00  0.00    +0.000 A 
ATOM      7  S   UNL     1       2.202   2.796  17.535  0.00  0.00    +0.000 S 
ATOM      8  C   UNL     1       1.562   4.321  18.164  0.00  0.00    +0.000 A 
ATOM      9  C   UNL     1       2.489   5.299  18.233  0.00  0.00    +0.000 A 
ATOM     10  N   UNL     1       3.723   4.853  17.789  0.00  0.00    +0.000 N 
ATOM     11  C   UNL     1       4.990   5.359  17.627  0.00  0.00    +0.000 A 
ATOM     12  C   UNL     1       5.571   6.610  17.880  0.00  0.00    +0.000 A 
ENDROOT
BRANCH   9  13
ATOM     13  C   UNL     1       2.186   6.644  18.708  0.00  0.00    +0.000 A 
ATOM     14  C   UNL     1       1.946   6.877  20.069  0.00  0.00    +0.000 A 
ATOM     15  C   UNL     1       1.611   8.158  20.518  0.00  0.00    +0.000 A 
ATOM     16  C   UNL     1       1.513   9.199  19.601  0.00  0.00    +0.000 A 
ATOM     17  C   UNL     1       1.761   8.986  18.250  0.00  0.00    +0.000 A 
ATOM     18  C   UNL     1       2.095   7.708  17.801  0.00  0.00    +0.000 A 
BRANCH  16  19
ATOM     19  O   UNL     1       1.163  10.458  19.989  0.00  0.00    +0.000 OA
ATOM     20  H   UNL     1       0.420  10.762  19.442  0.00  0.00    +0.000 HD
ENDBRANCH  16  19
ENDBRANCH   9  13
BRANCH   1  22
ATOM     21  O   UNL     1       7.183   9.021  17.152  0.00  0.00    +0.000 OA
ATOM     22  N   UNL     1       7.594   8.041  17.788  0.00  0.00    +0.000 N 
ATOM     23  O   UNL     1       8.526   8.074  18.604  0.00  0.00    +0.000 OA
ENDBRANCH   1  22
TORSDOF 3
ENDMDL
MODEL 7
REMARK VINA RESULT:      -6.2      3.404      4.929
REMARK  Name = 
REMARK  3 active torsions:
REMARK  status: ('A' for Active; 'I' for Inactive)
REMARK    1  A    between atoms: N_2  and  C_4
REMARK    2  A    between atoms: C_12  and  C_13
REMARK    3  A    between atoms: C_16  and  O_17
REMARK                            x       y       z     vdW  Elec       q    Type
REMARK                         _______ _______ _______ _____ _____    ______ ____
ROOT
ATOM      1  C   UNL     1       2.007   2.861  19.346  0.00  0.00    +0.000 A 
ATOM      2  C   UNL     1       2.711   1.751  18.859  0.00  0.00    +0.000 A 
ATOM      3  C   UNL     1       3.752   1.921  17.935  0.00  0.00    +0.000 A 
ATOM      4  C   UNL     1       4.082   3.217  17.507  0.00  0.00    +0.000 A 
ATOM      5  N   UNL     1       5.060   3.609  16.616  0.00  0.00    +0.000 NA
ATOM      6  C   UNL     1       4.934   4.905  16.593  0.00  0.00    +0.000 A 
ATOM      7  S   UNL     1       5.758   6.183  15.757  0.00  0.00    +0.000 S 
ATOM      8  C   UNL     1       4.711   7.349  16.579  0.00  0.00    +0.000 A 
ATOM      9  C   UNL     1       3.820   6.770  17.411  0.00  0.00    +0.000 A 
ATOM     10  N   UNL     1       3.953   5.390  17.407  0.00  0.00    +0.000 N 
ATOM     11  C   UNL     1       3.364   4.310  18.017  0.00  0.00    +0.000 A 
ATOM     12  C   UNL     1       2.313   4.171  18.935  0.00  0.00    +0.000 A 
ENDROOT
BRANCH   9  13
ATOM     13  C   UNL     1       2.865   7.535  18.204  0.00  0.00    +0.000 A 
ATOM     14  C   UNL     1       2.206   8.640  17.647  0.00  0.00    +0.000 A 
ATOM     15  C   UNL     1       1.325   9.400  18.422  0.00  0.00    +0.000 A 
ATOM     16  C   UNL     1       1.110   9.053  19.751  0.00  0.00    +0.000 A 
ATOM     17  C   UNL     1       1.745   7.952  20.313  0.00  0.00    +0.000 A 
ATOM     18  C   UNL     1       2.625   7.192  19.541  0.00  0.00    +0.000 A 
BRANCH  16  19
ATOM     19  O   UNL     1       0.280   9.780  20.551  0.00  0.00    +0.000 OA
ATOM     20  H   UNL     1       0.814  10.386  21.091  0.00  0.00    +0.000 HD
ENDBRANCH  16  19
ENDBRANCH   9  13
BRANCH   1  22
ATOM     21  O   UNL     1      -0.238   2.597  19.885  0.00  0.00    +0.000 OA
ATOM     22  N   UNL     1       0.921   2.656  20.319  0.00  0.00    +0.000 N 
ATOM     23  O   UNL     1       1.229   2.559  21.514  0.00  0.00    +0.000 OA
ENDBRANCH   1  22
TORSDOF 3
ENDMDL
MODEL 8
REMARK VINA RESULT:      -6.2      3.581      5.991
REMARK  Name = 
REMARK  3 active torsions:
REMARK  status: ('A' for Active; 'I' for Inactive)
REMARK    1  A    between atoms: N_2  and  C_4
REMARK    2  A    between atoms: C_12  and  C_13
REMARK    3  A    between atoms: C_16  and  O_17
REMARK                            x       y       z     vdW  Elec       q    Type
REMARK                         _______ _______ _______ _____ _____    ______ ____
ROOT
ATOM      1  C   UNL     1       6.888   6.722  17.553  0.00  0.00    +0.000 A 
ATOM      2  C   UNL     1       7.649   5.673  17.017  0.00  0.00    +0.000 A 
ATOM      3  C   UNL     1       7.066   4.417  16.793  0.00  0.00    +0.000 A 
ATOM      4  C   UNL     1       5.711   4.225  17.108  0.00  0.00    +0.000 A 
ATOM      5  N   UNL     1       4.945   3.086  16.969  0.00  0.00    +0.000 NA
ATOM      6  C   UNL     1       3.775   3.464  17.400  0.00  0.00    +0.000 A 
ATOM      7  S   UNL     1       2.238   2.676  17.567  0.00  0.00    +0.000 S 
ATOM      8  C   UNL     1       1.567   4.192  18.186  0.00  0.00    +0.000 A 
ATOM      9  C   UNL     1       2.474   5.190  18.248  0.00  0.00    +0.000 A 
ATOM     10  N   UNL     1       3.717   4.765  17.805  0.00  0.00    +0.000 N 
ATOM     11  C   UNL     1       4.972   5.296  17.638  0.00  0.00    +0.000 A 
ATOM     12  C   UNL     1       5.529   6.560  17.880  0.00  0.00    +0.000 A 
ENDROOT
BRANCH   9  13
ATOM     13  C   UNL     1       2.144   6.531  18.714  0.00  0.00    +0.000 A 
ATOM     14  C   UNL     1       2.099   7.603  17.812  0.00  0.00    +0.000 A 
ATOM     15  C   UNL     1       1.828   8.897  18.267  0.00  0.00    +0.000 A 
ATOM     16  C   UNL     1       1.607   9.112  19.623  0.00  0.00    +0.000 A 
ATOM     17  C   UNL     1       1.635   8.057  20.527  0.00  0.00    +0.000 A 
ATOM     18  C   UNL     1       1.906   6.765  20.075  0.00  0.00    +0.000 A 
BRANCH  16  19
ATOM     19  O   UNL     1       1.365  10.361  20.115  0.00  0.00    +0.000 OA
ATOM     20  H   UNL     1       0.785  10.836  19.497  0.00  0.00    +0.000 HD
ENDBRANCH  16  19
ENDBRANCH   9  13
BRANCH   1  22
ATOM     21  O   UNL     1       7.075   9.003  17.152  0.00  0.00    +0.000 OA
ATOM     22  N   UNL     1       7.522   8.031  17.776  0.00  0.00    +0.000 N 
ATOM     23  O   UNL     1       8.470   8.084  18.573  0.00  0.00    +0.000 OA
ENDBRANCH   1  22
TORSDOF 3
ENDMDL
MODEL 9
REMARK VINA RESULT:      -6.2      3.406      4.908
REMARK  Name = 
REMARK  3 active torsions:
REMARK  status: ('A' for Active; 'I' for Inactive)
REMARK    1  A    between atoms: N_2  and  C_4
REMARK    2  A    between atoms: C_12  and  C_13
REMARK    3  A    between atoms: C_16  and  O_17
REMARK                            x       y       z     vdW  Elec       q    Type
REMARK                         _______ _______ _______ _____ _____    ______ ____
ROOT
ATOM      1  C   UNL     1       2.004   2.880  19.358  0.00  0.00    +0.000 A 
ATOM      2  C   UNL     1       2.680   1.755  18.863  0.00  0.00    +0.000 A 
ATOM      3  C   UNL     1       3.712   1.904  17.925  0.00  0.00    +0.000 A 
ATOM      4  C   UNL     1       4.064   3.193  17.493  0.00  0.00    +0.000 A 
ATOM      5  N   UNL     1       5.038   3.564  16.589  0.00  0.00    +0.000 NA
ATOM      6  C   UNL     1       4.939   4.863  16.567  0.00  0.00    +0.000 A 
ATOM      7  S   UNL     1       5.778   6.124  15.720  0.00  0.00    +0.000 S 
ATOM      8  C   UNL     1       4.765   7.311  16.555  0.00  0.00    +0.000 A 
ATOM      9  C   UNL     1       3.872   6.751  17.398  0.00  0.00    +0.000 A 
ATOM     10  N   UNL     1       3.978   5.369  17.393  0.00  0.00    +0.000 N 
ATOM     11  C   UNL     1       3.374   4.301  18.011  0.00  0.00    +0.000 A 
ATOM     12  C   UNL     1       2.332   4.184  18.942  0.00  0.00    +0.000 A 
ENDROOT
BRANCH   9  13
ATOM     13  C   UNL     1       2.943   7.535  18.202  0.00  0.00    +0.000 A 
ATOM     14  C   UNL     1       2.682   7.179  19.532  0.00  0.00    +0.000 A 
ATOM     15  C   UNL     1       1.757   7.904  20.289  0.00  0.00    +0.000 A 
ATOM     16  C   UNL     1       1.093   8.980  19.708  0.00  0.00    +0.000 A 
ATOM     17  C   UNL     1       1.351   9.353  18.395  0.00  0.00    +0.000 A 
ATOM     18  C   UNL     1       2.275   8.630  17.638  0.00  0.00    +0.000 A 
BRANCH  16  19
ATOM     19  O   UNL     1       0.164   9.699  20.399  0.00  0.00    +0.000 OA
ATOM     20  H   UNL     1      -0.561   9.107  20.662  0.00  0.00    +0.000 HD
ENDBRANCH  16  19
ENDBRANCH   9  13
BRANCH   1  22
ATOM     21  O   UNL     1      -0.238   2.652  19.923  0.00  0.00    +0.000 OA
ATOM     22  N   UNL     1       0.926   2.697  20.343  0.00  0.00    +0.000 N 
ATOM     23  O   UNL     1       1.247   2.603  21.536  0.00  0.00    +0.000 OA
ENDBRANCH   1  22
TORSDOF 3
ENDMDL
