MODEL 1
REMARK VINA RESULT:      -5.9      0.000      0.000
REMARK  Name = 
REMARK  13 active torsions:
REMARK  status: ('A' for Active; 'I' for Inactive)
REMARK    1  A    between atoms: N_1  and  C_2
REMARK    2  A    between atoms: C_2  and  C_3
REMARK    3  A    between atoms: C_2  and  C_8
REMARK    4  A    between atoms: C_2  and  C_13
REMARK    5  A    between atoms: C_3  and  C_4
REMARK    6  A    between atoms: C_4  and  C_5
REMARK    7  A    between atoms: C_5  and  O_7
REMARK    8  A    between atoms: C_8  and  C_9
REMARK    9  A    between atoms: C_9  and  C_10
REMARK   10  A    between atoms: C_10  and  O_12
REMARK   11  A    between atoms: C_13  and  C_14
REMARK   12  A    between atoms: C_14  and  C_15
REMARK   13  A    between atoms: C_15  and  O_17
REMARK                            x       y       z     vdW  Elec       q    Type
REMARK                         _______ _______ _______ _____ _____    ______ ____
ROOT
ATOM      1  C   UNL     1       3.188   5.305  18.459  0.00  0.00    +0.000 C 
ENDROOT
BRANCH   1   2
ATOM      2  N   UNL     1       2.813   6.722  18.374  0.00  0.00    +0.000 NA
ATOM      3  H   UNL     1       1.849   6.861  18.675  0.00  0.00    +0.000 HD
ATOM      4  H   UNL     1       2.848   7.049  17.410  0.00  0.00    +0.000 HD
ENDBRANCH   1   2
BRANCH   1   5
ATOM      5  C   UNL     1       4.520   5.090  17.677  0.00  0.00    +0.000 C 
BRANCH   5   6
ATOM      6  C   UNL     1       5.695   5.992  18.084  0.00  0.00    +0.000 C 
BRANCH   6   7
ATOM      7  C   UNL     1       6.767   5.219  18.813  0.00  0.00    +0.000 C 
ATOM      8  O   UNL     1       7.154   5.442  19.950  0.00  0.00    +0.000 OA
BRANCH   7   9
ATOM      9  O   UNL     1       7.278   4.216  18.060  0.00  0.00    +0.000 OA
ATOM     10  H   UNL     1       7.573   4.499  17.173  0.00  0.00    +0.000 HD
ENDBRANCH   7   9
ENDBRANCH   6   7
ENDBRANCH   5   6
ENDBRANCH   1   5
BRANCH   1  11
ATOM     11  C   UNL     1       3.378   4.889  19.947  0.00  0.00    +0.000 C 
BRANCH  11  12
ATOM     12  C   UNL     1       2.117   4.895  20.822  0.00  0.00    +0.000 C 
BRANCH  12  13
ATOM     13  C   UNL     1       1.830   3.514  21.368  0.00  0.00    +0.000 C 
ATOM     14  O   UNL     1       2.538   2.930  22.170  0.00  0.00    +0.000 OA
BRANCH  13  15
ATOM     15  O   UNL     1       0.664   3.001  20.918  0.00  0.00    +0.000 OA
ATOM     16  H   UNL     1       0.308   3.435  20.119  0.00  0.00    +0.000 HD
ENDBRANCH  13  15
ENDBRANCH  12  13
ENDBRANCH  11  12
ENDBRANCH   1  11
BRANCH   1  17
ATOM     17  C   UNL     1       2.051   4.460  17.811  0.00  0.00    +0.000 C 
BRANCH  17  18
ATOM     18  C   UNL     1       2.499   3.176  17.099  0.00  0.00    +0.000 C 
BRANCH  18  19
ATOM     19  C   UNL     1       2.551   2.005  18.054  0.00  0.00    +0.000 C 
ATOM     20  O   UNL     1       3.567   1.441  18.425  0.00  0.00    +0.000 OA
BRANCH  19  21
ATOM     21  O   UNL     1       1.320   1.636  18.478  0.00  0.00    +0.000 OA
ATOM     22  H   UNL     1       1.337   0.977  19.199  0.00  0.00    +0.000 HD
ENDBRANCH  19  21
ENDBRANCH  18  19
ENDBRANCH  17  18
ENDBRANCH   1  17
TORSDOF 13
ENDMDL
MODEL 2
REMARK VINA RESULT:      -5.8      2.293      4.206
REMARK  Name = 
REMARK  13 active torsions:
REMARK  status: ('A' for Active; 'I' for Inactive)
REMARK    1  A    between atoms: N_1  and  C_2
REMARK    2  A    between atoms: C_2  and  C_3
REMARK    3  A    between atoms: C_2  and  C_8
REMARK    4  A    between atoms: C_2  and  C_13
REMARK    5  A    between atoms: C_3  and  C_4
REMARK    6  A    between atoms: C_4  and  C_5
REMARK    7  A    between atoms: C_5  and  O_7
REMARK    8  A    between atoms: C_8  and  C_9
REMARK    9  A    between atoms: C_9  and  C_10
REMARK   10  A    between atoms: C_10  and  O_12
REMARK   11  A    between atoms: C_13  and  C_14
REMARK   12  A    between atoms: C_14  and  C_15
REMARK   13  A    between atoms: C_15  and  O_17
REMARK                            x       y       z     vdW  Elec       q    Type
REMARK                         _______ _______ _______ _____ _____    ______ ____
ROOT
ATOM      1  C   UNL     1       4.302   4.183  17.646  0.00  0.00    +0.000 C 
ENDROOT
BRANCH   1   2
ATOM      2  N   UNL     1       4.296   2.719  17.543  0.00  0.00    +0.000 NA
ATOM      3  H   UNL     1       3.345   2.355  17.588  0.00  0.00    +0.000 HD
ATOM      4  H   UNL     1       4.787   2.297  18.330  0.00  0.00    +0.000 HD
ENDBRANCH   1   2
BRANCH   1   5
ATOM      5  C   UNL     1       4.957   4.774  16.360  0.00  0.00    +0.000 C 
BRANCH   5   6
ATOM      6  C   UNL     1       5.778   3.795  15.508  0.00  0.00    +0.000 C 
BRANCH   6   7
ATOM      7  C   UNL     1       6.714   4.517  14.569  0.00  0.00    +0.000 C 
ATOM      8  O   UNL     1       6.784   4.340  13.363  0.00  0.00    +0.000 OA
BRANCH   7   9
ATOM      9  O   UNL     1       7.495   5.416  15.214  0.00  0.00    +0.000 OA
ATOM     10  H   UNL     1       8.311   5.648  14.732  0.00  0.00    +0.000 HD
ENDBRANCH   7   9
ENDBRANCH   6   7
ENDBRANCH   5   6
ENDBRANCH   1   5
BRANCH   1  11
ATOM     11  C   UNL     1       2.846   4.715  17.787  0.00  0.00    +0.000 C 
BRANCH  11  12
ATOM     12  C   UNL     1       2.206   4.585  19.175  0.00  0.00    +0.000 C 
BRANCH  12  13
ATOM     13  C   UNL     1       1.280   3.390  19.235  0.00  0.00    +0.000 C 
ATOM     14  O   UNL     1       1.277   2.479  18.425  0.00  0.00    +0.000 OA
BRANCH  13  15
ATOM     15  O   UNL     1       0.478   3.399  20.322  0.00  0.00    +0.000 OA
ATOM     16  H   UNL     1      -0.303   3.982  20.250  0.00  0.00    +0.000 HD
ENDBRANCH  13  15
ENDBRANCH  12  13
ENDBRANCH  11  12
ENDBRANCH   1  11
BRANCH   1  17
ATOM     17  C   UNL     1       5.139   4.581  18.898  0.00  0.00    +0.000 C 
BRANCH  17  18
ATOM     18  C   UNL     1       6.189   5.678  18.676  0.00  0.00    +0.000 C 
BRANCH  18  19
ATOM     19  C   UNL     1       7.593   5.127  18.784  0.00  0.00    +0.000 C 
ATOM     20  O   UNL     1       8.141   4.422  17.951  0.00  0.00    +0.000 OA
BRANCH  19  21
ATOM     21  O   UNL     1       8.206   5.509  19.928  0.00  0.00    +0.000 OA
ATOM     22  H   UNL     1       7.845   6.334  20.307  0.00  0.00    +0.000 HD
ENDBRANCH  19  21
ENDBRANCH  18  19
ENDBRANCH  17  18
ENDBRANCH   1  17
TORSDOF 13
ENDMDL
MODEL 3
REMARK VINA RESULT:      -5.8      2.211      4.628
REMARK  Name = 
REMARK  13 active torsions:
REMARK  status: ('A' for Active; 'I' for Inactive)
REMARK    1  A    between atoms: N_1  and  C_2
REMARK    2  A    between atoms: C_2  and  C_3
REMARK    3  A    between atoms: C_2  and  C_8
REMARK    4  A    between atoms: C_2  and  C_13
REMARK    5  A    between atoms: C_3  and  C_4
REMARK    6  A    between atoms: C_4  and  C_5
REMARK    7  A    between atoms: C_5  and  O_7
REMARK    8  A    between atoms: C_8  and  C_9
REMARK    9  A    between atoms: C_9  and  C_10
REMARK   10  A    between atoms: C_10  and  O_12
REMARK   11  A    between atoms: C_13  and  C_14
REMARK   12  A    between atoms: C_14  and  C_15
REMARK   13  A    between atoms: C_15  and  O_17
REMARK                            x       y       z     vdW  Elec       q    Type
REMARK                         _______ _______ _______ _____ _____    ______ ____
ROOT
ATOM      1  C   UNL     1       4.292   4.049  17.731  0.00  0.00    +0.000 C 
ENDROOT
BRANCH   1   2
ATOM      2  N   UNL     1       4.759   2.978  18.620  0.00  0.00    +0.000 NA
ATOM      3  H   UNL     1       5.654   3.222  19.043  0.00  0.00    +0.000 HD
ATOM      4  H   UNL     1       4.928   2.120  18.096  0.00  0.00    +0.000 HD
ENDBRANCH   1   2
BRANCH   1   5
ATOM      5  C   UNL     1       4.764   5.420  18.306  0.00  0.00    +0.000 C 
BRANCH   5   6
ATOM      6  C   UNL     1       5.963   5.374  19.265  0.00  0.00    +0.000 C 
BRANCH   6   7
ATOM      7  C   UNL     1       7.274   5.505  18.528  0.00  0.00    +0.000 C 
ATOM      8  O   UNL     1       7.823   6.557  18.238  0.00  0.00    +0.000 OA
BRANCH   7   9
ATOM      9  O   UNL     1       7.805   4.301  18.208  0.00  0.00    +0.000 OA
ATOM     10  H   UNL     1       8.040   4.210  17.265  0.00  0.00    +0.000 HD
ENDBRANCH   7   9
ENDBRANCH   6   7
ENDBRANCH   5   6
ENDBRANCH   1   5
BRANCH   1  11
ATOM     11  C   UNL     1       4.874   3.850  16.301  0.00  0.00    +0.000 C 
BRANCH  11  12
ATOM     12  C   UNL     1       5.339   5.119  15.573  0.00  0.00    +0.000 C 
BRANCH  12  13
ATOM     13  C   UNL     1       6.579   4.847  14.750  0.00  0.00    +0.000 C 
ATOM     14  O   UNL     1       6.600   4.164  13.741  0.00  0.00    +0.000 OA
BRANCH  13  15
ATOM     15  O   UNL     1       7.672   5.492  15.215  0.00  0.00    +0.000 OA
ATOM     16  H   UNL     1       7.762   6.416  14.912  0.00  0.00    +0.000 HD
ENDBRANCH  13  15
ENDBRANCH  12  13
ENDBRANCH  11  12
ENDBRANCH   1  11
BRANCH   1  17
ATOM     17  C   UNL     1       2.736   4.002  17.685  0.00  0.00    +0.000 C 
BRANCH  17  18
ATOM     18  C   UNL     1       2.011   4.858  18.733  0.00  0.00    +0.000 C 
BRANCH  18  19
ATOM     19  C   UNL     1       1.806   4.095  20.022  0.00  0.00    +0.000 C 
ATOM     20  O   UNL     1       2.692   3.751  20.787  0.00  0.00    +0.000 OA
BRANCH  19  21
ATOM     21  O   UNL     1       0.501   3.827  20.255  0.00  0.00    +0.000 OA
ATOM     22  H   UNL     1      -0.003   4.597  20.583  0.00  0.00    +0.000 HD
ENDBRANCH  19  21
ENDBRANCH  18  19
ENDBRANCH  17  18
ENDBRANCH   1  17
TORSDOF 13
ENDMDL
MODEL 4
REMARK VINA RESULT:      -5.8      2.077      3.911
REMARK  Name = 
REMARK  13 active torsions:
REMARK  status: ('A' for Active; 'I' for Inactive)
REMARK    1  A    between atoms: N_1  and  C_2
REMARK    2  A    between atoms: C_2  and  C_3
REMARK    3  A    between atoms: C_2  and  C_8
REMARK    4  A    between atoms: C_2  and  C_13
REMARK    5  A    between atoms: C_3  and  C_4
REMARK    6  A    between atoms: C_4  and  C_5
REMARK    7  A    between atoms: C_5  and  O_7
REMARK    8  A    between atoms: C_8  and  C_9
REMARK    9  A    between atoms: C_9  and  C_10
REMARK   10  A    between atoms: C_10  and  O_12
REMARK   11  A    between atoms: C_13  and  C_14
REMARK   12  A    between atoms: C_14  and  C_15
REMARK   13  A    between atoms: C_15  and  O_17
REMARK                            x       y       z     vdW  Elec       q    Type
REMARK                         _______ _______ _______ _____ _____    ______ ____
ROOT
ATOM      1  C   UNL     1       4.223   4.162  18.024  0.00  0.00    +0.000 C 
ENDROOT
BRANCH   1   2
ATOM      2  N   UNL     1       4.811   3.059  18.792  0.00  0.00    +0.000 NA
ATOM      3  H   UNL     1       5.737   2.823  18.438  0.00  0.00    +0.000 HD
ATOM      4  H   UNL     1       4.256   2.210  18.692  0.00  0.00    +0.000 HD
ENDBRANCH   1   2
BRANCH   1   5
ATOM      5  C   UNL     1       4.559   3.959  16.515  0.00  0.00    +0.000 C 
BRANCH   5   6
ATOM      6  C   UNL     1       5.162   5.170  15.788  0.00  0.00    +0.000 C 
BRANCH   6   7
ATOM      7  C   UNL     1       6.412   4.801  15.027  0.00  0.00    +0.000 C 
ATOM      8  O   UNL     1       6.499   3.912  14.193  0.00  0.00    +0.000 OA
BRANCH   7   9
ATOM      9  O   UNL     1       7.468   5.578  15.367  0.00  0.00    +0.000 OA
ATOM     10  H   UNL     1       7.831   5.385  16.253  0.00  0.00    +0.000 HD
ENDBRANCH   7   9
ENDBRANCH   6   7
ENDBRANCH   5   6
ENDBRANCH   1   5
BRANCH   1  11
ATOM     11  C   UNL     1       2.678   4.187  18.220  0.00  0.00    +0.000 C 
BRANCH  11  12
ATOM     12  C   UNL     1       2.156   5.001  19.412  0.00  0.00    +0.000 C 
BRANCH  12  13
ATOM     13  C   UNL     1       1.661   4.091  20.514  0.00  0.00    +0.000 C 
ATOM     14  O   UNL     1       2.184   3.987  21.610  0.00  0.00    +0.000 OA
BRANCH  13  15
ATOM     15  O   UNL     1       0.528   3.432  20.184  0.00  0.00    +0.000 OA
ATOM     16  H   UNL     1      -0.193   3.505  20.839  0.00  0.00    +0.000 HD
ENDBRANCH  13  15
ENDBRANCH  12  13
ENDBRANCH  11  12
ENDBRANCH   1  11
BRANCH   1  17
ATOM     17  C   UNL     1       4.845   5.497  18.531  0.00  0.00    +0.000 C 
BRANCH  17  18
ATOM     18  C   UNL     1       6.091   5.357  19.417  0.00  0.00    +0.000 C 
BRANCH  18  19
ATOM     19  C   UNL     1       7.361   5.478  18.606  0.00  0.00    +0.000 C 
ATOM     20  O   UNL     1       7.947   6.520  18.362  0.00  0.00    +0.000 OA
BRANCH  19  21
ATOM     21  O   UNL     1       7.803   4.277  18.168  0.00  0.00    +0.000 OA
ATOM     22  H   UNL     1       7.096   3.607  18.083  0.00  0.00    +0.000 HD
ENDBRANCH  19  21
ENDBRANCH  18  19
ENDBRANCH  17  18
ENDBRANCH   1  17
TORSDOF 13
ENDMDL
MODEL 5
REMARK VINA RESULT:      -5.8      2.167      4.178
REMARK  Name = 
REMARK  13 active torsions:
REMARK  status: ('A' for Active; 'I' for Inactive)
REMARK    1  A    between atoms: N_1  and  C_2
REMARK    2  A    between atoms: C_2  and  C_3
REMARK    3  A    between atoms: C_2  and  C_8
REMARK    4  A    between atoms: C_2  and  C_13
REMARK    5  A    between atoms: C_3  and  C_4
REMARK    6  A    between atoms: C_4  and  C_5
REMARK    7  A    between atoms: C_5  and  O_7
REMARK    8  A    between atoms: C_8  and  C_9
REMARK    9  A    between atoms: C_9  and  C_10
REMARK   10  A    between atoms: C_10  and  O_12
REMARK   11  A    between atoms: C_13  and  C_14
REMARK   12  A    between atoms: C_14  and  C_15
REMARK   13  A    between atoms: C_15  and  O_17
REMARK                            x       y       z     vdW  Elec       q    Type
REMARK                         _______ _______ _______ _____ _____    ______ ____
ROOT
ATOM      1  C   UNL     1       4.538   4.164  17.576  0.00  0.00    +0.000 C 
ENDROOT
BRANCH   1   2
ATOM      2  N   UNL     1       4.931   3.055  18.454  0.00  0.00    +0.000 NA
ATOM      3  H   UNL     1       4.153   2.411  18.596  0.00  0.00    +0.000 HD
ATOM      4  H   UNL     1       5.176   3.397  19.382  0.00  0.00    +0.000 HD
ENDBRANCH   1   2
BRANCH   1   5
ATOM      5  C   UNL     1       5.116   3.905  16.151  0.00  0.00    +0.000 C 
BRANCH   5   6
ATOM      6  C   UNL     1       5.647   5.137  15.403  0.00  0.00    +0.000 C 
BRANCH   6   7
ATOM      7  C   UNL     1       7.125   5.025  15.118  0.00  0.00    +0.000 C 
ATOM      8  O   UNL     1       7.685   5.424  14.108  0.00  0.00    +0.000 OA
BRANCH   7   9
ATOM      9  O   UNL     1       7.797   4.420  16.125  0.00  0.00    +0.000 OA
ATOM     10  H   UNL     1       8.371   3.686  15.833  0.00  0.00    +0.000 HD
ENDBRANCH   7   9
ENDBRANCH   6   7
ENDBRANCH   5   6
ENDBRANCH   1   5
BRANCH   1  11
ATOM     11  C   UNL     1       2.986   4.264  17.503  0.00  0.00    +0.000 C 
BRANCH  11  12
ATOM     12  C   UNL     1       2.292   4.952  18.687  0.00  0.00    +0.000 C 
BRANCH  12  13
ATOM     13  C   UNL     1       1.549   3.946  19.538  0.00  0.00    +0.000 C 
ATOM     14  O   UNL     1       0.673   4.232  20.336  0.00  0.00    +0.000 OA
BRANCH  13  15
ATOM     15  O   UNL     1       1.914   2.670  19.286  0.00  0.00    +0.000 OA
ATOM     16  H   UNL     1       2.497   2.557  18.510  0.00  0.00    +0.000 HD
ENDBRANCH  13  15
ENDBRANCH  12  13
ENDBRANCH  11  12
ENDBRANCH   1  11
BRANCH   1  17
ATOM     17  C   UNL     1       5.130   5.481  18.157  0.00  0.00    +0.000 C 
BRANCH  17  18
ATOM     18  C   UNL     1       6.049   5.318  19.376  0.00  0.00    +0.000 C 
BRANCH  18  19
ATOM     19  C   UNL     1       7.431   5.865  19.101  0.00  0.00    +0.000 C 
ATOM     20  O   UNL     1       7.722   6.629  18.195  0.00  0.00    +0.000 OA
BRANCH  19  21
ATOM     21  O   UNL     1       8.345   5.414  19.992  0.00  0.00    +0.000 OA
ATOM     22  H   UNL     1       8.984   4.781  19.609  0.00  0.00    +0.000 HD
ENDBRANCH  19  21
ENDBRANCH  18  19
ENDBRANCH  17  18
ENDBRANCH   1  17
TORSDOF 13
ENDMDL
MODEL 6
REMARK VINA RESULT:      -5.7      0.743      4.698
REMARK  Name = 
REMARK  13 active torsions:
REMARK  status: ('A' for Active; 'I' for Inactive)
REMARK    1  A    between atoms: N_1  and  C_2
REMARK    2  A    between atoms: C_2  and  C_3
REMARK    3  A    between atoms: C_2  and  C_8
REMARK    4  A    between atoms: C_2  and  C_13
REMARK    5  A    between atoms: C_3  and  C_4
REMARK    6  A    between atoms: C_4  and  C_5
REMARK    7  A    between atoms: C_5  and  O_7
REMARK    8  A    between atoms: C_8  and  C_9
REMARK    9  A    between atoms: C_9  and  C_10
REMARK   10  A    between atoms: C_10  and  O_12
REMARK   11  A    between atoms: C_13  and  C_14
REMARK   12  A    between atoms: C_14  and  C_15
REMARK   13  A    between atoms: C_15  and  O_17
REMARK                            x       y       z     vdW  Elec       q    Type
REMARK                         _______ _______ _______ _____ _____    ______ ____
ROOT
ATOM      1  C   UNL     1       3.228   5.523  18.729  0.00  0.00    +0.000 C 
ENDROOT
BRANCH   1   2
ATOM      2  N   UNL     1       2.613   6.846  18.888  0.00  0.00    +0.000 NA
ATOM      3  H   UNL     1       1.602   6.795  18.761  0.00  0.00    +0.000 HD
ATOM      4  H   UNL     1       2.946   7.490  18.171  0.00  0.00    +0.000 HD
ENDBRANCH   1   2
BRANCH   1   5
ATOM      5  C   UNL     1       3.311   4.836  20.126  0.00  0.00    +0.000 C 
BRANCH   5   6
ATOM      6  C   UNL     1       2.022   4.847  20.962  0.00  0.00    +0.000 C 
BRANCH   6   7
ATOM      7  C   UNL     1       1.536   3.448  21.259  0.00  0.00    +0.000 C 
ATOM      8  O   UNL     1       1.990   2.707  22.117  0.00  0.00    +0.000 OA
BRANCH   7   9
ATOM      9  O   UNL     1       0.511   3.080  20.454  0.00  0.00    +0.000 OA
ATOM     10  H   UNL     1      -0.103   3.808  20.239  0.00  0.00    +0.000 HD
ENDBRANCH   7   9
ENDBRANCH   6   7
ENDBRANCH   5   6
ENDBRANCH   1   5
BRANCH   1  11
ATOM     11  C   UNL     1       2.375   4.649  17.763  0.00  0.00    +0.000 C 
BRANCH  11  12
ATOM     12  C   UNL     1       3.084   3.444  17.130  0.00  0.00    +0.000 C 
BRANCH  12  13
ATOM     13  C   UNL     1       2.773   2.172  17.889  0.00  0.00    +0.000 C 
ATOM     14  O   UNL     1       3.614   1.444  18.388  0.00  0.00    +0.000 OA
BRANCH  13  15
ATOM     15  O   UNL     1       1.448   1.943  18.012  0.00  0.00    +0.000 OA
ATOM     16  H   UNL     1       1.110   1.199  17.477  0.00  0.00    +0.000 HD
ENDBRANCH  13  15
ENDBRANCH  12  13
ENDBRANCH  11  12
ENDBRANCH   1  11
BRANCH   1  17
ATOM     17  C   UNL     1       4.660   5.717  18.147  0.00  0.00    +0.000 C 
BRANCH  17  18
ATOM     18  C   UNL     1       5.809   5.192  19.019  0.00  0.00    +0.000 C 
BRANCH  18  19
ATOM     19  C   UNL     1       7.149   5.409  18.353  0.00  0.00    +0.000 C 
ATOM     20  O   UNL     1       7.647   6.496  18.105  0.00  0.00    +0.000 OA
BRANCH  19  21
ATOM     21  O   UNL     1       7.767   4.243  18.055  0.00  0.00    +0.000 OA
ATOM     22  H   UNL     1       7.766   4.034  17.101  0.00  0.00    +0.000 HD
ENDBRANCH  19  21
ENDBRANCH  18  19
ENDBRANCH  17  18
ENDBRANCH   1  17
TORSDOF 13
ENDMDL
MODEL 7
REMARK VINA RESULT:      -5.7      2.173      4.681
REMARK  Name = 
REMARK  13 active torsions:
REMARK  status: ('A' for Active; 'I' for Inactive)
REMARK    1  A    between atoms: N_1  and  C_2
REMARK    2  A    between atoms: C_2  and  C_3
REMARK    3  A    between atoms: C_2  and  C_8
REMARK    4  A    between atoms: C_2  and  C_13
REMARK    5  A    between atoms: C_3  and  C_4
REMARK    6  A    between atoms: C_4  and  C_5
REMARK    7  A    between atoms: C_5  and  O_7
REMARK    8  A    between atoms: C_8  and  C_9
REMARK    9  A    between atoms: C_9  and  C_10
REMARK   10  A    between atoms: C_10  and  O_12
REMARK   11  A    between atoms: C_13  and  C_14
REMARK   12  A    between atoms: C_14  and  C_15
REMARK   13  A    between atoms: C_15  and  O_17
REMARK                            x       y       z     vdW  Elec       q    Type
REMARK                         _______ _______ _______ _____ _____    ______ ____
ROOT
ATOM      1  C   UNL     1       4.443   4.183  17.426  0.00  0.00    +0.000 C 
ENDROOT
BRANCH   1   2
ATOM      2  N   UNL     1       4.840   2.986  18.177  0.00  0.00    +0.000 NA
ATOM      3  H   UNL     1       4.639   2.140  17.646  0.00  0.00    +0.000 HD
ATOM      4  H   UNL     1       4.300   2.902  19.038  0.00  0.00    +0.000 HD
ENDBRANCH   1   2
BRANCH   1   5
ATOM      5  C   UNL     1       5.033   5.440  18.136  0.00  0.00    +0.000 C 
BRANCH   5   6
ATOM      6  C   UNL     1       5.833   5.177  19.420  0.00  0.00    +0.000 C 
BRANCH   6   7
ATOM      7  C   UNL     1       7.232   5.739  19.332  0.00  0.00    +0.000 C 
ATOM      8  O   UNL     1       7.682   6.380  18.395  0.00  0.00    +0.000 OA
BRANCH   7   9
ATOM      9  O   UNL     1       7.968   5.456  20.434  0.00  0.00    +0.000 OA
ATOM     10  H   UNL     1       7.923   6.144  21.126  0.00  0.00    +0.000 HD
ENDBRANCH   7   9
ENDBRANCH   6   7
ENDBRANCH   5   6
ENDBRANCH   1   5
BRANCH   1  11
ATOM     11  C   UNL     1       4.979   4.101  15.967  0.00  0.00    +0.000 C 
BRANCH  11  12
ATOM     12  C   UNL     1       5.691   5.352  15.433  0.00  0.00    +0.000 C 
BRANCH  12  13
ATOM     13  C   UNL     1       7.145   5.062  15.132  0.00  0.00    +0.000 C 
ATOM     14  O   UNL     1       7.714   5.387  14.104  0.00  0.00    +0.000 OA
BRANCH  13  15
ATOM     15  O   UNL     1       7.781   4.445  16.152  0.00  0.00    +0.000 OA
ATOM     16  H   UNL     1       7.331   4.514  17.016  0.00  0.00    +0.000 HD
ENDBRANCH  13  15
ENDBRANCH  12  13
ENDBRANCH  11  12
ENDBRANCH   1  11
BRANCH   1  17
ATOM     17  C   UNL     1       2.887   4.260  17.418  0.00  0.00    +0.000 C 
BRANCH  17  18
ATOM     18  C   UNL     1       2.160   3.132  18.162  0.00  0.00    +0.000 C 
BRANCH  18  19
ATOM     19  C   UNL     1       1.914   3.493  19.609  0.00  0.00    +0.000 C 
ATOM     20  O   UNL     1       1.035   4.238  20.011  0.00  0.00    +0.000 OA
BRANCH  19  21
ATOM     21  O   UNL     1       2.789   2.887  20.443  0.00  0.00    +0.000 OA
ATOM     22  H   UNL     1       2.407   2.664  21.315  0.00  0.00    +0.000 HD
ENDBRANCH  19  21
ENDBRANCH  18  19
ENDBRANCH  17  18
ENDBRANCH   1  17
TORSDOF 13
ENDMDL
MODEL 8
REMARK VINA RESULT:      -5.7      2.326      4.904
REMARK  Name = 
REMARK  13 active torsions:
REMARK  status: ('A' for Active; 'I' for Inactive)
REMARK    1  A    between atoms: N_1  and  C_2
REMARK    2  A    between atoms: C_2  and  C_3
REMARK    3  A    between atoms: C_2  and  C_8
REMARK    4  A    between atoms: C_2  and  C_13
REMARK    5  A    between atoms: C_3  and  C_4
REMARK    6  A    between atoms: C_4  and  C_5
REMARK    7  A    between atoms: C_5  and  O_7
REMARK    8  A    between atoms: C_8  and  C_9
REMARK    9  A    between atoms: C_9  and  C_10
REMARK   10  A    between atoms: C_10  and  O_12
REMARK   11  A    between atoms: C_13  and  C_14
REMARK   12  A    between atoms: C_14  and  C_15
REMARK   13  A    between atoms: C_15  and  O_17
REMARK                            x       y       z     vdW  Elec       q    Type
REMARK                         _______ _______ _______ _____ _____    ______ ____
ROOT
ATOM      1  C   UNL     1       4.216   3.664  17.794  0.00  0.00    +0.000 C 
ENDROOT
BRANCH   1   2
ATOM      2  N   UNL     1       5.210   3.513  18.862  0.00  0.00    +0.000 NA
ATOM      3  H   UNL     1       4.759   3.300  19.751  0.00  0.00    +0.000 HD
ATOM      4  H   UNL     1       5.715   4.385  19.015  0.00  0.00    +0.000 HD
ENDBRANCH   1   2
BRANCH   1   5
ATOM      5  C   UNL     1       3.445   5.003  18.011  0.00  0.00    +0.000 C 
BRANCH   5   6
ATOM      6  C   UNL     1       3.695   5.717  19.347  0.00  0.00    +0.000 C 
BRANCH   6   7
ATOM      7  C   UNL     1       2.420   6.280  19.928  0.00  0.00    +0.000 C 
ATOM      8  O   UNL     1       1.627   5.667  20.626  0.00  0.00    +0.000 OA
BRANCH   7   9
ATOM      9  O   UNL     1       2.232   7.578  19.590  0.00  0.00    +0.000 OA
ATOM     10  H   UNL     1       1.673   8.073  20.220  0.00  0.00    +0.000 HD
ENDBRANCH   7   9
ENDBRANCH   6   7
ENDBRANCH   5   6
ENDBRANCH   1   5
BRANCH   1  11
ATOM     11  C   UNL     1       4.920   3.683  16.405  0.00  0.00    +0.000 C 
BRANCH  11  12
ATOM     12  C   UNL     1       5.569   5.010  15.989  0.00  0.00    +0.000 C 
BRANCH  12  13
ATOM     13  C   UNL     1       7.078   4.897  15.983  0.00  0.00    +0.000 C 
ATOM     14  O   UNL     1       7.730   4.330  16.843  0.00  0.00    +0.000 OA
BRANCH  13  15
ATOM     15  O   UNL     1       7.643   5.447  14.886  0.00  0.00    +0.000 OA
ATOM     16  H   UNL     1       8.541   5.122  14.683  0.00  0.00    +0.000 HD
ENDBRANCH  13  15
ENDBRANCH  12  13
ENDBRANCH  11  12
ENDBRANCH   1  11
BRANCH   1  17
ATOM     17  C   UNL     1       3.226   2.464  17.873  0.00  0.00    +0.000 C 
BRANCH  17  18
ATOM     18  C   UNL     1       2.625   2.187  19.258  0.00  0.00    +0.000 C 
BRANCH  18  19
ATOM     19  C   UNL     1       1.135   2.439  19.273  0.00  0.00    +0.000 C 
ATOM     20  O   UNL     1       0.360   2.148  18.375  0.00  0.00    +0.000 OA
BRANCH  19  21
ATOM     21  O   UNL     1       0.727   3.033  20.418  0.00  0.00    +0.000 OA
ATOM     22  H   UNL     1       0.524   3.983  20.314  0.00  0.00    +0.000 HD
ENDBRANCH  19  21
ENDBRANCH  18  19
ENDBRANCH  17  18
ENDBRANCH   1  17
TORSDOF 13
ENDMDL
MODEL 9
REMARK VINA RESULT:      -5.7      2.099      4.218
REMARK  Name = 
REMARK  13 active torsions:
REMARK  status: ('A' for Active; 'I' for Inactive)
REMARK    1  A    between atoms: N_1  and  C_2
REMARK    2  A    between atoms: C_2  and  C_3
REMARK    3  A    between atoms: C_2  and  C_8
REMARK    4  A    between atoms: C_2  and  C_13
REMARK    5  A    between atoms: C_3  and  C_4
REMARK    6  A    between atoms: C_4  and  C_5
REMARK    7  A    between atoms: C_5  and  O_7
REMARK    8  A    between atoms: C_8  and  C_9
REMARK    9  A    between atoms: C_9  and  C_10
REMARK   10  A    between atoms: C_10  and  O_12
REMARK   11  A    between atoms: C_13  and  C_14
REMARK   12  A    between atoms: C_14  and  C_15
REMARK   13  A    between atoms: C_15  and  O_17
REMARK                            x       y       z     vdW  Elec       q    Type
REMARK                         _______ _______ _______ _____ _____    ______ ____
ROOT
ATOM      1  C   UNL     1       4.338   4.554  18.040  0.00  0.00    +0.000 C 
ENDROOT
BRANCH   1   2
ATOM      2  N   UNL     1       4.676   3.161  18.355  0.00  0.00    +0.000 NA
ATOM      3  H   UNL     1       3.983   2.522  17.966  0.00  0.00    +0.000 HD
ATOM      4  H   UNL     1       4.659   3.002  19.362  0.00  0.00    +0.000 HD
ENDBRANCH   1   2
BRANCH   1   5
ATOM      5  C   UNL     1       4.801   4.866  16.584  0.00  0.00    +0.000 C 
BRANCH   5   6
ATOM      6  C   UNL     1       5.551   3.740  15.857  0.00  0.00    +0.000 C 
BRANCH   6   7
ATOM      7  C   UNL     1       6.540   4.282  14.854  0.00  0.00    +0.000 C 
ATOM      8  O   UNL     1       6.423   4.223  13.639  0.00  0.00    +0.000 OA
BRANCH   7   9
ATOM      9  O   UNL     1       7.608   4.864  15.449  0.00  0.00    +0.000 OA
ATOM     10  H   UNL     1       7.521   4.953  16.417  0.00  0.00    +0.000 HD
ENDBRANCH   7   9
ENDBRANCH   6   7
ENDBRANCH   5   6
ENDBRANCH   1   5
BRANCH   1  11
ATOM     11  C   UNL     1       2.802   4.773  18.162  0.00  0.00    +0.000 C 
BRANCH  11  12
ATOM     12  C   UNL     1       1.910   3.635  17.646  0.00  0.00    +0.000 C 
BRANCH  12  13
ATOM     13  C   UNL     1       1.277   2.880  18.794  0.00  0.00    +0.000 C 
ATOM     14  O   UNL     1       0.714   3.406  19.739  0.00  0.00    +0.000 OA
BRANCH  13  15
ATOM     15  O   UNL     1       1.346   1.539  18.644  0.00  0.00    +0.000 OA
ATOM     16  H   UNL     1       2.109   1.225  18.121  0.00  0.00    +0.000 HD
ENDBRANCH  13  15
ENDBRANCH  12  13
ENDBRANCH  11  12
ENDBRANCH   1  11
BRANCH   1  17
ATOM     17  C   UNL     1       5.089   5.478  19.044  0.00  0.00    +0.000 C 
BRANCH  17  18
ATOM     18  C   UNL     1       6.407   6.081  18.538  0.00  0.00    +0.000 C 
BRANCH  18  19
ATOM     19  C   UNL     1       7.595   5.256  18.977  0.00  0.00    +0.000 C 
ATOM     20  O   UNL     1       8.166   4.420  18.295  0.00  0.00    +0.000 OA
BRANCH  19  21
ATOM     21  O   UNL     1       7.982   5.549  20.240  0.00  0.00    +0.000 OA
ATOM     22  H   UNL     1       7.885   4.802  20.861  0.00  0.00    +0.000 HD
ENDBRANCH  19  21
ENDBRANCH  18  19
ENDBRANCH  17  18
ENDBRANCH   1  17
TORSDOF 13
ENDMDL
