MODEL 1
REMARK VINA RESULT:      -9.4      0.000      0.000
REMARK  Name = 
REMARK  6 active torsions:
REMARK  status: ('A' for Active; 'I' for Inactive)
REMARK    1  A    between atoms: C_1  and  C_2
REMARK    2  A    between atoms: C_5  and  C_6
REMARK    3  A    between atoms: C_9  and  C_10
REMARK    4  A    between atoms: C_16  and  C_17
REMARK    5  A    between atoms: N_20  and  C_21
REMARK    6  A    between atoms: C_21  and  C_22
REMARK                            x       y       z     vdW  Elec       q    Type
REMARK                         _______ _______ _______ _____ _____    ______ ____
ROOT
ATOM      1  C   UNL     1       3.895   4.711  18.981  0.00  0.00    +0.000 C 
ATOM      2  C   UNL     1       3.497   3.299  19.472  0.00  0.00    +0.000 C 
ATOM      3  C   UNL     1       3.493   3.142  20.943  0.00  0.00    +0.000 C 
ATOM      4  C   UNL     1       2.366   3.031  21.640  0.00  0.00    +0.000 C 
ATOM      5  C   UNL     1       1.013   3.073  20.991  0.00  0.00    +0.000 C 
ATOM      6  C   UNL     1       0.949   3.342  19.466  0.00  0.00    +0.000 C 
ATOM      7  C   UNL     1       2.218   2.971  18.651  0.00  0.00    +0.000 C 
ATOM      8  C   UNL     1       2.085   1.504  18.198  0.00  0.00    +0.000 C 
ATOM      9  C   UNL     1       2.612   3.735  17.335  0.00  0.00    +0.000 C 
ATOM     10  O   UNL     1       2.025   3.693  16.265  0.00  0.00    +0.000 OA
ATOM     11  N   UNL     1       3.820   4.410  17.580  0.00  0.00    +0.000 N 
ENDROOT
BRANCH   1  15
ATOM     12  C   UNL     1       1.445   8.347  19.456  0.00  0.00    +0.000 A 
ATOM     13  C   UNL     1       2.067   8.033  18.254  0.00  0.00    +0.000 A 
ATOM     14  C   UNL     1       2.813   6.883  18.128  0.00  0.00    +0.000 A 
ATOM     15  C   UNL     1       3.042   5.975  19.201  0.00  0.00    +0.000 A 
ATOM     16  C   UNL     1       2.491   6.345  20.420  0.00  0.00    +0.000 A 
ATOM     17  F   UNL     1       2.724   5.617  21.520  0.00  0.00    +0.000 F 
ATOM     18  C   UNL     1       1.691   7.488  20.546  0.00  0.00    +0.000 A 
BRANCH  12  23
ATOM     19  C   UNL     1      -1.973  13.020  19.796  0.00  0.00    +0.000 C 
ATOM     20  C   UNL     1      -1.111  11.798  19.720  0.00  0.00    +0.000 A 
ATOM     21  C   UNL     1      -0.541  11.256  20.869  0.00  0.00    +0.000 A 
ATOM     22  C   UNL     1       0.293  10.143  20.770  0.00  0.00    +0.000 A 
ATOM     23  C   UNL     1       0.573   9.532  19.528  0.00  0.00    +0.000 A 
ATOM     24  C   UNL     1      -0.025  10.080  18.387  0.00  0.00    +0.000 A 
ATOM     25  C   UNL     1      -0.850  11.201  18.481  0.00  0.00    +0.000 A 
ENDBRANCH  12  23
ENDBRANCH   1  15
BRANCH  11  26
ATOM     26  C   UNL     1       4.790   4.997  16.661  0.00  0.00    +0.000 C 
BRANCH  26  27
ATOM     27  C   UNL     1       5.913   5.631  17.434  0.00  0.00    +0.000 A 
ATOM     28  C   UNL     1       6.263   6.954  17.151  0.00  0.00    +0.000 A 
ATOM     29  C   UNL     1       7.373   7.533  17.760  0.00  0.00    +0.000 A 
ATOM     30  C   UNL     1       8.140   6.799  18.658  0.00  0.00    +0.000 A 
ATOM     31  C   UNL     1       7.785   5.490  18.975  0.00  0.00    +0.000 A 
ATOM     32  C   UNL     1       6.671   4.904  18.366  0.00  0.00    +0.000 A 
ENDBRANCH  26  27
ENDBRANCH  11  26
TORSDOF 4
ENDMDL
MODEL 2
REMARK VINA RESULT:      -9.3      1.251      1.894
REMARK  Name = 
REMARK  6 active torsions:
REMARK  status: ('A' for Active; 'I' for Inactive)
REMARK    1  A    between atoms: C_1  and  C_2
REMARK    2  A    between atoms: C_5  and  C_6
REMARK    3  A    between atoms: C_9  and  C_10
REMARK    4  A    between atoms: C_16  and  C_17
REMARK    5  A    between atoms: N_20  and  C_21
REMARK    6  A    between atoms: C_21  and  C_22
REMARK                            x       y       z     vdW  Elec       q    Type
REMARK                         _______ _______ _______ _____ _____    ______ ____
ROOT
ATOM      1  C   UNL     1       3.630   4.974  19.118  0.00  0.00    +0.000 C 
ATOM      2  C   UNL     1       3.373   3.494  19.489  0.00  0.00    +0.000 C 
ATOM      3  C   UNL     1       3.577   3.179  20.921  0.00  0.00    +0.000 C 
ATOM      4  C   UNL     1       2.562   2.919  21.740  0.00  0.00    +0.000 C 
ATOM      5  C   UNL     1       1.133   2.944  21.281  0.00  0.00    +0.000 C 
ATOM      6  C   UNL     1       0.849   3.372  19.818  0.00  0.00    +0.000 C 
ATOM      7  C   UNL     1       2.013   3.175  18.808  0.00  0.00    +0.000 C 
ATOM      8  C   UNL     1       1.892   1.760  18.209  0.00  0.00    +0.000 C 
ATOM      9  C   UNL     1       2.185   4.100  17.550  0.00  0.00    +0.000 C 
ATOM     10  O   UNL     1       1.461   4.137  16.567  0.00  0.00    +0.000 OA
ATOM     11  N   UNL     1       3.380   4.822  17.713  0.00  0.00    +0.000 N 
ENDROOT
BRANCH   1  15
ATOM     12  C   UNL     1       1.120   8.274  20.621  0.00  0.00    +0.000 A 
ATOM     13  C   UNL     1       1.271   7.087  21.327  0.00  0.00    +0.000 A 
ATOM     14  C   UNL     1       2.073   6.079  20.842  0.00  0.00    +0.000 A 
ATOM     15  C   UNL     1       2.753   6.149  19.593  0.00  0.00    +0.000 A 
ATOM     16  C   UNL     1       2.524   7.302  18.856  0.00  0.00    +0.000 A 
ATOM     17  F   UNL     1       3.034   7.435  17.624  0.00  0.00    +0.000 F 
ATOM     18  C   UNL     1       1.748   8.353  19.362  0.00  0.00    +0.000 A 
BRANCH  12  23
ATOM     19  C   UNL     1      -1.961  12.564  23.016  0.00  0.00    +0.000 C 
ATOM     20  C   UNL     1      -1.189  11.440  22.398  0.00  0.00    +0.000 A 
ATOM     21  C   UNL     1      -0.858  10.309  23.140  0.00  0.00    +0.000 A 
ATOM     22  C   UNL     1      -0.101   9.294  22.556  0.00  0.00    +0.000 A 
ATOM     23  C   UNL     1       0.336   9.370  21.216  0.00  0.00    +0.000 A 
ATOM     24  C   UNL     1      -0.023  10.506  20.481  0.00  0.00    +0.000 A 
ATOM     25  C   UNL     1      -0.769  11.530  21.065  0.00  0.00    +0.000 A 
ENDBRANCH  12  23
ENDBRANCH   1  15
BRANCH  11  26
ATOM     26  C   UNL     1       4.186   5.567  16.752  0.00  0.00    +0.000 C 
BRANCH  26  27
ATOM     27  C   UNL     1       5.591   5.717  17.264  0.00  0.00    +0.000 A 
ATOM     28  C   UNL     1       6.285   4.575  17.674  0.00  0.00    +0.000 A 
ATOM     29  C   UNL     1       7.540   4.690  18.266  0.00  0.00    +0.000 A 
ATOM     30  C   UNL     1       8.114   5.943  18.452  0.00  0.00    +0.000 A 
ATOM     31  C   UNL     1       7.449   7.087  18.020  0.00  0.00    +0.000 A 
ATOM     32  C   UNL     1       6.188   6.978  17.424  0.00  0.00    +0.000 A 
ENDBRANCH  26  27
ENDBRANCH  11  26
TORSDOF 4
ENDMDL
MODEL 3
REMARK VINA RESULT:      -9.2      1.166      1.803
REMARK  Name = 
REMARK  6 active torsions:
REMARK  status: ('A' for Active; 'I' for Inactive)
REMARK    1  A    between atoms: C_1  and  C_2
REMARK    2  A    between atoms: C_5  and  C_6
REMARK    3  A    between atoms: C_9  and  C_10
REMARK    4  A    between atoms: C_16  and  C_17
REMARK    5  A    between atoms: N_20  and  C_21
REMARK    6  A    between atoms: C_21  and  C_22
REMARK                            x       y       z     vdW  Elec       q    Type
REMARK                         _______ _______ _______ _____ _____    ______ ____
ROOT
ATOM      1  C   UNL     1       3.699   4.872  19.181  0.00  0.00    +0.000 C 
ATOM      2  C   UNL     1       3.416   3.393  19.536  0.00  0.00    +0.000 C 
ATOM      3  C   UNL     1       3.559   3.071  20.973  0.00  0.00    +0.000 C 
ATOM      4  C   UNL     1       2.509   2.817  21.749  0.00  0.00    +0.000 C 
ATOM      5  C   UNL     1       1.101   2.854  21.233  0.00  0.00    +0.000 C 
ATOM      6  C   UNL     1       0.880   3.289  19.761  0.00  0.00    +0.000 C 
ATOM      7  C   UNL     1       2.082   3.086  18.799  0.00  0.00    +0.000 C 
ATOM      8  C   UNL     1       1.976   1.674  18.190  0.00  0.00    +0.000 C 
ATOM      9  C   UNL     1       2.313   4.014  17.552  0.00  0.00    +0.000 C 
ATOM     10  O   UNL     1       1.630   4.060  16.540  0.00  0.00    +0.000 OA
ATOM     11  N   UNL     1       3.506   4.726  17.766  0.00  0.00    +0.000 N 
ENDROOT
BRANCH   1  15
ATOM     12  C   UNL     1       1.167   8.194  20.595  0.00  0.00    +0.000 A 
ATOM     13  C   UNL     1       1.363   7.047  21.353  0.00  0.00    +0.000 A 
ATOM     14  C   UNL     1       2.171   6.031  20.895  0.00  0.00    +0.000 A 
ATOM     15  C   UNL     1       2.813   6.052  19.623  0.00  0.00    +0.000 A 
ATOM     16  C   UNL     1       2.538   7.162  18.838  0.00  0.00    +0.000 A 
ATOM     17  F   UNL     1       3.009   7.243  17.586  0.00  0.00    +0.000 F 
ATOM     18  C   UNL     1       1.756   8.222  19.315  0.00  0.00    +0.000 A 
BRANCH  12  23
ATOM     19  C   UNL     1      -1.945  12.584  22.757  0.00  0.00    +0.000 C 
ATOM     20  C   UNL     1      -1.118  11.467  22.199  0.00  0.00    +0.000 A 
ATOM     21  C   UNL     1      -0.665  11.505  20.883  0.00  0.00    +0.000 A 
ATOM     22  C   UNL     1       0.067  10.433  20.372  0.00  0.00    +0.000 A 
ATOM     23  C   UNL     1       0.378   9.303  21.158  0.00  0.00    +0.000 A 
ATOM     24  C   UNL     1      -0.071   9.293  22.484  0.00  0.00    +0.000 A 
ATOM     25  C   UNL     1      -0.814  10.357  22.996  0.00  0.00    +0.000 A 
ENDBRANCH  12  23
ENDBRANCH   1  15
BRANCH  11  26
ATOM     26  C   UNL     1       4.356   5.468  16.841  0.00  0.00    +0.000 C 
BRANCH  26  27
ATOM     27  C   UNL     1       5.641   5.854  17.519  0.00  0.00    +0.000 A 
ATOM     28  C   UNL     1       6.174   7.125  17.280  0.00  0.00    +0.000 A 
ATOM     29  C   UNL     1       7.421   7.472  17.793  0.00  0.00    +0.000 A 
ATOM     30  C   UNL     1       8.144   6.558  18.552  0.00  0.00    +0.000 A 
ATOM     31  C   UNL     1       7.612   5.300  18.825  0.00  0.00    +0.000 A 
ATOM     32  C   UNL     1       6.360   4.946  18.312  0.00  0.00    +0.000 A 
ENDBRANCH  26  27
ENDBRANCH  11  26
TORSDOF 4
ENDMDL
MODEL 4
REMARK VINA RESULT:      -9.0      0.910      1.493
REMARK  Name = 
REMARK  6 active torsions:
REMARK  status: ('A' for Active; 'I' for Inactive)
REMARK    1  A    between atoms: C_1  and  C_2
REMARK    2  A    between atoms: C_5  and  C_6
REMARK    3  A    between atoms: C_9  and  C_10
REMARK    4  A    between atoms: C_16  and  C_17
REMARK    5  A    between atoms: N_20  and  C_21
REMARK    6  A    between atoms: C_21  and  C_22
REMARK                            x       y       z     vdW  Elec       q    Type
REMARK                         _______ _______ _______ _____ _____    ______ ____
ROOT
ATOM      1  C   UNL     1       3.960   4.885  19.001  0.00  0.00    +0.000 C 
ATOM      2  C   UNL     1       3.556   3.500  19.559  0.00  0.00    +0.000 C 
ATOM      3  C   UNL     1       3.477   3.435  21.035  0.00  0.00    +0.000 C 
ATOM      4  C   UNL     1       2.316   3.348  21.679  0.00  0.00    +0.000 C 
ATOM      5  C   UNL     1       0.999   3.328  20.960  0.00  0.00    +0.000 C 
ATOM      6  C   UNL     1       1.012   3.500  19.420  0.00  0.00    +0.000 C 
ATOM      7  C   UNL     1       2.327   3.101  18.695  0.00  0.00    +0.000 C 
ATOM      8  C   UNL     1       2.236   1.607  18.329  0.00  0.00    +0.000 C 
ATOM      9  C   UNL     1       2.778   3.788  17.356  0.00  0.00    +0.000 C 
ATOM     10  O   UNL     1       2.249   3.671  16.262  0.00  0.00    +0.000 OA
ATOM     11  N   UNL     1       3.963   4.497  17.620  0.00  0.00    +0.000 N 
ENDROOT
BRANCH   1  15
ATOM     12  C   UNL     1       1.442   8.479  19.436  0.00  0.00    +0.000 A 
ATOM     13  C   UNL     1       1.593   7.560  20.467  0.00  0.00    +0.000 A 
ATOM     14  C   UNL     1       2.398   6.454  20.310  0.00  0.00    +0.000 A 
ATOM     15  C   UNL     1       3.081   6.147  19.099  0.00  0.00    +0.000 A 
ATOM     16  C   UNL     1       2.852   7.024  18.049  0.00  0.00    +0.000 A 
ATOM     17  F   UNL     1       3.365   6.781  16.835  0.00  0.00    +0.000 F 
ATOM     18  C   UNL     1       2.073   8.177  18.213  0.00  0.00    +0.000 A 
BRANCH  12  23
ATOM     19  C   UNL     1      -1.690  13.281  20.313  0.00  0.00    +0.000 C 
ATOM     20  C   UNL     1      -0.865  12.056  20.068  0.00  0.00    +0.000 A 
ATOM     21  C   UNL     1      -0.959  11.362  18.864  0.00  0.00    +0.000 A 
ATOM     22  C   UNL     1      -0.213  10.199  18.675  0.00  0.00    +0.000 A 
ATOM     23  C   UNL     1       0.655   9.702  19.672  0.00  0.00    +0.000 A 
ATOM     24  C   UNL     1       0.749  10.423  20.867  0.00  0.00    +0.000 A 
ATOM     25  C   UNL     1      -0.005  11.581  21.065  0.00  0.00    +0.000 A 
ENDBRANCH  12  23
ENDBRANCH   1  15
BRANCH  11  26
ATOM     26  C   UNL     1       4.972   5.042  16.718  0.00  0.00    +0.000 C 
BRANCH  26  27
ATOM     27  C   UNL     1       6.073   5.692  17.509  0.00  0.00    +0.000 A 
ATOM     28  C   UNL     1       6.478   6.984  17.163  0.00  0.00    +0.000 A 
ATOM     29  C   UNL     1       7.574   7.569  17.793  0.00  0.00    +0.000 A 
ATOM     30  C   UNL     1       8.270   6.873  18.775  0.00  0.00    +0.000 A 
ATOM     31  C   UNL     1       7.858   5.597  19.152  0.00  0.00    +0.000 A 
ATOM     32  C   UNL     1       6.759   5.004  18.523  0.00  0.00    +0.000 A 
ENDBRANCH  26  27
ENDBRANCH  11  26
TORSDOF 4
ENDMDL
MODEL 5
REMARK VINA RESULT:      -8.8      1.839      4.732
REMARK  Name = 
REMARK  6 active torsions:
REMARK  status: ('A' for Active; 'I' for Inactive)
REMARK    1  A    between atoms: C_1  and  C_2
REMARK    2  A    between atoms: C_5  and  C_6
REMARK    3  A    between atoms: C_9  and  C_10
REMARK    4  A    between atoms: C_16  and  C_17
REMARK    5  A    between atoms: N_20  and  C_21
REMARK    6  A    between atoms: C_21  and  C_22
REMARK                            x       y       z     vdW  Elec       q    Type
REMARK                         _______ _______ _______ _____ _____    ______ ____
ROOT
ATOM      1  C   UNL     1       4.327   3.941  17.912  0.00  0.00    +0.000 C 
ATOM      2  C   UNL     1       5.494   3.969  16.897  0.00  0.00    +0.000 C 
ATOM      3  C   UNL     1       5.077   4.162  15.491  0.00  0.00    +0.000 C 
ATOM      4  C   UNL     1       5.294   5.300  14.838  0.00  0.00    +0.000 C 
ATOM      5  C   UNL     1       5.960   6.480  15.481  0.00  0.00    +0.000 C 
ATOM      6  C   UNL     1       6.325   6.376  16.984  0.00  0.00    +0.000 C 
ATOM      7  C   UNL     1       6.520   4.941  17.545  0.00  0.00    +0.000 C 
ATOM      8  C   UNL     1       8.001   4.553  17.362  0.00  0.00    +0.000 C 
ATOM      9  C   UNL     1       6.224   4.590  19.047  0.00  0.00    +0.000 C 
ATOM     10  O   UNL     1       6.861   4.957  20.022  0.00  0.00    +0.000 OA
ATOM     11  N   UNL     1       5.139   3.696  19.069  0.00  0.00    +0.000 N 
ENDROOT
BRANCH   1  15
ATOM     12  C   UNL     1       1.925   7.494  18.937  0.00  0.00    +0.000 A 
ATOM     13  C   UNL     1       3.168   7.259  19.510  0.00  0.00    +0.000 A 
ATOM     14  C   UNL     1       3.905   6.150  19.160  0.00  0.00    +0.000 A 
ATOM     15  C   UNL     1       3.443   5.157  18.248  0.00  0.00    +0.000 A 
ATOM     16  C   UNL     1       2.163   5.357  17.752  0.00  0.00    +0.000 A 
ATOM     17  F   UNL     1       1.589   4.438  16.962  0.00  0.00    +0.000 F 
ATOM     18  C   UNL     1       1.427   6.506  18.064  0.00  0.00    +0.000 A 
BRANCH  12  23
ATOM     19  C   UNL     1      -0.885  12.392  20.259  0.00  0.00    +0.000 C 
ATOM     20  C   UNL     1      -0.184  11.113  19.924  0.00  0.00    +0.000 A 
ATOM     21  C   UNL     1       0.169  10.210  20.923  0.00  0.00    +0.000 A 
ATOM     22  C   UNL     1       0.861   9.045  20.592  0.00  0.00    +0.000 A 
ATOM     23  C   UNL     1       1.208   8.741  19.258  0.00  0.00    +0.000 A 
ATOM     24  C   UNL     1       0.828   9.651  18.266  0.00  0.00    +0.000 A 
ATOM     25  C   UNL     1       0.147  10.824  18.594  0.00  0.00    +0.000 A 
ENDBRANCH  12  23
ENDBRANCH   1  15
BRANCH  11  26
ATOM     26  C   UNL     1       4.649   2.813  20.122  0.00  0.00    +0.000 C 
BRANCH  26  27
ATOM     27  C   UNL     1       3.149   2.738  20.075  0.00  0.00    +0.000 A 
ATOM     28  C   UNL     1       2.544   1.932  19.105  0.00  0.00    +0.000 A 
ATOM     29  C   UNL     1       1.160   1.933  18.954  0.00  0.00    +0.000 A 
ATOM     30  C   UNL     1       0.368   2.733  19.770  0.00  0.00    +0.000 A 
ATOM     31  C   UNL     1       0.953   3.517  20.761  0.00  0.00    +0.000 A 
ATOM     32  C   UNL     1       2.343   3.520  20.918  0.00  0.00    +0.000 A 
ENDBRANCH  26  27
ENDBRANCH  11  26
TORSDOF 4
ENDMDL
MODEL 6
REMARK VINA RESULT:      -8.7      1.798      4.846
REMARK  Name = 
REMARK  6 active torsions:
REMARK  status: ('A' for Active; 'I' for Inactive)
REMARK    1  A    between atoms: C_1  and  C_2
REMARK    2  A    between atoms: C_5  and  C_6
REMARK    3  A    between atoms: C_9  and  C_10
REMARK    4  A    between atoms: C_16  and  C_17
REMARK    5  A    between atoms: N_20  and  C_21
REMARK    6  A    between atoms: C_21  and  C_22
REMARK                            x       y       z     vdW  Elec       q    Type
REMARK                         _______ _______ _______ _____ _____    ______ ____
ROOT
ATOM      1  C   UNL     1       4.511   5.010  16.978  0.00  0.00    +0.000 C 
ATOM      2  C   UNL     1       6.031   5.165  16.735  0.00  0.00    +0.000 C 
ATOM      3  C   UNL     1       6.398   6.302  15.863  0.00  0.00    +0.000 C 
ATOM      4  C   UNL     1       6.987   7.396  16.337  0.00  0.00    +0.000 C 
ATOM      5  C   UNL     1       7.307   7.570  17.792  0.00  0.00    +0.000 C 
ATOM      6  C   UNL     1       6.851   6.458  18.772  0.00  0.00    +0.000 C 
ATOM      7  C   UNL     1       6.645   5.046  18.159  0.00  0.00    +0.000 C 
ATOM      8  C   UNL     1       7.986   4.290  18.237  0.00  0.00    +0.000 C 
ATOM      9  C   UNL     1       5.606   4.027  18.752  0.00  0.00    +0.000 C 
ATOM     10  O   UNL     1       5.682   3.449  19.825  0.00  0.00    +0.000 OA
ATOM     11  N   UNL     1       4.607   3.826  17.784  0.00  0.00    +0.000 N 
ENDROOT
BRANCH   1  15
ATOM     12  C   UNL     1       2.087   7.792  19.393  0.00  0.00    +0.000 A 
ATOM     13  C   UNL     1       2.373   6.504  19.825  0.00  0.00    +0.000 A 
ATOM     14  C   UNL     1       3.146   5.661  19.059  0.00  0.00    +0.000 A 
ATOM     15  C   UNL     1       3.657   6.013  17.777  0.00  0.00    +0.000 A 
ATOM     16  C   UNL     1       3.290   7.270  17.317  0.00  0.00    +0.000 A 
ATOM     17  F   UNL     1       3.633   7.670  16.085  0.00  0.00    +0.000 F 
ATOM     18  C   UNL     1       2.545   8.152  18.110  0.00  0.00    +0.000 A 
BRANCH  12  23
ATOM     19  C   UNL     1      -0.866  11.399  22.844  0.00  0.00    +0.000 C 
ATOM     20  C   UNL     1      -0.083  10.487  21.950  0.00  0.00    +0.000 A 
ATOM     21  C   UNL     1       0.039  10.755  20.589  0.00  0.00    +0.000 A 
ATOM     22  C   UNL     1       0.736   9.868  19.769  0.00  0.00    +0.000 A 
ATOM     23  C   UNL     1       1.342   8.701  20.282  0.00  0.00    +0.000 A 
ATOM     24  C   UNL     1       1.224   8.460  21.655  0.00  0.00    +0.000 A 
ATOM     25  C   UNL     1       0.517   9.337  22.477  0.00  0.00    +0.000 A 
ENDBRANCH  12  23
ENDBRANCH   1  15
BRANCH  11  26
ATOM     26  C   UNL     1       3.596   2.781  17.655  0.00  0.00    +0.000 C 
BRANCH  26  27
ATOM     27  C   UNL     1       2.732   2.745  18.884  0.00  0.00    +0.000 A 
ATOM     28  C   UNL     1       1.379   3.079  18.767  0.00  0.00    +0.000 A 
ATOM     29  C   UNL     1       0.579   3.174  19.902  0.00  0.00    +0.000 A 
ATOM     30  C   UNL     1       1.118   2.934  21.161  0.00  0.00    +0.000 A 
ATOM     31  C   UNL     1       2.456   2.570  21.291  0.00  0.00    +0.000 A 
ATOM     32  C   UNL     1       3.266   2.473  20.154  0.00  0.00    +0.000 A 
ENDBRANCH  26  27
ENDBRANCH  11  26
TORSDOF 4
ENDMDL
MODEL 7
REMARK VINA RESULT:      -8.5      3.407      9.035
REMARK  Name = 
REMARK  6 active torsions:
REMARK  status: ('A' for Active; 'I' for Inactive)
REMARK    1  A    between atoms: C_1  and  C_2
REMARK    2  A    between atoms: C_5  and  C_6
REMARK    3  A    between atoms: C_9  and  C_10
REMARK    4  A    between atoms: C_16  and  C_17
REMARK    5  A    between atoms: N_20  and  C_21
REMARK    6  A    between atoms: C_21  and  C_22
REMARK                            x       y       z     vdW  Elec       q    Type
REMARK                         _______ _______ _______ _____ _____    ______ ____
ROOT
ATOM      1  C   UNL     1      -0.300  11.818  20.372  0.00  0.00    +0.000 C 
ATOM      2  C   UNL     1       0.288  13.248  20.424  0.00  0.00    +0.000 C 
ATOM      3  C   UNL     1       1.384  13.423  21.402  0.00  0.00    +0.000 C 
ATOM      4  C   UNL     1       2.650  13.581  21.026  0.00  0.00    +0.000 C 
ATOM      5  C   UNL     1       3.066  13.574  19.584  0.00  0.00    +0.000 C 
ATOM      6  C   UNL     1       1.978  13.288  18.518  0.00  0.00    +0.000 C 
ATOM      7  C   UNL     1       0.514  13.607  18.929  0.00  0.00    +0.000 C 
ATOM      8  C   UNL     1       0.219  15.072  18.551  0.00  0.00    +0.000 C 
ATOM      9  C   UNL     1      -0.706  12.814  18.335  0.00  0.00    +0.000 C 
ATOM     10  O   UNL     1      -1.116  12.861  17.186  0.00  0.00    +0.000 OA
ATOM     11  N   UNL     1      -1.305  12.103  19.389  0.00  0.00    +0.000 N 
ENDROOT
BRANCH   1  15
ATOM     12  C   UNL     1       1.934   8.365  18.779  0.00  0.00    +0.000 A 
ATOM     13  C   UNL     1       1.471   9.382  17.955  0.00  0.00    +0.000 A 
ATOM     14  C   UNL     1       0.790  10.457  18.480  0.00  0.00    +0.000 A 
ATOM     15  C   UNL     1       0.471  10.585  19.863  0.00  0.00    +0.000 A 
ATOM     16  C   UNL     1       0.861   9.519  20.662  0.00  0.00    +0.000 A 
ATOM     17  F   UNL     1       0.529   9.486  21.960  0.00  0.00    +0.000 F 
ATOM     18  C   UNL     1       1.596   8.445  20.145  0.00  0.00    +0.000 A 
BRANCH  12  23
ATOM     19  C   UNL     1       5.170   4.138  16.478  0.00  0.00    +0.000 C 
ATOM     20  C   UNL     1       4.325   5.236  17.046  0.00  0.00    +0.000 A 
ATOM     21  C   UNL     1       4.661   6.572  16.844  0.00  0.00    +0.000 A 
ATOM     22  C   UNL     1       3.884   7.577  17.418  0.00  0.00    +0.000 A 
ATOM     23  C   UNL     1       2.745   7.281  18.198  0.00  0.00    +0.000 A 
ATOM     24  C   UNL     1       2.413   5.933  18.375  0.00  0.00    +0.000 A 
ATOM     25  C   UNL     1       3.195   4.924  17.811  0.00  0.00    +0.000 A 
ENDBRANCH  12  23
ENDBRANCH   1  15
BRANCH  11  26
ATOM     26  C   UNL     1      -2.617  11.473  19.494  0.00  0.00    +0.000 C 
BRANCH  26  27
ATOM     27  C   UNL     1      -3.072  11.001  18.141  0.00  0.00    +0.000 A 
ATOM     28  C   UNL     1      -2.417   9.916  17.551  0.00  0.00    +0.000 A 
ATOM     29  C   UNL     1      -2.729   9.530  16.250  0.00  0.00    +0.000 A 
ATOM     30  C   UNL     1      -3.699  10.218  15.530  0.00  0.00    +0.000 A 
ATOM     31  C   UNL     1      -4.383  11.281  16.116  0.00  0.00    +0.000 A 
ATOM     32  C   UNL     1      -4.073  11.674  17.422  0.00  0.00    +0.000 A 
ENDBRANCH  26  27
ENDBRANCH  11  26
TORSDOF 4
ENDMDL
MODEL 8
REMARK VINA RESULT:      -8.5      3.287      9.537
REMARK  Name = 
REMARK  6 active torsions:
REMARK  status: ('A' for Active; 'I' for Inactive)
REMARK    1  A    between atoms: C_1  and  C_2
REMARK    2  A    between atoms: C_5  and  C_6
REMARK    3  A    between atoms: C_9  and  C_10
REMARK    4  A    between atoms: C_16  and  C_17
REMARK    5  A    between atoms: N_20  and  C_21
REMARK    6  A    between atoms: C_21  and  C_22
REMARK                            x       y       z     vdW  Elec       q    Type
REMARK                         _______ _______ _______ _____ _____    ______ ____
ROOT
ATOM      1  C   UNL     1      -0.878  11.234  20.037  0.00  0.00    +0.000 C 
ATOM      2  C   UNL     1      -0.453  12.699  20.295  0.00  0.00    +0.000 C 
ATOM      3  C   UNL     1       0.438  12.880  21.463  0.00  0.00    +0.000 C 
ATOM      4  C   UNL     1       1.727  13.177  21.330  0.00  0.00    +0.000 C 
ATOM      5  C   UNL     1       2.381  13.332  19.988  0.00  0.00    +0.000 C 
ATOM      6  C   UNL     1       1.525  13.050  18.727  0.00  0.00    +0.000 C 
ATOM      7  C   UNL     1      -0.012  13.206  18.893  0.00  0.00    +0.000 C 
ATOM      8  C   UNL     1      -0.383  14.668  18.575  0.00  0.00    +0.000 C 
ATOM      9  C   UNL     1      -1.028  12.368  18.037  0.00  0.00    +0.000 C 
ATOM     10  O   UNL     1      -1.240  12.480  16.839  0.00  0.00    +0.000 OA
ATOM     11  N   UNL     1      -1.725  11.518  18.914  0.00  0.00    +0.000 N 
ENDROOT
BRANCH   1  15
ATOM     12  C   UNL     1       1.877   8.105  18.598  0.00  0.00    +0.000 A 
ATOM     13  C   UNL     1       1.105   8.861  17.725  0.00  0.00    +0.000 A 
ATOM     14  C   UNL     1       0.265   9.842  18.200  0.00  0.00    +0.000 A 
ATOM     15  C   UNL     1       0.087  10.120  19.585  0.00  0.00    +0.000 A 
ATOM     16  C   UNL     1       0.795   9.300  20.451  0.00  0.00    +0.000 A 
ATOM     17  F   UNL     1       0.631   9.406  21.777  0.00  0.00    +0.000 F 
ATOM     18  C   UNL     1       1.689   8.331  19.976  0.00  0.00    +0.000 A 
BRANCH  12  23
ATOM     19  C   UNL     1       5.703   4.323  16.432  0.00  0.00    +0.000 C 
ATOM     20  C   UNL     1       4.706   5.305  16.965  0.00  0.00    +0.000 A 
ATOM     21  C   UNL     1       4.884   6.674  16.779  0.00  0.00    +0.000 A 
ATOM     22  C   UNL     1       3.965   7.572  17.321  0.00  0.00    +0.000 A 
ATOM     23  C   UNL     1       2.839   7.133  18.051  0.00  0.00    +0.000 A 
ATOM     24  C   UNL     1       2.668   5.754  18.211  0.00  0.00    +0.000 A 
ATOM     25  C   UNL     1       3.592   4.852  17.681  0.00  0.00    +0.000 A 
ENDBRANCH  12  23
ENDBRANCH   1  15
BRANCH  11  26
ATOM     26  C   UNL     1      -2.966  10.772  18.738  0.00  0.00    +0.000 C 
BRANCH  26  27
ATOM     27  C   UNL     1      -4.122  11.722  18.588  0.00  0.00    +0.000 A 
ATOM     28  C   UNL     1      -4.497  12.504  19.685  0.00  0.00    +0.000 A 
ATOM     29  C   UNL     1      -5.635  13.304  19.620  0.00  0.00    +0.000 A 
ATOM     30  C   UNL     1      -6.405  13.333  18.463  0.00  0.00    +0.000 A 
ATOM     31  C   UNL     1      -6.026  12.584  17.352  0.00  0.00    +0.000 A 
ATOM     32  C   UNL     1      -4.883  11.778  17.410  0.00  0.00    +0.000 A 
ENDBRANCH  26  27
ENDBRANCH  11  26
TORSDOF 4
ENDMDL
MODEL 9
REMARK VINA RESULT:      -8.4      1.823      4.868
REMARK  Name = 
REMARK  6 active torsions:
REMARK  status: ('A' for Active; 'I' for Inactive)
REMARK    1  A    between atoms: C_1  and  C_2
REMARK    2  A    between atoms: C_5  and  C_6
REMARK    3  A    between atoms: C_9  and  C_10
REMARK    4  A    between atoms: C_16  and  C_17
REMARK    5  A    between atoms: N_20  and  C_21
REMARK    6  A    between atoms: C_21  and  C_22
REMARK                            x       y       z     vdW  Elec       q    Type
REMARK                         _______ _______ _______ _____ _____    ______ ____
ROOT
ATOM      1  C   UNL     1       4.543   4.935  17.002  0.00  0.00    +0.000 C 
ATOM      2  C   UNL     1       6.055   5.093  16.718  0.00  0.00    +0.000 C 
ATOM      3  C   UNL     1       6.390   6.182  15.775  0.00  0.00    +0.000 C 
ATOM      4  C   UNL     1       6.975   7.308  16.173  0.00  0.00    +0.000 C 
ATOM      5  C   UNL     1       7.322   7.568  17.609  0.00  0.00    +0.000 C 
ATOM      6  C   UNL     1       6.900   6.510  18.660  0.00  0.00    +0.000 C 
ATOM      7  C   UNL     1       6.699   5.062  18.133  0.00  0.00    +0.000 C 
ATOM      8  C   UNL     1       8.050   4.327  18.226  0.00  0.00    +0.000 C 
ATOM      9  C   UNL     1       5.685   4.068  18.804  0.00  0.00    +0.000 C 
ATOM     10  O   UNL     1       5.790   3.553  19.907  0.00  0.00    +0.000 OA
ATOM     11  N   UNL     1       4.669   3.801  17.871  0.00  0.00    +0.000 N 
ENDROOT
BRANCH   1  15
ATOM     12  C   UNL     1       2.127   7.820  19.303  0.00  0.00    +0.000 A 
ATOM     13  C   UNL     1       2.393   6.542  19.778  0.00  0.00    +0.000 A 
ATOM     14  C   UNL     1       3.163   5.666  19.046  0.00  0.00    +0.000 A 
ATOM     15  C   UNL     1       3.693   5.973  17.760  0.00  0.00    +0.000 A 
ATOM     16  C   UNL     1       3.346   7.219  17.257  0.00  0.00    +0.000 A 
ATOM     17  F   UNL     1       3.707   7.577  16.017  0.00  0.00    +0.000 F 
ATOM     18  C   UNL     1       2.603   8.134  18.015  0.00  0.00    +0.000 A 
BRANCH  12  23
ATOM     19  C   UNL     1      -0.779  11.508  22.707  0.00  0.00    +0.000 C 
ATOM     20  C   UNL     1      -0.051  10.538  21.829  0.00  0.00    +0.000 A 
ATOM     21  C   UNL     1       0.468   9.355  22.351  0.00  0.00    +0.000 A 
ATOM     22  C   UNL     1       1.180   8.487  21.524  0.00  0.00    +0.000 A 
ATOM     23  C   UNL     1       1.385   8.764  20.155  0.00  0.00    +0.000 A 
ATOM     24  C   UNL     1       0.840   9.948  19.646  0.00  0.00    +0.000 A 
ATOM     25  C   UNL     1       0.137  10.826  20.472  0.00  0.00    +0.000 A 
ENDBRANCH  12  23
ENDBRANCH   1  15
BRANCH  11  26
ATOM     26  C   UNL     1       3.669   2.739  17.823  0.00  0.00    +0.000 C 
BRANCH  26  27
ATOM     27  C   UNL     1       2.747   2.846  19.004  0.00  0.00    +0.000 A 
ATOM     28  C   UNL     1       3.246   2.555  20.278  0.00  0.00    +0.000 A 
ATOM     29  C   UNL     1       2.392   2.526  21.377  0.00  0.00    +0.000 A 
ATOM     30  C   UNL     1       1.036   2.790  21.217  0.00  0.00    +0.000 A 
ATOM     31  C   UNL     1       0.530   3.113  19.960  0.00  0.00    +0.000 A 
ATOM     32  C   UNL     1       1.383   3.144  18.852  0.00  0.00    +0.000 A 
ENDBRANCH  26  27
ENDBRANCH  11  26
TORSDOF 4
ENDMDL
