MODEL 1
REMARK VINA RESULT:      -6.9      0.000      0.000
REMARK  Name = 
REMARK  4 active torsions:
REMARK  status: ('A' for Active; 'I' for Inactive)
REMARK    1  A    between atoms: C_1  and  C_2
REMARK    2  A    between atoms: N_4  and  N_5
REMARK    3  A    between atoms: C_6  and  C_7
REMARK    4  A    between atoms: C_10  and  N_11
REMARK                            x       y       z     vdW  Elec       q    Type
REMARK                         _______ _______ _______ _____ _____    ______ ____
ROOT
ATOM      1  N   UNL     1       5.110   4.876  17.819  0.00  0.00    +0.000 NA
ATOM      2  C   UNL     1       3.825   5.032  17.770  0.00  0.00    +0.000 C 
ENDROOT
BRANCH   1   6
ATOM      3  C   UNL     1       6.545   3.892  13.261  0.00  0.00    +0.000 C 
ATOM      4  C   UNL     1       6.147   4.781  14.421  0.00  0.00    +0.000 C 
ATOM      5  C   UNL     1       5.478   4.056  15.565  0.00  0.00    +0.000 C 
ATOM      6  N   UNL     1       5.837   4.899  16.662  0.00  0.00    +0.000 N 
ATOM      7  C   UNL     1       7.009   5.578  16.350  0.00  0.00    +0.000 C 
ATOM      8  O   UNL     1       7.709   6.262  17.081  0.00  0.00    +0.000 OA
ATOM      9  O   UNL     1       7.309   5.369  15.024  0.00  0.00    +0.000 OA
ENDBRANCH   1   6
BRANCH   2  10
ATOM     10  C   UNL     1       3.049   4.928  18.980  0.00  0.00    +0.000 A 
ATOM     11  C   UNL     1       2.258   5.844  19.653  0.00  0.00    +0.000 A 
ATOM     12  C   UNL     1       1.792   5.205  20.829  0.00  0.00    +0.000 A 
ATOM     13  C   UNL     1       2.326   3.940  20.791  0.00  0.00    +0.000 A 
ATOM     14  O   UNL     1       3.082   3.746  19.676  0.00  0.00    +0.000 OA
BRANCH  13  15
ATOM     15  N   UNL     1       2.241   2.848  21.709  0.00  0.00    +0.000 N 
ATOM     16  O   UNL     1       3.281   2.199  21.885  0.00  0.00    +0.000 OA
ATOM     17  O   UNL     1       1.149   2.627  22.249  0.00  0.00    +0.000 OA
ENDBRANCH  13  15
ENDBRANCH   2  10
TORSDOF 3
ENDMDL
MODEL 2
REMARK VINA RESULT:      -6.9      1.166      1.392
REMARK  Name = 
REMARK  4 active torsions:
REMARK  status: ('A' for Active; 'I' for Inactive)
REMARK    1  A    between atoms: C_1  and  C_2
REMARK    2  A    between atoms: N_4  and  N_5
REMARK    3  A    between atoms: C_6  and  C_7
REMARK    4  A    between atoms: C_10  and  N_11
REMARK                            x       y       z     vdW  Elec       q    Type
REMARK                         _______ _______ _______ _____ _____    ______ ____
ROOT
ATOM      1  N   UNL     1       4.937   4.343  17.257  0.00  0.00    +0.000 NA
ATOM      2  C   UNL     1       3.759   3.883  16.976  0.00  0.00    +0.000 C 
ENDROOT
BRANCH   1   6
ATOM      3  C   UNL     1       7.064   4.164  12.870  0.00  0.00    +0.000 C 
ATOM      4  C   UNL     1       6.498   4.838  14.103  0.00  0.00    +0.000 C 
ATOM      5  C   UNL     1       5.647   3.942  14.972  0.00  0.00    +0.000 C 
ATOM      6  N   UNL     1       5.839   4.550  16.251  0.00  0.00    +0.000 N 
ATOM      7  C   UNL     1       7.054   5.225  16.258  0.00  0.00    +0.000 C 
ATOM      8  O   UNL     1       7.638   5.730  17.205  0.00  0.00    +0.000 OA
ATOM      9  O   UNL     1       7.558   5.253  14.979  0.00  0.00    +0.000 OA
ENDBRANCH   1   6
BRANCH   2  10
ATOM     10  C   UNL     1       2.837   3.589  18.044  0.00  0.00    +0.000 A 
ATOM     11  C   UNL     1       1.461   3.713  18.137  0.00  0.00    +0.000 A 
ATOM     12  C   UNL     1       1.098   3.337  19.455  0.00  0.00    +0.000 A 
ATOM     13  C   UNL     1       2.277   3.004  20.074  0.00  0.00    +0.000 A 
ATOM     14  O   UNL     1       3.342   3.139  19.236  0.00  0.00    +0.000 OA
BRANCH  13  15
ATOM     15  N   UNL     1       2.559   2.581  21.410  0.00  0.00    +0.000 N 
ATOM     16  O   UNL     1       1.647   2.733  22.235  0.00  0.00    +0.000 OA
ATOM     17  O   UNL     1       3.677   2.107  21.646  0.00  0.00    +0.000 OA
ENDBRANCH  13  15
ENDBRANCH   2  10
TORSDOF 3
ENDMDL
MODEL 3
REMARK VINA RESULT:      -6.6      1.585      1.857
REMARK  Name = 
REMARK  4 active torsions:
REMARK  status: ('A' for Active; 'I' for Inactive)
REMARK    1  A    between atoms: C_1  and  C_2
REMARK    2  A    between atoms: N_4  and  N_5
REMARK    3  A    between atoms: C_6  and  C_7
REMARK    4  A    between atoms: C_10  and  N_11
REMARK                            x       y       z     vdW  Elec       q    Type
REMARK                         _______ _______ _______ _____ _____    ______ ____
ROOT
ATOM      1  N   UNL     1       4.690   4.197  16.698  0.00  0.00    +0.000 NA
ATOM      2  C   UNL     1       4.461   3.021  17.192  0.00  0.00    +0.000 C 
ENDROOT
BRANCH   1   6
ATOM      3  C   UNL     1       7.426   4.615  12.680  0.00  0.00    +0.000 C 
ATOM      4  C   UNL     1       6.855   5.054  14.013  0.00  0.00    +0.000 C 
ATOM      5  C   UNL     1       5.656   4.259  14.473  0.00  0.00    +0.000 C 
ATOM      6  N   UNL     1       5.776   4.389  15.891  0.00  0.00    +0.000 N 
ATOM      7  C   UNL     1       7.107   4.624  16.216  0.00  0.00    +0.000 C 
ATOM      8  O   UNL     1       7.630   4.635  17.320  0.00  0.00    +0.000 OA
ATOM      9  O   UNL     1       7.816   4.856  15.061  0.00  0.00    +0.000 OA
ENDBRANCH   1   6
BRANCH   2  10
ATOM     10  C   UNL     1       3.363   2.836  18.107  0.00  0.00    +0.000 A 
ATOM     11  C   UNL     1       2.131   2.221  17.960  0.00  0.00    +0.000 A 
ATOM     12  C   UNL     1       1.428   2.404  19.178  0.00  0.00    +0.000 A 
ATOM     13  C   UNL     1       2.282   3.113  19.986  0.00  0.00    +0.000 A 
ATOM     14  O   UNL     1       3.463   3.377  19.363  0.00  0.00    +0.000 OA
BRANCH  13  15
ATOM     15  N   UNL     1       2.126   3.621  21.313  0.00  0.00    +0.000 N 
ATOM     16  O   UNL     1       2.254   4.846  21.449  0.00  0.00    +0.000 OA
ATOM     17  O   UNL     1       1.885   2.813  22.220  0.00  0.00    +0.000 OA
ENDBRANCH  13  15
ENDBRANCH   2  10
TORSDOF 3
ENDMDL
MODEL 4
REMARK VINA RESULT:      -6.6      2.383      7.098
REMARK  Name = 
REMARK  4 active torsions:
REMARK  status: ('A' for Active; 'I' for Inactive)
REMARK    1  A    between atoms: C_1  and  C_2
REMARK    2  A    between atoms: N_4  and  N_5
REMARK    3  A    between atoms: C_6  and  C_7
REMARK    4  A    between atoms: C_10  and  N_11
REMARK                            x       y       z     vdW  Elec       q    Type
REMARK                         _______ _______ _______ _____ _____    ______ ____
ROOT
ATOM      1  N   UNL     1       4.478   3.226  17.386  0.00  0.00    +0.000 NA
ATOM      2  C   UNL     1       4.877   4.367  16.920  0.00  0.00    +0.000 C 
ENDROOT
BRANCH   1   6
ATOM      3  C   UNL     1       0.819   3.906  20.541  0.00  0.00    +0.000 C 
ATOM      4  C   UNL     1       1.843   3.101  19.768  0.00  0.00    +0.000 C 
ATOM      5  C   UNL     1       2.472   3.836  18.608  0.00  0.00    +0.000 C 
ATOM      6  N   UNL     1       3.744   3.187  18.538  0.00  0.00    +0.000 N 
ATOM      7  C   UNL     1       4.060   2.668  19.788  0.00  0.00    +0.000 C 
ATOM      8  O   UNL     1       5.117   2.187  20.168  0.00  0.00    +0.000 OA
ATOM      9  O   UNL     1       2.960   2.772  20.608  0.00  0.00    +0.000 OA
ENDBRANCH   1   6
BRANCH   2  10
ATOM     10  C   UNL     1       5.719   4.402  15.750  0.00  0.00    +0.000 A 
ATOM     11  C   UNL     1       6.923   5.037  15.497  0.00  0.00    +0.000 A 
ATOM     12  C   UNL     1       7.255   4.772  14.144  0.00  0.00    +0.000 A 
ATOM     13  C   UNL     1       6.234   3.989  13.667  0.00  0.00    +0.000 A 
ATOM     14  O   UNL     1       5.298   3.743  14.624  0.00  0.00    +0.000 OA
BRANCH  13  15
ATOM     15  N   UNL     1       5.992   3.435  12.371  0.00  0.00    +0.000 N 
ATOM     16  O   UNL     1       6.992   3.078  11.734  0.00  0.00    +0.000 OA
ATOM     17  O   UNL     1       4.820   3.360  11.981  0.00  0.00    +0.000 OA
ENDBRANCH  13  15
ENDBRANCH   2  10
TORSDOF 3
ENDMDL
MODEL 5
REMARK VINA RESULT:      -6.5      2.404      7.235
REMARK  Name = 
REMARK  4 active torsions:
REMARK  status: ('A' for Active; 'I' for Inactive)
REMARK    1  A    between atoms: C_1  and  C_2
REMARK    2  A    between atoms: N_4  and  N_5
REMARK    3  A    between atoms: C_6  and  C_7
REMARK    4  A    between atoms: C_10  and  N_11
REMARK                            x       y       z     vdW  Elec       q    Type
REMARK                         _______ _______ _______ _____ _____    ______ ____
ROOT
ATOM      1  N   UNL     1       3.713   3.882  16.931  0.00  0.00    +0.000 NA
ATOM      2  C   UNL     1       4.961   4.204  17.062  0.00  0.00    +0.000 C 
ENDROOT
BRANCH   1   6
ATOM      3  C   UNL     1       2.439   2.797  21.514  0.00  0.00    +0.000 C 
ATOM      4  C   UNL     1       2.515   3.657  20.269  0.00  0.00    +0.000 C 
ATOM      5  C   UNL     1       3.535   3.200  19.253  0.00  0.00    +0.000 C 
ATOM      6  N   UNL     1       2.946   3.688  18.046  0.00  0.00    +0.000 N 
ATOM      7  C   UNL     1       1.572   3.803  18.222  0.00  0.00    +0.000 C 
ATOM      8  O   UNL     1       0.714   4.033  17.384  0.00  0.00    +0.000 OA
ATOM      9  O   UNL     1       1.273   3.609  19.550  0.00  0.00    +0.000 OA
ENDBRANCH   1   6
BRANCH   2  10
ATOM     10  C   UNL     1       5.790   4.329  15.889  0.00  0.00    +0.000 A 
ATOM     11  C   UNL     1       6.959   5.033  15.654  0.00  0.00    +0.000 A 
ATOM     12  C   UNL     1       7.291   4.841  14.289  0.00  0.00    +0.000 A 
ATOM     13  C   UNL     1       6.306   4.028  13.787  0.00  0.00    +0.000 A 
ATOM     14  O   UNL     1       5.392   3.697  14.739  0.00  0.00    +0.000 OA
BRANCH  13  15
ATOM     15  N   UNL     1       6.081   3.516  12.471  0.00  0.00    +0.000 N 
ATOM     16  O   UNL     1       4.897   3.404  12.123  0.00  0.00    +0.000 OA
ATOM     17  O   UNL     1       7.068   3.218  11.787  0.00  0.00    +0.000 OA
ENDBRANCH  13  15
ENDBRANCH   2  10
TORSDOF 3
ENDMDL
MODEL 6
REMARK VINA RESULT:      -6.5      5.196      7.595
REMARK  Name = 
REMARK  4 active torsions:
REMARK  status: ('A' for Active; 'I' for Inactive)
REMARK    1  A    between atoms: C_1  and  C_2
REMARK    2  A    between atoms: N_4  and  N_5
REMARK    3  A    between atoms: C_6  and  C_7
REMARK    4  A    between atoms: C_10  and  N_11
REMARK                            x       y       z     vdW  Elec       q    Type
REMARK                         _______ _______ _______ _____ _____    ______ ____
ROOT
ATOM      1  N   UNL     1       8.939   9.292  18.931  0.00  0.00    +0.000 NA
ATOM      2  C   UNL     1       8.177   8.906  17.957  0.00  0.00    +0.000 C 
ENDROOT
BRANCH   1   6
ATOM      3  C   UNL     1      10.757  13.609  17.566  0.00  0.00    +0.000 C 
ATOM      4  C   UNL     1       9.731  12.672  18.171  0.00  0.00    +0.000 C 
ATOM      5  C   UNL     1       9.946  11.214  17.843  0.00  0.00    +0.000 C 
ATOM      6  N   UNL     1       9.355  10.593  18.987  0.00  0.00    +0.000 N 
ATOM      7  C   UNL     1       9.396  11.478  20.058  0.00  0.00    +0.000 C 
ATOM      8  O   UNL     1       9.136  11.264  21.233  0.00  0.00    +0.000 OA
ATOM      9  O   UNL     1       9.799  12.713  19.604  0.00  0.00    +0.000 OA
ENDBRANCH   1   6
BRANCH   2  10
ATOM     10  C   UNL     1       7.804   7.518  17.853  0.00  0.00    +0.000 A 
ATOM     11  C   UNL     1       7.924   6.460  18.739  0.00  0.00    +0.000 A 
ATOM     12  C   UNL     1       7.449   5.303  18.071  0.00  0.00    +0.000 A 
ATOM     13  C   UNL     1       7.067   5.735  16.825  0.00  0.00    +0.000 A 
ATOM     14  O   UNL     1       7.263   7.074  16.674  0.00  0.00    +0.000 OA
BRANCH  13  15
ATOM     15  N   UNL     1       6.543   5.030  15.698  0.00  0.00    +0.000 N 
ATOM     16  O   UNL     1       6.323   5.706  14.683  0.00  0.00    +0.000 OA
ATOM     17  O   UNL     1       6.342   3.814  15.816  0.00  0.00    +0.000 OA
ENDBRANCH  13  15
ENDBRANCH   2  10
TORSDOF 3
ENDMDL
MODEL 7
REMARK VINA RESULT:      -6.4      2.126      6.945
REMARK  Name = 
REMARK  4 active torsions:
REMARK  status: ('A' for Active; 'I' for Inactive)
REMARK    1  A    between atoms: C_1  and  C_2
REMARK    2  A    between atoms: N_4  and  N_5
REMARK    3  A    between atoms: C_6  and  C_7
REMARK    4  A    between atoms: C_10  and  N_11
REMARK                            x       y       z     vdW  Elec       q    Type
REMARK                         _______ _______ _______ _____ _____    ______ ____
ROOT
ATOM      1  N   UNL     1       3.877   3.781  18.381  0.00  0.00    +0.000 NA
ATOM      2  C   UNL     1       4.223   5.023  18.259  0.00  0.00    +0.000 C 
ENDROOT
BRANCH   1   6
ATOM      3  C   UNL     1       1.210   2.365  22.213  0.00  0.00    +0.000 C 
ATOM      4  C   UNL     1       1.614   3.279  21.075  0.00  0.00    +0.000 C 
ATOM      5  C   UNL     1       2.975   2.986  20.489  0.00  0.00    +0.000 C 
ATOM      6  N   UNL     1       2.796   3.453  19.151  0.00  0.00    +0.000 N 
ATOM      7  C   UNL     1       1.445   3.402  18.826  0.00  0.00    +0.000 C 
ATOM      8  O   UNL     1       0.917   3.567  17.737  0.00  0.00    +0.000 OA
ATOM      9  O   UNL     1       0.722   3.119  19.962  0.00  0.00    +0.000 OA
ENDBRANCH   1   6
BRANCH   2  10
ATOM     10  C   UNL     1       5.410   5.361  17.515  0.00  0.00    +0.000 A 
ATOM     11  C   UNL     1       6.456   6.227  17.787  0.00  0.00    +0.000 A 
ATOM     12  C   UNL     1       7.314   6.207  16.659  0.00  0.00    +0.000 A 
ATOM     13  C   UNL     1       6.736   5.327  15.778  0.00  0.00    +0.000 A 
ATOM     14  O   UNL     1       5.588   4.795  16.279  0.00  0.00    +0.000 OA
BRANCH  13  15
ATOM     15  N   UNL     1       7.117   4.916  14.462  0.00  0.00    +0.000 N 
ATOM     16  O   UNL     1       7.993   5.596  13.909  0.00  0.00    +0.000 OA
ATOM     17  O   UNL     1       6.547   3.932  13.974  0.00  0.00    +0.000 OA
ENDBRANCH  13  15
ENDBRANCH   2  10
TORSDOF 3
ENDMDL
MODEL 8
REMARK VINA RESULT:      -6.3      1.394      1.814
REMARK  Name = 
REMARK  4 active torsions:
REMARK  status: ('A' for Active; 'I' for Inactive)
REMARK    1  A    between atoms: C_1  and  C_2
REMARK    2  A    between atoms: N_4  and  N_5
REMARK    3  A    between atoms: C_6  and  C_7
REMARK    4  A    between atoms: C_10  and  N_11
REMARK                            x       y       z     vdW  Elec       q    Type
REMARK                         _______ _______ _______ _____ _____    ______ ____
ROOT
ATOM      1  N   UNL     1       5.732   4.055  17.363  0.00  0.00    +0.000 NA
ATOM      2  C   UNL     1       4.506   3.668  17.521  0.00  0.00    +0.000 C 
ENDROOT
BRANCH   1   6
ATOM      3  C   UNL     1       6.576   3.774  12.566  0.00  0.00    +0.000 C 
ATOM      4  C   UNL     1       6.108   4.429  13.849  0.00  0.00    +0.000 C 
ATOM      5  C   UNL     1       5.952   3.482  15.015  0.00  0.00    +0.000 C 
ATOM      6  N   UNL     1       6.185   4.368  16.112  0.00  0.00    +0.000 N 
ATOM      7  C   UNL     1       6.969   5.432  15.680  0.00  0.00    +0.000 C 
ATOM      8  O   UNL     1       7.505   6.302  16.349  0.00  0.00    +0.000 OA
ATOM      9  O   UNL     1       7.079   5.380  14.310  0.00  0.00    +0.000 OA
ENDBRANCH   1   6
BRANCH   2  10
ATOM     10  C   UNL     1       4.052   3.261  18.827  0.00  0.00    +0.000 A 
ATOM     11  C   UNL     1       4.635   2.470  19.803  0.00  0.00    +0.000 A 
ATOM     12  C   UNL     1       3.695   2.353  20.858  0.00  0.00    +0.000 A 
ATOM     13  C   UNL     1       2.606   3.086  20.457  0.00  0.00    +0.000 A 
ATOM     14  O   UNL     1       2.803   3.653  19.235  0.00  0.00    +0.000 OA
BRANCH  13  15
ATOM     15  N   UNL     1       1.340   3.318  21.078  0.00  0.00    +0.000 N 
ATOM     16  O   UNL     1       0.577   4.098  20.490  0.00  0.00    +0.000 OA
ATOM     17  O   UNL     1       1.102   2.739  22.146  0.00  0.00    +0.000 OA
ENDBRANCH  13  15
ENDBRANCH   2  10
TORSDOF 3
ENDMDL
MODEL 9
REMARK VINA RESULT:      -6.3      2.706      7.067
REMARK  Name = 
REMARK  4 active torsions:
REMARK  status: ('A' for Active; 'I' for Inactive)
REMARK    1  A    between atoms: C_1  and  C_2
REMARK    2  A    between atoms: N_4  and  N_5
REMARK    3  A    between atoms: C_6  and  C_7
REMARK    4  A    between atoms: C_10  and  N_11
REMARK                            x       y       z     vdW  Elec       q    Type
REMARK                         _______ _______ _______ _____ _____    ______ ____
ROOT
ATOM      1  N   UNL     1       4.927   4.291  16.498  0.00  0.00    +0.000 NA
ATOM      2  C   UNL     1       5.565   5.077  15.690  0.00  0.00    +0.000 C 
ENDROOT
BRANCH   1   6
ATOM      3  C   UNL     1       2.206   6.107  20.118  0.00  0.00    +0.000 C 
ATOM      4  C   UNL     1       3.135   5.110  19.456  0.00  0.00    +0.000 C 
ATOM      5  C   UNL     1       3.245   5.256  17.956  0.00  0.00    +0.000 C 
ATOM      6  N   UNL     1       4.561   4.746  17.734  0.00  0.00    +0.000 N 
ATOM      7  C   UNL     1       5.313   4.902  18.893  0.00  0.00    +0.000 C 
ATOM      8  O   UNL     1       6.513   4.736  19.050  0.00  0.00    +0.000 OA
ATOM      9  O   UNL     1       4.482   5.299  19.915  0.00  0.00    +0.000 OA
ENDBRANCH   1   6
BRANCH   2  10
ATOM     10  C   UNL     1       6.022   4.573  14.419  0.00  0.00    +0.000 A 
ATOM     11  C   UNL     1       7.181   4.801  13.697  0.00  0.00    +0.000 A 
ATOM     12  C   UNL     1       7.057   4.088  12.478  0.00  0.00    +0.000 A 
ATOM     13  C   UNL     1       5.834   3.468  12.543  0.00  0.00    +0.000 A 
ATOM     14  O   UNL     1       5.194   3.739  13.713  0.00  0.00    +0.000 OA
BRANCH  13  15
ATOM     15  N   UNL     1       5.141   2.639  11.606  0.00  0.00    +0.000 N 
ATOM     16  O   UNL     1       5.698   1.576  11.300  0.00  0.00    +0.000 OA
ATOM     17  O   UNL     1       4.055   3.040  11.169  0.00  0.00    +0.000 OA
ENDBRANCH  13  15
ENDBRANCH   2  10
TORSDOF 3
ENDMDL
