MODEL 1
REMARK VINA RESULT:      -8.5      0.000      0.000
REMARK  Name = 
REMARK  2 active torsions:
REMARK  status: ('A' for Active; 'I' for Inactive)
REMARK    1  A    between atoms: N_17  and  C_18
REMARK    2  A    between atoms: C_18  and  C_19
REMARK                            x       y       z     vdW  Elec       q    Type
REMARK                         _______ _______ _______ _____ _____    ______ ____
ROOT
ATOM      1  O   UNL     1       0.091   9.248  23.188  0.00  0.00    +0.000 OA
ATOM      2  C   UNL     1       0.304   9.399  21.988  0.00  0.00    +0.000 C 
ATOM      3  C   UNL     1      -0.348  10.540  21.219  0.00  0.00    +0.000 C 
ATOM      4  C   UNL     1       0.186  10.848  19.810  0.00  0.00    +0.000 C 
ATOM      5  C   UNL     1      -1.074  10.868  18.899  0.00  0.00    +0.000 C 
ATOM      6  O   UNL     1      -1.791   9.927  18.596  0.00  0.00    +0.000 OA
ATOM      7  N   UNL     1      -1.284  12.178  18.514  0.00  0.00    +0.000 N 
ATOM      8  C   UNL     1      -0.190  12.967  18.803  0.00  0.00    +0.000 A 
ATOM      9  C   UNL     1      -0.023  14.276  18.402  0.00  0.00    +0.000 A 
ATOM     10  C   UNL     1       1.089  14.956  18.882  0.00  0.00    +0.000 A 
ATOM     11  C   UNL     1       1.933  14.332  19.815  0.00  0.00    +0.000 A 
ATOM     12  C   UNL     1       1.750  12.981  20.195  0.00  0.00    +0.000 A 
ATOM     13  C   UNL     1       0.707  12.262  19.625  0.00  0.00    +0.000 A 
ATOM     14  C   UNL     1       1.116   9.819  19.292  0.00  0.00    +0.000 A 
ATOM     15  C   UNL     1       1.666   9.558  18.023  0.00  0.00    +0.000 A 
ATOM     16  N   UNL     1       2.297   8.372  17.957  0.00  0.00    +0.000 NA
ATOM     17  N   UNL     1       2.091   7.821  19.174  0.00  0.00    +0.000 N 
ATOM     18  C   UNL     1       1.438   8.691  20.013  0.00  0.00    +0.000 A 
ATOM     19  N   UNL     1       1.083   8.487  21.321  0.00  0.00    +0.000 N 
ATOM     20  H   UNL     1      -2.226  12.554  18.587  0.00  0.00    +0.000 HD
ATOM     21  H   UNL     1       1.391   7.668  21.843  0.00  0.00    +0.000 HD
ENDROOT
BRANCH  17  22
ATOM     22  C   UNL     1       2.575   6.474  19.463  0.00  0.00    +0.000 C 
BRANCH  22  23
ATOM     23  C   UNL     1       3.401   5.848  18.353  0.00  0.00    +0.000 A 
ATOM     24  C   UNL     1       4.637   6.390  17.960  0.00  0.00    +0.000 A 
ATOM     25  C   UNL     1       5.414   5.774  16.975  0.00  0.00    +0.000 A 
ATOM     26  C   UNL     1       4.973   4.591  16.380  0.00  0.00    +0.000 A 
ATOM     27 CL   UNL     1       5.925   3.834  15.160  0.00  0.00    +0.000 Cl
ATOM     28  C   UNL     1       3.765   4.025  16.771  0.00  0.00    +0.000 A 
ATOM     29  C   UNL     1       2.988   4.641  17.756  0.00  0.00    +0.000 A 
ENDBRANCH  22  23
ENDBRANCH  17  22
TORSDOF 2
ENDMDL
MODEL 2
REMARK VINA RESULT:      -8.2      0.683      1.061
REMARK  Name = 
REMARK  2 active torsions:
REMARK  status: ('A' for Active; 'I' for Inactive)
REMARK    1  A    between atoms: N_17  and  C_18
REMARK    2  A    between atoms: C_18  and  C_19
REMARK                            x       y       z     vdW  Elec       q    Type
REMARK                         _______ _______ _______ _____ _____    ______ ____
ROOT
ATOM      1  O   UNL     1      -0.179   9.144  23.029  0.00  0.00    +0.000 OA
ATOM      2  C   UNL     1       0.159   9.278  21.856  0.00  0.00    +0.000 C 
ATOM      3  C   UNL     1      -0.355  10.448  21.028  0.00  0.00    +0.000 C 
ATOM      4  C   UNL     1       0.330  10.720  19.677  0.00  0.00    +0.000 C 
ATOM      5  C   UNL     1      -0.831  10.800  18.647  0.00  0.00    +0.000 C 
ATOM      6  O   UNL     1      -1.563   9.897  18.275  0.00  0.00    +0.000 OA
ATOM      7  N   UNL     1      -0.935  12.118  18.244  0.00  0.00    +0.000 N 
ATOM      8  C   UNL     1       0.164  12.851  18.639  0.00  0.00    +0.000 A 
ATOM      9  C   UNL     1       0.438  14.148  18.257  0.00  0.00    +0.000 A 
ATOM     10  C   UNL     1       1.531  14.772  18.844  0.00  0.00    +0.000 A 
ATOM     11  C   UNL     1       2.246  14.110  19.855  0.00  0.00    +0.000 A 
ATOM     12  C   UNL     1       1.957  12.772  20.215  0.00  0.00    +0.000 A 
ATOM     13  C   UNL     1       0.939  12.105  19.545  0.00  0.00    +0.000 A 
ATOM     14  C   UNL     1       1.252   9.642  19.253  0.00  0.00    +0.000 A 
ATOM     15  C   UNL     1       1.910   9.347  18.045  0.00  0.00    +0.000 A 
ATOM     16  N   UNL     1       2.482   8.130  18.041  0.00  0.00    +0.000 NA
ATOM     17  N   UNL     1       2.129   7.597  19.231  0.00  0.00    +0.000 N 
ATOM     18  C   UNL     1       1.443   8.503  20.002  0.00  0.00    +0.000 A 
ATOM     19  N   UNL     1       0.951   8.324  21.269  0.00  0.00    +0.000 N 
ATOM     20  H   UNL     1      -1.859  12.543  18.224  0.00  0.00    +0.000 HD
ATOM     21  H   UNL     1       1.164   7.492  21.818  0.00  0.00    +0.000 HD
ENDROOT
BRANCH  17  22
ATOM     22  C   UNL     1       2.512   6.228  19.566  0.00  0.00    +0.000 C 
BRANCH  22  23
ATOM     23  C   UNL     1       3.682   5.686  18.764  0.00  0.00    +0.000 A 
ATOM     24  C   UNL     1       3.499   5.095  17.501  0.00  0.00    +0.000 A 
ATOM     25  C   UNL     1       4.589   4.649  16.748  0.00  0.00    +0.000 A 
ATOM     26  C   UNL     1       5.885   4.806  17.241  0.00  0.00    +0.000 A 
ATOM     27 CL   UNL     1       7.230   4.250  16.319  0.00  0.00    +0.000 Cl
ATOM     28  C   UNL     1       6.091   5.410  18.477  0.00  0.00    +0.000 A 
ATOM     29  C   UNL     1       5.000   5.856  19.230  0.00  0.00    +0.000 A 
ENDBRANCH  22  23
ENDBRANCH  17  22
TORSDOF 2
ENDMDL
MODEL 3
REMARK VINA RESULT:      -8.0      4.047      8.459
REMARK  Name = 
REMARK  2 active torsions:
REMARK  status: ('A' for Active; 'I' for Inactive)
REMARK    1  A    between atoms: N_17  and  C_18
REMARK    2  A    between atoms: C_18  and  C_19
REMARK                            x       y       z     vdW  Elec       q    Type
REMARK                         _______ _______ _______ _____ _____    ______ ____
ROOT
ATOM      1  O   UNL     1       4.820   2.680  20.017  0.00  0.00    +0.000 OA
ATOM      2  C   UNL     1       4.803   3.713  19.352  0.00  0.00    +0.000 C 
ATOM      3  C   UNL     1       5.912   4.010  18.351  0.00  0.00    +0.000 C 
ATOM      4  C   UNL     1       5.680   5.156  17.350  0.00  0.00    +0.000 C 
ATOM      5  C   UNL     1       6.941   6.055  17.472  0.00  0.00    +0.000 C 
ATOM      6  O   UNL     1       7.281   6.741  18.423  0.00  0.00    +0.000 OA
ATOM      7  N   UNL     1       7.666   5.909  16.304  0.00  0.00    +0.000 N 
ATOM      8  C   UNL     1       6.924   5.275  15.330  0.00  0.00    +0.000 A 
ATOM      9  C   UNL     1       7.302   5.123  14.012  0.00  0.00    +0.000 A 
ATOM     10  C   UNL     1       6.483   4.354  13.195  0.00  0.00    +0.000 A 
ATOM     11  C   UNL     1       5.376   3.693  13.750  0.00  0.00    +0.000 A 
ATOM     12  C   UNL     1       4.999   3.882  15.101  0.00  0.00    +0.000 A 
ATOM     13  C   UNL     1       5.749   4.744  15.890  0.00  0.00    +0.000 A 
ATOM     14  C   UNL     1       4.490   5.981  17.660  0.00  0.00    +0.000 A 
ATOM     15  C   UNL     1       4.016   7.218  17.186  0.00  0.00    +0.000 A 
ATOM     16  N   UNL     1       2.997   7.705  17.916  0.00  0.00    +0.000 NA
ATOM     17  N   UNL     1       2.855   6.814  18.920  0.00  0.00    +0.000 N 
ATOM     18  C   UNL     1       3.697   5.740  18.759  0.00  0.00    +0.000 A 
ATOM     19  N   UNL     1       3.813   4.637  19.566  0.00  0.00    +0.000 N 
ATOM     20  H   UNL     1       8.668   5.749  16.378  0.00  0.00    +0.000 HD
ATOM     21  H   UNL     1       3.168   4.460  20.334  0.00  0.00    +0.000 HD
ENDROOT
BRANCH  17  22
ATOM     22  C   UNL     1       1.875   7.046  19.977  0.00  0.00    +0.000 C 
BRANCH  22  23
ATOM     23  C   UNL     1       1.446   8.495  20.133  0.00  0.00    +0.000 A 
ATOM     24  C   UNL     1       1.210   9.317  19.017  0.00  0.00    +0.000 A 
ATOM     25  C   UNL     1       0.763  10.632  19.171  0.00  0.00    +0.000 A 
ATOM     26  C   UNL     1       0.525  11.140  20.449  0.00  0.00    +0.000 A 
ATOM     27 CL   UNL     1      -0.018  12.763  20.643  0.00  0.00    +0.000 Cl
ATOM     28  C   UNL     1       0.728  10.336  21.566  0.00  0.00    +0.000 A 
ATOM     29  C   UNL     1       1.176   9.021  21.411  0.00  0.00    +0.000 A 
ENDBRANCH  22  23
ENDBRANCH  17  22
TORSDOF 2
ENDMDL
MODEL 4
REMARK VINA RESULT:      -8.0      4.097      8.442
REMARK  Name = 
REMARK  2 active torsions:
REMARK  status: ('A' for Active; 'I' for Inactive)
REMARK    1  A    between atoms: N_17  and  C_18
REMARK    2  A    between atoms: C_18  and  C_19
REMARK                            x       y       z     vdW  Elec       q    Type
REMARK                         _______ _______ _______ _____ _____    ______ ____
ROOT
ATOM      1  O   UNL     1       3.312   2.009  19.859  0.00  0.00    +0.000 OA
ATOM      2  C   UNL     1       3.656   3.124  19.475  0.00  0.00    +0.000 C 
ATOM      3  C   UNL     1       4.992   3.325  18.772  0.00  0.00    +0.000 C 
ATOM      4  C   UNL     1       5.227   4.669  18.061  0.00  0.00    +0.000 C 
ATOM      5  C   UNL     1       6.592   5.177  18.605  0.00  0.00    +0.000 C 
ATOM      6  O   UNL     1       6.853   5.549  19.738  0.00  0.00    +0.000 OA
ATOM      7  N   UNL     1       7.505   5.090  17.571  0.00  0.00    +0.000 N 
ATOM      8  C   UNL     1       6.877   4.873  16.364  0.00  0.00    +0.000 A 
ATOM      9  C   UNL     1       7.491   4.899  15.128  0.00  0.00    +0.000 A 
ATOM     10  C   UNL     1       6.726   4.543  14.025  0.00  0.00    +0.000 A 
ATOM     11  C   UNL     1       5.411   4.086  14.212  0.00  0.00    +0.000 A 
ATOM     12  C   UNL     1       4.799   4.088  15.488  0.00  0.00    +0.000 A 
ATOM     13  C   UNL     1       5.524   4.556  16.576  0.00  0.00    +0.000 A 
ATOM     14  C   UNL     1       4.198   5.689  18.367  0.00  0.00    +0.000 A 
ATOM     15  C   UNL     1       4.108   7.075  18.141  0.00  0.00    +0.000 A 
ATOM     16  N   UNL     1       3.080   7.648  18.793  0.00  0.00    +0.000 NA
ATOM     17  N   UNL     1       2.541   6.638  19.510  0.00  0.00    +0.000 N 
ATOM     18  C   UNL     1       3.154   5.441  19.228  0.00  0.00    +0.000 A 
ATOM     19  N   UNL     1       2.858   4.206  19.746  0.00  0.00    +0.000 N 
ATOM     20  H   UNL     1       8.411   4.669  17.766  0.00  0.00    +0.000 HD
ATOM     21  H   UNL     1       2.040   4.047  20.331  0.00  0.00    +0.000 HD
ENDROOT
BRANCH  17  22
ATOM     22  C   UNL     1       1.425   6.894  20.417  0.00  0.00    +0.000 C 
BRANCH  22  23
ATOM     23  C   UNL     1       1.142   8.365  20.669  0.00  0.00    +0.000 A 
ATOM     24  C   UNL     1       0.934   9.267  19.611  0.00  0.00    +0.000 A 
ATOM     25  C   UNL     1       0.619  10.607  19.855  0.00  0.00    +0.000 A 
ATOM     26  C   UNL     1       0.487  11.061  21.169  0.00  0.00    +0.000 A 
ATOM     27 CL   UNL     1       0.108  12.713  21.474  0.00  0.00    +0.000 Cl
ATOM     28  C   UNL     1       0.664  10.180  22.230  0.00  0.00    +0.000 A 
ATOM     29  C   UNL     1       0.980   8.840  21.985  0.00  0.00    +0.000 A 
ENDBRANCH  22  23
ENDBRANCH  17  22
TORSDOF 2
ENDMDL
MODEL 5
REMARK VINA RESULT:      -7.8      4.101      8.732
REMARK  Name = 
REMARK  2 active torsions:
REMARK  status: ('A' for Active; 'I' for Inactive)
REMARK    1  A    between atoms: N_17  and  C_18
REMARK    2  A    between atoms: C_18  and  C_19
REMARK                            x       y       z     vdW  Elec       q    Type
REMARK                         _______ _______ _______ _____ _____    ______ ____
ROOT
ATOM      1  O   UNL     1       3.305   1.835  18.429  0.00  0.00    +0.000 OA
ATOM      2  C   UNL     1       3.772   2.926  18.110  0.00  0.00    +0.000 C 
ATOM      3  C   UNL     1       5.092   3.015  17.355  0.00  0.00    +0.000 C 
ATOM      4  C   UNL     1       5.466   4.372  16.733  0.00  0.00    +0.000 C 
ATOM      5  C   UNL     1       6.907   4.661  17.240  0.00  0.00    +0.000 C 
ATOM      6  O   UNL     1       7.262   4.906  18.382  0.00  0.00    +0.000 OA
ATOM      7  N   UNL     1       7.756   4.544  16.156  0.00  0.00    +0.000 N 
ATOM      8  C   UNL     1       7.054   4.504  14.971  0.00  0.00    +0.000 A 
ATOM      9  C   UNL     1       7.612   4.551  13.710  0.00  0.00    +0.000 A 
ATOM     10  C   UNL     1       6.761   4.382  12.625  0.00  0.00    +0.000 A 
ATOM     11  C   UNL     1       5.408   4.079  12.847  0.00  0.00    +0.000 A 
ATOM     12  C   UNL     1       4.857   4.055  14.150  0.00  0.00    +0.000 A 
ATOM     13  C   UNL     1       5.681   4.341  15.230  0.00  0.00    +0.000 A 
ATOM     14  C   UNL     1       4.590   5.484  17.168  0.00  0.00    +0.000 A 
ATOM     15  C   UNL     1       4.669   6.884  17.049  0.00  0.00    +0.000 A 
ATOM     16  N   UNL     1       3.752   7.527  17.795  0.00  0.00    +0.000 NA
ATOM     17  N   UNL     1       3.119   6.538  18.463  0.00  0.00    +0.000 N 
ATOM     18  C   UNL     1       3.561   5.300  18.062  0.00  0.00    +0.000 A 
ATOM     19  N   UNL     1       3.132   4.074  18.502  0.00  0.00    +0.000 N 
ATOM     20  H   UNL     1       8.608   4.000  16.271  0.00  0.00    +0.000 HD
ATOM     21  H   UNL     1       2.326   3.972  19.117  0.00  0.00    +0.000 HD
ENDROOT
BRANCH  17  22
ATOM     22  C   UNL     1       2.086   6.858  19.444  0.00  0.00    +0.000 C 
BRANCH  22  23
ATOM     23  C   UNL     1       1.634   8.307  19.435  0.00  0.00    +0.000 A 
ATOM     24  C   UNL     1       1.549   9.045  18.242  0.00  0.00    +0.000 A 
ATOM     25  C   UNL     1       1.080  10.362  18.239  0.00  0.00    +0.000 A 
ATOM     26  C   UNL     1       0.668  10.956  19.433  0.00  0.00    +0.000 A 
ATOM     27 CL   UNL     1       0.097  12.581  19.435  0.00  0.00    +0.000 Cl
ATOM     28  C   UNL     1       0.721  10.236  20.622  0.00  0.00    +0.000 A 
ATOM     29  C   UNL     1       1.191   8.919  20.624  0.00  0.00    +0.000 A 
ENDBRANCH  22  23
ENDBRANCH  17  22
TORSDOF 2
ENDMDL
MODEL 6
REMARK VINA RESULT:      -7.7      3.959      8.395
REMARK  Name = 
REMARK  2 active torsions:
REMARK  status: ('A' for Active; 'I' for Inactive)
REMARK    1  A    between atoms: N_17  and  C_18
REMARK    2  A    between atoms: C_18  and  C_19
REMARK                            x       y       z     vdW  Elec       q    Type
REMARK                         _______ _______ _______ _____ _____    ______ ____
ROOT
ATOM      1  O   UNL     1       3.172   2.160  19.826  0.00  0.00    +0.000 OA
ATOM      2  C   UNL     1       3.564   3.255  19.430  0.00  0.00    +0.000 C 
ATOM      3  C   UNL     1       4.914   3.394  18.740  0.00  0.00    +0.000 C 
ATOM      4  C   UNL     1       5.210   4.717  18.013  0.00  0.00    +0.000 C 
ATOM      5  C   UNL     1       6.589   5.178  18.564  0.00  0.00    +0.000 C 
ATOM      6  O   UNL     1       6.852   5.555  19.695  0.00  0.00    +0.000 OA
ATOM      7  N   UNL     1       7.508   5.041  17.542  0.00  0.00    +0.000 N 
ATOM      8  C   UNL     1       6.884   4.832  16.331  0.00  0.00    +0.000 A 
ATOM      9  C   UNL     1       7.511   4.816  15.102  0.00  0.00    +0.000 A 
ATOM     10  C   UNL     1       6.745   4.475  13.995  0.00  0.00    +0.000 A 
ATOM     11  C   UNL     1       5.411   4.074  14.174  0.00  0.00    +0.000 A 
ATOM     12  C   UNL     1       4.786   4.118  15.443  0.00  0.00    +0.000 A 
ATOM     13  C   UNL     1       5.517   4.572  16.533  0.00  0.00    +0.000 A 
ATOM     14  C   UNL     1       4.219   5.782  18.294  0.00  0.00    +0.000 A 
ATOM     15  C   UNL     1       4.187   7.166  18.048  0.00  0.00    +0.000 A 
ATOM     16  N   UNL     1       3.176   7.789  18.680  0.00  0.00    +0.000 NA
ATOM     17  N   UNL     1       2.589   6.811  19.405  0.00  0.00    +0.000 N 
ATOM     18  C   UNL     1       3.157   5.587  19.147  0.00  0.00    +0.000 A 
ATOM     19  N   UNL     1       2.807   4.372  19.678  0.00  0.00    +0.000 N 
ATOM     20  H   UNL     1       8.395   4.587  17.752  0.00  0.00    +0.000 HD
ATOM     21  H   UNL     1       1.977   4.254  20.256  0.00  0.00    +0.000 HD
ENDROOT
BRANCH  17  22
ATOM     22  C   UNL     1       1.476   7.124  20.296  0.00  0.00    +0.000 C 
BRANCH  22  23
ATOM     23  C   UNL     1       1.101   8.595  20.347  0.00  0.00    +0.000 A 
ATOM     24  C   UNL     1       1.039   9.298  21.563  0.00  0.00    +0.000 A 
ATOM     25  C   UNL     1       0.746  10.665  21.592  0.00  0.00    +0.000 A 
ATOM     26  C   UNL     1       0.532  11.356  20.398  0.00  0.00    +0.000 A 
ATOM     27 CL   UNL     1       0.164  13.038  20.431  0.00  0.00    +0.000 Cl
ATOM     28  C   UNL     1       0.613  10.685  19.183  0.00  0.00    +0.000 A 
ATOM     29  C   UNL     1       0.905   9.318  19.154  0.00  0.00    +0.000 A 
ENDBRANCH  22  23
ENDBRANCH  17  22
TORSDOF 2
ENDMDL
MODEL 7
REMARK VINA RESULT:      -7.6      4.204      8.634
REMARK  Name = 
REMARK  2 active torsions:
REMARK  status: ('A' for Active; 'I' for Inactive)
REMARK    1  A    between atoms: N_17  and  C_18
REMARK    2  A    between atoms: C_18  and  C_19
REMARK                            x       y       z     vdW  Elec       q    Type
REMARK                         _______ _______ _______ _____ _____    ______ ____
ROOT
ATOM      1  O   UNL     1      -2.650  11.702  16.935  0.00  0.00    +0.000 OA
ATOM      2  C   UNL     1      -1.712  11.805  17.720  0.00  0.00    +0.000 C 
ATOM      3  C   UNL     1      -1.338  10.652  18.642  0.00  0.00    +0.000 C 
ATOM      4  C   UNL     1       0.010  10.735  19.377  0.00  0.00    +0.000 C 
ATOM      5  C   UNL     1      -0.332  10.479  20.872  0.00  0.00    +0.000 C 
ATOM      6  O   UNL     1      -0.969  11.197  21.626  0.00  0.00    +0.000 OA
ATOM      7  N   UNL     1       0.181   9.239  21.205  0.00  0.00    +0.000 N 
ATOM      8  C   UNL     1       1.048   8.778  20.238  0.00  0.00    +0.000 A 
ATOM      9  C   UNL     1       1.841   7.655  20.347  0.00  0.00    +0.000 A 
ATOM     10  C   UNL     1       2.569   7.273  19.228  0.00  0.00    +0.000 A 
ATOM     11  C   UNL     1       2.401   7.971  18.021  0.00  0.00    +0.000 A 
ATOM     12  C   UNL     1       1.596   9.132  17.941  0.00  0.00    +0.000 A 
ATOM     13  C   UNL     1       0.960   9.585  19.090  0.00  0.00    +0.000 A 
ATOM     14  C   UNL     1       0.662  12.060  19.271  0.00  0.00    +0.000 A 
ATOM     15  C   UNL     1       1.750  12.662  19.930  0.00  0.00    +0.000 A 
ATOM     16  N   UNL     1       1.857  13.978  19.672  0.00  0.00    +0.000 NA
ATOM     17  N   UNL     1       0.784  14.251  18.898  0.00  0.00    +0.000 N 
ATOM     18  C   UNL     1       0.083  13.109  18.594  0.00  0.00    +0.000 A 
ATOM     19  N   UNL     1      -1.041  12.998  17.816  0.00  0.00    +0.000 N 
ATOM     20  H   UNL     1      -0.420   8.593  21.712  0.00  0.00    +0.000 HD
ATOM     21  H   UNL     1      -1.405  13.783  17.278  0.00  0.00    +0.000 HD
ENDROOT
BRANCH  17  22
ATOM     22  C   UNL     1       0.516  15.621  18.470  0.00  0.00    +0.000 C 
BRANCH  22  23
ATOM     23  C   UNL     1      -0.647  16.289  19.183  0.00  0.00    +0.000 A 
ATOM     24  C   UNL     1      -1.309  17.400  18.631  0.00  0.00    +0.000 A 
ATOM     25  C   UNL     1      -2.413  17.973  19.269  0.00  0.00    +0.000 A 
ATOM     26  C   UNL     1      -2.885  17.428  20.464  0.00  0.00    +0.000 A 
ATOM     27 CL   UNL     1      -4.240  18.137  21.257  0.00  0.00    +0.000 Cl
ATOM     28  C   UNL     1      -2.260  16.314  21.015  0.00  0.00    +0.000 A 
ATOM     29  C   UNL     1      -1.156  15.742  20.376  0.00  0.00    +0.000 A 
ENDBRANCH  22  23
ENDBRANCH  17  22
TORSDOF 2
ENDMDL
MODEL 8
REMARK VINA RESULT:      -7.5      3.664      8.012
REMARK  Name = 
REMARK  2 active torsions:
REMARK  status: ('A' for Active; 'I' for Inactive)
REMARK    1  A    between atoms: N_17  and  C_18
REMARK    2  A    between atoms: C_18  and  C_19
REMARK                            x       y       z     vdW  Elec       q    Type
REMARK                         _______ _______ _______ _____ _____    ______ ____
ROOT
ATOM      1  O   UNL     1      -3.099  11.803  18.416  0.00  0.00    +0.000 OA
ATOM      2  C   UNL     1      -2.077  11.760  19.097  0.00  0.00    +0.000 C 
ATOM      3  C   UNL     1      -1.473  10.424  19.509  0.00  0.00    +0.000 C 
ATOM      4  C   UNL     1      -0.052  10.437  20.099  0.00  0.00    +0.000 C 
ATOM      5  C   UNL     1      -0.163   9.640  21.429  0.00  0.00    +0.000 C 
ATOM      6  O   UNL     1      -0.760   9.961  22.444  0.00  0.00    +0.000 OA
ATOM      7  N   UNL     1       0.508   8.445  21.250  0.00  0.00    +0.000 N 
ATOM      8  C   UNL     1       1.277   8.467  20.107  0.00  0.00    +0.000 A 
ATOM      9  C   UNL     1       2.184   7.496  19.736  0.00  0.00    +0.000 A 
ATOM     10  C   UNL     1       2.788   7.625  18.492  0.00  0.00    +0.000 A 
ATOM     11  C   UNL     1       2.392   8.664  17.634  0.00  0.00    +0.000 A 
ATOM     12  C   UNL     1       1.474   9.658  18.047  0.00  0.00    +0.000 A 
ATOM     13  C   UNL     1       0.958   9.598  19.335  0.00  0.00    +0.000 A 
ATOM     14  C   UNL     1       0.447  11.795  20.413  0.00  0.00    +0.000 A 
ATOM     15  C   UNL     1       1.550  12.280  21.139  0.00  0.00    +0.000 A 
ATOM     16  N   UNL     1       1.493  13.606  21.359  0.00  0.00    +0.000 NA
ATOM     17  N   UNL     1       0.304  13.976  20.835  0.00  0.00    +0.000 N 
ATOM     18  C   UNL     1      -0.317  12.922  20.209  0.00  0.00    +0.000 A 
ATOM     19  N   UNL     1      -1.519  12.929  19.550  0.00  0.00    +0.000 N 
ATOM     20  H   UNL     1       0.047   7.587  21.547  0.00  0.00    +0.000 HD
ATOM     21  H   UNL     1      -2.027  13.792  19.363  0.00  0.00    +0.000 HD
ENDROOT
BRANCH  17  22
ATOM     22  C   UNL     1      -0.151  15.358  20.949  0.00  0.00    +0.000 C 
BRANCH  22  23
ATOM     23  C   UNL     1       0.118  16.215  19.725  0.00  0.00    +0.000 A 
ATOM     24  C   UNL     1       1.423  16.428  19.248  0.00  0.00    +0.000 A 
ATOM     25  C   UNL     1       1.655  17.173  18.088  0.00  0.00    +0.000 A 
ATOM     26  C   UNL     1       0.578  17.702  17.375  0.00  0.00    +0.000 A 
ATOM     27 CL   UNL     1       0.861  18.628  15.950  0.00  0.00    +0.000 Cl
ATOM     28  C   UNL     1      -0.722  17.483  17.816  0.00  0.00    +0.000 A 
ATOM     29  C   UNL     1      -0.954  16.738  18.976  0.00  0.00    +0.000 A 
ENDBRANCH  22  23
ENDBRANCH  17  22
TORSDOF 2
ENDMDL
MODEL 9
REMARK VINA RESULT:      -7.5      2.530      4.005
REMARK  Name = 
REMARK  2 active torsions:
REMARK  status: ('A' for Active; 'I' for Inactive)
REMARK    1  A    between atoms: N_17  and  C_18
REMARK    2  A    between atoms: C_18  and  C_19
REMARK                            x       y       z     vdW  Elec       q    Type
REMARK                         _______ _______ _______ _____ _____    ______ ____
ROOT
ATOM      1  O   UNL     1       2.430  11.741  17.476  0.00  0.00    +0.000 OA
ATOM      2  C   UNL     1       1.718  11.301  18.375  0.00  0.00    +0.000 C 
ATOM      3  C   UNL     1       0.613  12.157  18.981  0.00  0.00    +0.000 C 
ATOM      4  C   UNL     1      -0.419  11.455  19.880  0.00  0.00    +0.000 C 
ATOM      5  C   UNL     1      -0.450  12.296  21.187  0.00  0.00    +0.000 C 
ATOM      6  O   UNL     1       0.435  12.413  22.021  0.00  0.00    +0.000 OA
ATOM      7  N   UNL     1      -1.666  12.951  21.228  0.00  0.00    +0.000 N 
ATOM      8  C   UNL     1      -2.541  12.442  20.293  0.00  0.00    +0.000 A 
ATOM      9  C   UNL     1      -3.878  12.768  20.189  0.00  0.00    +0.000 A 
ATOM     10  C   UNL     1      -4.583  12.247  19.113  0.00  0.00    +0.000 A 
ATOM     11  C   UNL     1      -3.905  11.500  18.136  0.00  0.00    +0.000 A 
ATOM     12  C   UNL     1      -2.538  11.163  18.276  0.00  0.00    +0.000 A 
ATOM     13  C   UNL     1      -1.858  11.584  19.412  0.00  0.00    +0.000 A 
ATOM     14  C   UNL     1      -0.050  10.065  20.232  0.00  0.00    +0.000 A 
ATOM     15  C   UNL     1      -0.544   9.137  21.167  0.00  0.00    +0.000 A 
ATOM     16  N   UNL     1       0.245   8.055  21.301  0.00  0.00    +0.000 NA
ATOM     17  N   UNL     1       1.301   8.317  20.500  0.00  0.00    +0.000 N 
ATOM     18  C   UNL     1       1.122   9.486  19.802  0.00  0.00    +0.000 A 
ATOM     19  N   UNL     1       1.969  10.053  18.884  0.00  0.00    +0.000 N 
ATOM     20  H   UNL     1      -1.669  13.943  21.453  0.00  0.00    +0.000 HD
ATOM     21  H   UNL     1       2.797   9.568  18.542  0.00  0.00    +0.000 HD
ENDROOT
BRANCH  17  22
ATOM     22  C   UNL     1       2.424   7.386  20.437  0.00  0.00    +0.000 C 
BRANCH  22  23
ATOM     23  C   UNL     1       2.060   5.989  19.967  0.00  0.00    +0.000 A 
ATOM     24  C   UNL     1       1.561   5.020  20.854  0.00  0.00    +0.000 A 
ATOM     25  C   UNL     1       1.178   3.754  20.400  0.00  0.00    +0.000 A 
ATOM     26  C   UNL     1       1.270   3.445  19.042  0.00  0.00    +0.000 A 
ATOM     27 CL   UNL     1       0.807   1.885  18.480  0.00  0.00    +0.000 Cl
ATOM     28  C   UNL     1       1.738   4.398  18.143  0.00  0.00    +0.000 A 
ATOM     29  C   UNL     1       2.122   5.663  18.598  0.00  0.00    +0.000 A 
ENDBRANCH  22  23
ENDBRANCH  17  22
TORSDOF 2
ENDMDL
