MODEL 1
REMARK VINA RESULT:      -8.3      0.000      0.000
REMARK  Name = 
REMARK  5 active torsions:
REMARK  status: ('A' for Active; 'I' for Inactive)
REMARK    1  A    between atoms: C_1  and  C_2
REMARK    2  A    between atoms: C_2  and  N_3
REMARK    3  A    between atoms: C_2  and  C_14
REMARK    4  A    between atoms: C_4  and  C_6
REMARK    5  A    between atoms: C_6  and  C_7
REMARK                            x       y       z     vdW  Elec       q    Type
REMARK                         _______ _______ _______ _____ _____    ______ ____
ROOT
ATOM      1  N   UNL     1       5.635   4.194  17.063  0.00  0.00    +0.000 N 
ATOM      2  C   UNL     1       5.484   4.045  18.421  0.00  0.00    +0.000 C 
ATOM      3  O   UNL     1       6.202   4.573  19.262  0.00  0.00    +0.000 OA
ATOM      4  H   UNL     1       5.070   3.626  16.450  0.00  0.00    +0.000 HD
ENDROOT
BRANCH   1   6
ATOM      5  C   UNL     1       6.778   6.379  16.872  0.00  0.00    +0.000 C 
ATOM      6  C   UNL     1       6.742   4.913  16.432  0.00  0.00    +0.000 C 
BRANCH   6   7
ATOM      7  C   UNL     1       6.843   4.699  14.927  0.00  0.00    +0.000 A 
ATOM      8  C   UNL     1       6.017   3.794  14.254  0.00  0.00    +0.000 A 
ATOM      9  C   UNL     1       6.167   3.625  12.881  0.00  0.00    +0.000 A 
ATOM     10  C   UNL     1       7.139   4.351  12.212  0.00  0.00    +0.000 A 
ATOM     11  C   UNL     1       7.922   5.229  12.947  0.00  0.00    +0.000 A 
ATOM     12  N   UNL     1       7.792   5.425  14.278  0.00  0.00    +0.000 NA
ENDBRANCH   6   7
ENDBRANCH   1   6
BRANCH   2  13
ATOM     13  C   UNL     1       4.345   3.117  18.810  0.00  0.00    +0.000 C 
BRANCH  13  14
ATOM     14  C   UNL     1       3.438   3.820  19.820  0.00  0.00    +0.000 C 
ATOM     15  C   UNL     1       2.713   2.834  20.768  0.00  0.00    +0.000 C 
ATOM     16  C   UNL     1       1.241   3.246  20.634  0.00  0.00    +0.000 C 
ATOM     17  C   UNL     1       0.731   2.797  19.253  0.00  0.00    +0.000 C 
ATOM     18  C   UNL     1       1.383   3.805  18.298  0.00  0.00    +0.000 C 
ATOM     19  C   UNL     1       2.268   4.644  19.235  0.00  0.00    +0.000 C 
ATOM     20  C   UNL     1       1.354   4.760  20.460  0.00  0.00    +0.000 C 
ENDBRANCH  13  14
ENDBRANCH   2  13
TORSDOF 4
ENDMDL
MODEL 2
REMARK VINA RESULT:      -8.3      1.051      1.821
REMARK  Name = 
REMARK  5 active torsions:
REMARK  status: ('A' for Active; 'I' for Inactive)
REMARK    1  A    between atoms: C_1  and  C_2
REMARK    2  A    between atoms: C_2  and  N_3
REMARK    3  A    between atoms: C_2  and  C_14
REMARK    4  A    between atoms: C_4  and  C_6
REMARK    5  A    between atoms: C_6  and  C_7
REMARK                            x       y       z     vdW  Elec       q    Type
REMARK                         _______ _______ _______ _____ _____    ______ ____
ROOT
ATOM      1  N   UNL     1       5.531   5.952  18.086  0.00  0.00    +0.000 N 
ATOM      2  C   UNL     1       5.233   5.019  19.050  0.00  0.00    +0.000 C 
ATOM      3  O   UNL     1       5.999   4.138  19.424  0.00  0.00    +0.000 OA
ATOM      4  H   UNL     1       4.795   6.562  17.763  0.00  0.00    +0.000 HD
ENDROOT
BRANCH   1   6
ATOM      5  C   UNL     1       7.424   7.334  17.296  0.00  0.00    +0.000 C 
ATOM      6  C   UNL     1       6.760   5.954  17.293  0.00  0.00    +0.000 C 
BRANCH   6   7
ATOM      7  C   UNL     1       6.611   5.324  15.915  0.00  0.00    +0.000 A 
ATOM      8  C   UNL     1       5.511   4.526  15.585  0.00  0.00    +0.000 A 
ATOM      9  C   UNL     1       5.437   3.960  14.315  0.00  0.00    +0.000 A 
ATOM     10  C   UNL     1       6.459   4.192  13.410  0.00  0.00    +0.000 A 
ATOM     11  C   UNL     1       7.518   4.992  13.810  0.00  0.00    +0.000 A 
ATOM     12  N   UNL     1       7.614   5.566  15.029  0.00  0.00    +0.000 NA
ENDBRANCH   6   7
ENDBRANCH   1   6
BRANCH   2  13
ATOM     13  C   UNL     1       3.826   5.145  19.609  0.00  0.00    +0.000 C 
BRANCH  13  14
ATOM     14  C   UNL     1       2.943   4.046  19.018  0.00  0.00    +0.000 C 
ATOM     15  C   UNL     1       1.431   4.361  19.132  0.00  0.00    +0.000 C 
ATOM     16  C   UNL     1       0.865   3.101  19.801  0.00  0.00    +0.000 C 
ATOM     17  C   UNL     1       1.302   3.093  21.276  0.00  0.00    +0.000 C 
ATOM     18  C   UNL     1       2.787   2.714  21.196  0.00  0.00    +0.000 C 
ATOM     19  C   UNL     1       3.045   2.653  19.680  0.00  0.00    +0.000 C 
ATOM     20  C   UNL     1       1.742   2.005  19.197  0.00  0.00    +0.000 C 
ENDBRANCH  13  14
ENDBRANCH   2  13
TORSDOF 4
ENDMDL
MODEL 3
REMARK VINA RESULT:      -8.0      1.135      1.727
REMARK  Name = 
REMARK  5 active torsions:
REMARK  status: ('A' for Active; 'I' for Inactive)
REMARK    1  A    between atoms: C_1  and  C_2
REMARK    2  A    between atoms: C_2  and  N_3
REMARK    3  A    between atoms: C_2  and  C_14
REMARK    4  A    between atoms: C_4  and  C_6
REMARK    5  A    between atoms: C_6  and  C_7
REMARK                            x       y       z     vdW  Elec       q    Type
REMARK                         _______ _______ _______ _____ _____    ______ ____
ROOT
ATOM      1  N   UNL     1       5.487   5.918  17.958  0.00  0.00    +0.000 N 
ATOM      2  C   UNL     1       5.297   5.303  19.174  0.00  0.00    +0.000 C 
ATOM      3  O   UNL     1       6.178   4.738  19.811  0.00  0.00    +0.000 OA
ATOM      4  H   UNL     1       4.678   6.252  17.457  0.00  0.00    +0.000 HD
ENDROOT
BRANCH   1   6
ATOM      5  C   UNL     1       7.449   7.241  17.239  0.00  0.00    +0.000 C 
ATOM      6  C   UNL     1       6.740   5.884  17.205  0.00  0.00    +0.000 C 
BRANCH   6   7
ATOM      7  C   UNL     1       6.614   5.268  15.818  0.00  0.00    +0.000 A 
ATOM      8  C   UNL     1       5.524   4.467  15.464  0.00  0.00    +0.000 A 
ATOM      9  C   UNL     1       5.471   3.915  14.188  0.00  0.00    +0.000 A 
ATOM     10  C   UNL     1       6.504   4.163  13.299  0.00  0.00    +0.000 A 
ATOM     11  C   UNL     1       7.553   4.965  13.723  0.00  0.00    +0.000 A 
ATOM     12  N   UNL     1       7.628   5.526  14.949  0.00  0.00    +0.000 NA
ENDBRANCH   6   7
ENDBRANCH   1   6
BRANCH   2  13
ATOM     13  C   UNL     1       3.860   5.351  19.664  0.00  0.00    +0.000 C 
BRANCH  13  14
ATOM     14  C   UNL     1       3.321   3.927  19.799  0.00  0.00    +0.000 C 
ATOM     15  C   UNL     1       4.078   2.909  18.910  0.00  0.00    +0.000 C 
ATOM     16  C   UNL     1       2.946   2.218  18.137  0.00  0.00    +0.000 C 
ATOM     17  C   UNL     1       2.394   3.205  17.093  0.00  0.00    +0.000 C 
ATOM     18  C   UNL     1       1.580   4.190  17.944  0.00  0.00    +0.000 C 
ATOM     19  C   UNL     1       1.849   3.707  19.380  0.00  0.00    +0.000 C 
ATOM     20  C   UNL     1       1.828   2.188  19.178  0.00  0.00    +0.000 C 
ENDBRANCH  13  14
ENDBRANCH   2  13
TORSDOF 4
ENDMDL
MODEL 4
REMARK VINA RESULT:      -7.9      1.045      1.439
REMARK  Name = 
REMARK  5 active torsions:
REMARK  status: ('A' for Active; 'I' for Inactive)
REMARK    1  A    between atoms: C_1  and  C_2
REMARK    2  A    between atoms: C_2  and  N_3
REMARK    3  A    between atoms: C_2  and  C_14
REMARK    4  A    between atoms: C_4  and  C_6
REMARK    5  A    between atoms: C_6  and  C_7
REMARK                            x       y       z     vdW  Elec       q    Type
REMARK                         _______ _______ _______ _____ _____    ______ ____
ROOT
ATOM      1  N   UNL     1       6.012   3.961  17.079  0.00  0.00    +0.000 N 
ATOM      2  C   UNL     1       4.707   4.363  17.238  0.00  0.00    +0.000 C 
ATOM      3  O   UNL     1       4.232   5.385  16.757  0.00  0.00    +0.000 OA
ATOM      4  H   UNL     1       6.340   3.169  17.611  0.00  0.00    +0.000 HD
ENDROOT
BRANCH   1   6
ATOM      5  C   UNL     1       7.075   6.190  16.936  0.00  0.00    +0.000 C 
ATOM      6  C   UNL     1       7.042   4.753  16.407  0.00  0.00    +0.000 C 
BRANCH   6   7
ATOM      7  C   UNL     1       7.024   4.635  14.889  0.00  0.00    +0.000 A 
ATOM      8  C   UNL     1       6.170   3.746  14.229  0.00  0.00    +0.000 A 
ATOM      9  C   UNL     1       6.210   3.668  12.840  0.00  0.00    +0.000 A 
ATOM     10  C   UNL     1       7.101   4.465  12.142  0.00  0.00    +0.000 A 
ATOM     11  C   UNL     1       7.919   5.321  12.866  0.00  0.00    +0.000 A 
ATOM     12  N   UNL     1       7.895   5.430  14.212  0.00  0.00    +0.000 NA
ENDBRANCH   6   7
ENDBRANCH   1   6
BRANCH   2  13
ATOM     13  C   UNL     1       3.884   3.433  18.113  0.00  0.00    +0.000 C 
BRANCH  13  14
ATOM     14  C   UNL     1       2.757   4.224  18.777  0.00  0.00    +0.000 C 
ATOM     15  C   UNL     1       3.195   4.905  20.098  0.00  0.00    +0.000 C 
ATOM     16  C   UNL     1       2.133   4.432  21.099  0.00  0.00    +0.000 C 
ATOM     17  C   UNL     1       2.379   2.945  21.409  0.00  0.00    +0.000 C 
ATOM     18  C   UNL     1       1.887   2.240  20.137  0.00  0.00    +0.000 C 
ATOM     19  C   UNL     1       1.515   3.414  19.215  0.00  0.00    +0.000 C 
ATOM     20  C   UNL     1       0.880   4.378  20.224  0.00  0.00    +0.000 C 
ENDBRANCH  13  14
ENDBRANCH   2  13
TORSDOF 4
ENDMDL
MODEL 5
REMARK VINA RESULT:      -7.8      1.347      1.911
REMARK  Name = 
REMARK  5 active torsions:
REMARK  status: ('A' for Active; 'I' for Inactive)
REMARK    1  A    between atoms: C_1  and  C_2
REMARK    2  A    between atoms: C_2  and  N_3
REMARK    3  A    between atoms: C_2  and  C_14
REMARK    4  A    between atoms: C_4  and  C_6
REMARK    5  A    between atoms: C_6  and  C_7
REMARK                            x       y       z     vdW  Elec       q    Type
REMARK                         _______ _______ _______ _____ _____    ______ ____
ROOT
ATOM      1  N   UNL     1       5.509   5.081  17.563  0.00  0.00    +0.000 N 
ATOM      2  C   UNL     1       4.479   5.988  17.478  0.00  0.00    +0.000 C 
ATOM      3  O   UNL     1       4.487   6.983  16.763  0.00  0.00    +0.000 OA
ATOM      4  H   UNL     1       5.458   4.360  18.267  0.00  0.00    +0.000 HD
ENDROOT
BRANCH   1   6
ATOM      5  C   UNL     1       7.440   6.590  17.229  0.00  0.00    +0.000 C 
ATOM      6  C   UNL     1       6.802   5.238  16.897  0.00  0.00    +0.000 C 
BRANCH   6   7
ATOM      7  C   UNL     1       6.782   4.891  15.415  0.00  0.00    +0.000 A 
ATOM      8  C   UNL     1       5.843   4.006  14.877  0.00  0.00    +0.000 A 
ATOM      9  C   UNL     1       5.884   3.711  13.518  0.00  0.00    +0.000 A 
ATOM     10  C   UNL     1       6.861   4.294  12.728  0.00  0.00    +0.000 A 
ATOM     11  C   UNL     1       7.760   5.160  13.332  0.00  0.00    +0.000 A 
ATOM     12  N   UNL     1       7.739   5.477  14.645  0.00  0.00    +0.000 NA
ENDBRANCH   6   7
ENDBRANCH   1   6
BRANCH   2  13
ATOM     13  C   UNL     1       3.309   5.671  18.394  0.00  0.00    +0.000 C 
BRANCH  13  14
ATOM     14  C   UNL     1       2.972   4.183  18.293  0.00  0.00    +0.000 C 
ATOM     15  C   UNL     1       1.497   3.925  17.897  0.00  0.00    +0.000 C 
ATOM     16  C   UNL     1       1.011   2.960  18.986  0.00  0.00    +0.000 C 
ATOM     17  C   UNL     1       0.857   3.744  20.301  0.00  0.00    +0.000 C 
ATOM     18  C   UNL     1       2.308   3.954  20.752  0.00  0.00    +0.000 C 
ATOM     19  C   UNL     1       3.120   3.355  19.590  0.00  0.00    +0.000 C 
ATOM     20  C   UNL     1       2.266   2.128  19.250  0.00  0.00    +0.000 C 
ENDBRANCH  13  14
ENDBRANCH   2  13
TORSDOF 4
ENDMDL
MODEL 6
REMARK VINA RESULT:      -7.7      0.832      1.519
REMARK  Name = 
REMARK  5 active torsions:
REMARK  status: ('A' for Active; 'I' for Inactive)
REMARK    1  A    between atoms: C_1  and  C_2
REMARK    2  A    between atoms: C_2  and  N_3
REMARK    3  A    between atoms: C_2  and  C_14
REMARK    4  A    between atoms: C_4  and  C_6
REMARK    5  A    between atoms: C_6  and  C_7
REMARK                            x       y       z     vdW  Elec       q    Type
REMARK                         _______ _______ _______ _____ _____    ______ ____
ROOT
ATOM      1  N   UNL     1       4.976   4.233  16.896  0.00  0.00    +0.000 N 
ATOM      2  C   UNL     1       5.068   3.903  18.227  0.00  0.00    +0.000 C 
ATOM      3  O   UNL     1       5.806   4.460  19.031  0.00  0.00    +0.000 OA
ATOM      4  H   UNL     1       4.428   3.640  16.290  0.00  0.00    +0.000 HD
ENDROOT
BRANCH   1   6
ATOM      5  C   UNL     1       5.249   6.631  16.357  0.00  0.00    +0.000 C 
ATOM      6  C   UNL     1       5.827   5.219  16.230  0.00  0.00    +0.000 C 
BRANCH   6   7
ATOM      7  C   UNL     1       6.244   4.827  14.819  0.00  0.00    +0.000 A 
ATOM      8  C   UNL     1       5.505   3.917  14.058  0.00  0.00    +0.000 A 
ATOM      9  C   UNL     1       5.944   3.582  12.781  0.00  0.00    +0.000 A 
ATOM     10  C   UNL     1       7.110   4.151  12.294  0.00  0.00    +0.000 A 
ATOM     11  C   UNL     1       7.791   5.044  13.109  0.00  0.00    +0.000 A 
ATOM     12  N   UNL     1       7.384   5.399  14.347  0.00  0.00    +0.000 NA
ENDBRANCH   6   7
ENDBRANCH   1   6
BRANCH   2  13
ATOM     13  C   UNL     1       4.183   2.735  18.630  0.00  0.00    +0.000 C 
BRANCH  13  14
ATOM     14  C   UNL     1       2.725   3.192  18.671  0.00  0.00    +0.000 C 
ATOM     15  C   UNL     1       2.573   4.691  19.031  0.00  0.00    +0.000 C 
ATOM     16  C   UNL     1       1.576   4.666  20.198  0.00  0.00    +0.000 C 
ATOM     17  C   UNL     1       2.293   4.109  21.441  0.00  0.00    +0.000 C 
ATOM     18  C   UNL     1       2.396   2.608  21.139  0.00  0.00    +0.000 C 
ATOM     19  C   UNL     1       1.819   2.503  19.716  0.00  0.00    +0.000 C 
ATOM     20  C   UNL     1       0.662   3.505  19.804  0.00  0.00    +0.000 C 
ENDBRANCH  13  14
ENDBRANCH   2  13
TORSDOF 4
ENDMDL
MODEL 7
REMARK VINA RESULT:      -7.7      1.381      1.984
REMARK  Name = 
REMARK  5 active torsions:
REMARK  status: ('A' for Active; 'I' for Inactive)
REMARK    1  A    between atoms: C_1  and  C_2
REMARK    2  A    between atoms: C_2  and  N_3
REMARK    3  A    between atoms: C_2  and  C_14
REMARK    4  A    between atoms: C_4  and  C_6
REMARK    5  A    between atoms: C_6  and  C_7
REMARK                            x       y       z     vdW  Elec       q    Type
REMARK                         _______ _______ _______ _____ _____    ______ ____
ROOT
ATOM      1  N   UNL     1       5.766   5.048  18.748  0.00  0.00    +0.000 N 
ATOM      2  C   UNL     1       4.604   5.774  18.640  0.00  0.00    +0.000 C 
ATOM      3  O   UNL     1       4.370   6.582  17.749  0.00  0.00    +0.000 OA
ATOM      4  H   UNL     1       5.913   4.497  19.581  0.00  0.00    +0.000 HD
ENDROOT
BRANCH   1   6
ATOM      5  C   UNL     1       7.562   6.604  18.063  0.00  0.00    +0.000 C 
ATOM      6  C   UNL     1       6.929   5.221  17.879  0.00  0.00    +0.000 C 
BRANCH   6   7
ATOM      7  C   UNL     1       6.687   4.820  16.431  0.00  0.00    +0.000 A 
ATOM      8  C   UNL     1       5.764   3.829  16.085  0.00  0.00    +0.000 A 
ATOM      9  C   UNL     1       5.597   3.491  14.745  0.00  0.00    +0.000 A 
ATOM     10  C   UNL     1       6.356   4.136  13.784  0.00  0.00    +0.000 A 
ATOM     11  C   UNL     1       7.253   5.108  14.203  0.00  0.00    +0.000 A 
ATOM     12  N   UNL     1       7.429   5.468  15.493  0.00  0.00    +0.000 NA
ENDBRANCH   6   7
ENDBRANCH   1   6
BRANCH   2  13
ATOM     13  C   UNL     1       3.615   5.516  19.764  0.00  0.00    +0.000 C 
BRANCH  13  14
ATOM     14  C   UNL     1       2.385   4.800  19.207  0.00  0.00    +0.000 C 
ATOM     15  C   UNL     1       1.207   4.753  20.212  0.00  0.00    +0.000 C 
ATOM     16  C   UNL     1       0.847   3.262  20.251  0.00  0.00    +0.000 C 
ATOM     17  C   UNL     1       1.951   2.512  21.017  0.00  0.00    +0.000 C 
ATOM     18  C   UNL     1       3.112   2.484  20.014  0.00  0.00    +0.000 C 
ATOM     19  C   UNL     1       2.567   3.310  18.835  0.00  0.00    +0.000 C 
ATOM     20  C   UNL     1       1.109   2.837  18.807  0.00  0.00    +0.000 C 
ENDBRANCH  13  14
ENDBRANCH   2  13
TORSDOF 4
ENDMDL
MODEL 8
REMARK VINA RESULT:      -7.6      0.855      1.183
REMARK  Name = 
REMARK  5 active torsions:
REMARK  status: ('A' for Active; 'I' for Inactive)
REMARK    1  A    between atoms: C_1  and  C_2
REMARK    2  A    between atoms: C_2  and  N_3
REMARK    3  A    between atoms: C_2  and  C_14
REMARK    4  A    between atoms: C_4  and  C_6
REMARK    5  A    between atoms: C_6  and  C_7
REMARK                            x       y       z     vdW  Elec       q    Type
REMARK                         _______ _______ _______ _____ _____    ______ ____
ROOT
ATOM      1  N   UNL     1       5.340   4.962  16.974  0.00  0.00    +0.000 N 
ATOM      2  C   UNL     1       4.990   5.115  18.295  0.00  0.00    +0.000 C 
ATOM      3  O   UNL     1       5.764   5.450  19.184  0.00  0.00    +0.000 OA
ATOM      4  H   UNL     1       4.661   4.569  16.340  0.00  0.00    +0.000 HD
ENDROOT
BRANCH   1   6
ATOM      5  C   UNL     1       7.375   6.367  16.932  0.00  0.00    +0.000 C 
ATOM      6  C   UNL     1       6.707   5.070  16.467  0.00  0.00    +0.000 C 
BRANCH   6   7
ATOM      7  C   UNL     1       6.840   4.785  14.977  0.00  0.00    +0.000 A 
ATOM      8  C   UNL     1       6.031   3.846  14.331  0.00  0.00    +0.000 A 
ATOM      9  C   UNL     1       6.209   3.614  12.970  0.00  0.00    +0.000 A 
ATOM     10  C   UNL     1       7.191   4.312  12.287  0.00  0.00    +0.000 A 
ATOM     11  C   UNL     1       7.956   5.226  12.996  0.00  0.00    +0.000 A 
ATOM     12  N   UNL     1       7.799   5.484  14.312  0.00  0.00    +0.000 NA
ENDBRANCH   6   7
ENDBRANCH   1   6
BRANCH   2  13
ATOM     13  C   UNL     1       3.534   4.791  18.583  0.00  0.00    +0.000 C 
BRANCH  13  14
ATOM     14  C   UNL     1       3.454   3.755  19.703  0.00  0.00    +0.000 C 
ATOM     15  C   UNL     1       2.838   2.411  19.239  0.00  0.00    +0.000 C 
ATOM     16  C   UNL     1       1.723   2.170  20.265  0.00  0.00    +0.000 C 
ATOM     17  C   UNL     1       0.579   3.160  19.986  0.00  0.00    +0.000 C 
ATOM     18  C   UNL     1       1.139   4.492  20.503  0.00  0.00    +0.000 C 
ATOM     19  C   UNL     1       2.574   4.123  20.919  0.00  0.00    +0.000 C 
ATOM     20  C   UNL     1       2.342   2.741  21.541  0.00  0.00    +0.000 C 
ENDBRANCH  13  14
ENDBRANCH   2  13
TORSDOF 4
ENDMDL
MODEL 9
REMARK VINA RESULT:      -7.6      1.900      3.424
REMARK  Name = 
REMARK  5 active torsions:
REMARK  status: ('A' for Active; 'I' for Inactive)
REMARK    1  A    between atoms: C_1  and  C_2
REMARK    2  A    between atoms: C_2  and  N_3
REMARK    3  A    between atoms: C_2  and  C_14
REMARK    4  A    between atoms: C_4  and  C_6
REMARK    5  A    between atoms: C_6  and  C_7
REMARK                            x       y       z     vdW  Elec       q    Type
REMARK                         _______ _______ _______ _____ _____    ______ ____
ROOT
ATOM      1  N   UNL     1       4.212   4.916  16.691  0.00  0.00    +0.000 N 
ATOM      2  C   UNL     1       3.480   5.801  17.446  0.00  0.00    +0.000 C 
ATOM      3  O   UNL     1       3.783   6.975  17.629  0.00  0.00    +0.000 OA
ATOM      4  H   UNL     1       3.946   3.943  16.697  0.00  0.00    +0.000 HD
ENDROOT
BRANCH   1   6
ATOM      5  C   UNL     1       6.063   4.025  15.313  0.00  0.00    +0.000 C 
ATOM      6  C   UNL     1       5.512   5.222  16.094  0.00  0.00    +0.000 C 
BRANCH   6   7
ATOM      7  C   UNL     1       6.502   5.863  17.056  0.00  0.00    +0.000 A 
ATOM      8  C   UNL     1       6.978   5.187  18.183  0.00  0.00    +0.000 A 
ATOM      9  C   UNL     1       7.868   5.830  19.039  0.00  0.00    +0.000 A 
ATOM     10  C   UNL     1       8.256   7.130  18.760  0.00  0.00    +0.000 A 
ATOM     11  C   UNL     1       7.739   7.737  17.625  0.00  0.00    +0.000 A 
ATOM     12  N   UNL     1       6.885   7.136  16.768  0.00  0.00    +0.000 NA
ENDBRANCH   6   7
ENDBRANCH   1   6
BRANCH   2  13
ATOM     13  C   UNL     1       2.247   5.185  18.086  0.00  0.00    +0.000 C 
BRANCH  13  14
ATOM     14  C   UNL     1       2.535   4.879  19.555  0.00  0.00    +0.000 C 
ATOM     15  C   UNL     1       3.620   3.790  19.743  0.00  0.00    +0.000 C 
ATOM     16  C   UNL     1       2.940   2.783  20.680  0.00  0.00    +0.000 C 
ATOM     17  C   UNL     1       1.862   2.026  19.885  0.00  0.00    +0.000 C 
ATOM     18  C   UNL     1       0.742   3.066  19.743  0.00  0.00    +0.000 C 
ATOM     19  C   UNL     1       1.355   4.322  20.385  0.00  0.00    +0.000 C 
ATOM     20  C   UNL     1       2.102   3.700  21.570  0.00  0.00    +0.000 C 
ENDBRANCH  13  14
ENDBRANCH   2  13
TORSDOF 4
ENDMDL
