MODEL 1
REMARK VINA RESULT:      -6.7      0.000      0.000
REMARK  Name = 
REMARK  12 active torsions:
REMARK  status: ('A' for Active; 'I' for Inactive)
REMARK    1  A    between atoms: C_1  and  O_2
REMARK    2  A    between atoms: O_2  and  C_3
REMARK    3  A    between atoms: C_7  and  C_8
REMARK    4  A    between atoms: N_10  and  C_11
REMARK    5  A    between atoms: N_10  and  C_15
REMARK    6  A    between atoms: C_11  and  C_12
REMARK    7  A    between atoms: C_12  and  O_14
REMARK    8  A    between atoms: C_15  and  C_16
REMARK    9  A    between atoms: C_16  and  C_17
REMARK   10  A    between atoms: C_16  and  C_18
REMARK   11  A    between atoms: C_16  and  C_19
REMARK   12  A    between atoms: C_20  and  C_21
REMARK                            x       y       z     vdW  Elec       q    Type
REMARK                         _______ _______ _______ _____ _____    ______ ____
ROOT
ATOM      1  C   UNL     1       3.404   3.591  17.465  0.00  0.00    +0.000 C 
ATOM      2  O   UNL     1       2.297   3.639  16.927  0.00  0.00    +0.000 OA
ATOM      3  N   UNL     1       3.534   3.023  18.758  0.00  0.00    +0.000 N 
ENDROOT
BRANCH   1   8
ATOM      4  C   UNL     1       6.145   6.022  16.276  0.00  0.00    +0.000 A 
ATOM      5  C   UNL     1       6.858   5.197  15.402  0.00  0.00    +0.000 A 
ATOM      6  C   UNL     1       6.427   3.906  15.170  0.00  0.00    +0.000 A 
ATOM      7  C   UNL     1       5.299   3.425  15.828  0.00  0.00    +0.000 A 
ATOM      8  C   UNL     1       4.552   4.217  16.717  0.00  0.00    +0.000 A 
ATOM      9  C   UNL     1       5.012   5.537  16.981  0.00  0.00    +0.000 A 
ATOM     10  C   UNL     1       4.365   6.486  17.966  0.00  0.00    +0.000 C 
BRANCH   4  12
ATOM     11  C   UNL     1       7.590   7.458  17.465  0.00  0.00    +0.000 C 
ATOM     12  O   UNL     1       6.532   7.322  16.516  0.00  0.00    +0.000 OA
ENDBRANCH   4  12
ENDBRANCH   1   8
BRANCH   3  13
ATOM     13  C   UNL     1       4.764   2.971  19.571  0.00  0.00    +0.000 C 
BRANCH  13  14
ATOM     14  C   UNL     1       5.003   1.640  20.290  0.00  0.00    +0.000 C 
ATOM     15  O   UNL     1       5.187   1.538  21.495  0.00  0.00    +0.000 OA
BRANCH  14  16
ATOM     16  O   UNL     1       4.964   0.559  19.472  0.00  0.00    +0.000 OA
ATOM     17  H   UNL     1       4.879  -0.271  19.986  0.00  0.00    +0.000 HD
ENDBRANCH  14  16
ENDBRANCH  13  14
ENDBRANCH   3  13
BRANCH   3  18
ATOM     18  C   UNL     1       2.354   2.315  19.318  0.00  0.00    +0.000 C 
BRANCH  18  19
ATOM     19  C   UNL     1       1.459   3.128  20.315  0.00  0.00    +0.000 C 
ATOM     20  C   UNL     1       1.430   2.504  21.721  0.00  0.00    +0.000 C 
ATOM     21  C   UNL     1       2.057   4.548  20.455  0.00  0.00    +0.000 C 
ATOM     22  C   UNL     1       0.015   3.263  19.804  0.00  0.00    +0.000 C 
ENDBRANCH  18  19
ENDBRANCH   3  18
TORSDOF 7
ENDMDL
MODEL 2
REMARK VINA RESULT:      -6.6      2.281      3.624
REMARK  Name = 
REMARK  12 active torsions:
REMARK  status: ('A' for Active; 'I' for Inactive)
REMARK    1  A    between atoms: C_1  and  O_2
REMARK    2  A    between atoms: O_2  and  C_3
REMARK    3  A    between atoms: C_7  and  C_8
REMARK    4  A    between atoms: N_10  and  C_11
REMARK    5  A    between atoms: N_10  and  C_15
REMARK    6  A    between atoms: C_11  and  C_12
REMARK    7  A    between atoms: C_12  and  O_14
REMARK    8  A    between atoms: C_15  and  C_16
REMARK    9  A    between atoms: C_16  and  C_17
REMARK   10  A    between atoms: C_16  and  C_18
REMARK   11  A    between atoms: C_16  and  C_19
REMARK   12  A    between atoms: C_20  and  C_21
REMARK                            x       y       z     vdW  Elec       q    Type
REMARK                         _______ _______ _______ _____ _____    ______ ____
ROOT
ATOM      1  C   UNL     1       4.261   4.757  17.855  0.00  0.00    +0.000 C 
ATOM      2  O   UNL     1       4.186   3.934  16.941  0.00  0.00    +0.000 OA
ATOM      3  N   UNL     1       3.092   5.119  18.572  0.00  0.00    +0.000 N 
ENDROOT
BRANCH   1   8
ATOM      4  C   UNL     1       7.330   7.081  17.726  0.00  0.00    +0.000 A 
ATOM      5  C   UNL     1       8.065   6.596  18.811  0.00  0.00    +0.000 A 
ATOM      6  C   UNL     1       7.598   5.513  19.527  0.00  0.00    +0.000 A 
ATOM      7  C   UNL     1       6.384   4.926  19.182  0.00  0.00    +0.000 A 
ATOM      8  C   UNL     1       5.610   5.382  18.101  0.00  0.00    +0.000 A 
ATOM      9  C   UNL     1       6.073   6.516  17.380  0.00  0.00    +0.000 A 
ATOM     10  C   UNL     1       5.322   7.172  16.243  0.00  0.00    +0.000 C 
BRANCH   4  12
ATOM     11  C   UNL     1       8.144   9.296  17.736  0.00  0.00    +0.000 C 
ATOM     12  O   UNL     1       7.773   8.147  16.974  0.00  0.00    +0.000 OA
ENDBRANCH   4  12
ENDBRANCH   1   8
BRANCH   3  13
ATOM     13  C   UNL     1       2.997   6.147  19.626  0.00  0.00    +0.000 C 
BRANCH  13  14
ATOM     14  C   UNL     1       2.277   7.433  19.206  0.00  0.00    +0.000 C 
ATOM     15  O   UNL     1       1.666   8.157  19.979  0.00  0.00    +0.000 OA
BRANCH  14  16
ATOM     16  O   UNL     1       2.402   7.726  17.888  0.00  0.00    +0.000 OA
ATOM     17  H   UNL     1       2.524   8.689  17.750  0.00  0.00    +0.000 HD
ENDBRANCH  14  16
ENDBRANCH  13  14
ENDBRANCH   3  13
BRANCH   3  18
ATOM     18  C   UNL     1       1.862   4.324  18.325  0.00  0.00    +0.000 C 
BRANCH  18  19
ATOM     19  C   UNL     1       1.558   3.173  19.346  0.00  0.00    +0.000 C 
ATOM     20  C   UNL     1       2.836   2.471  19.837  0.00  0.00    +0.000 C 
ATOM     21  C   UNL     1       0.869   3.793  20.585  0.00  0.00    +0.000 C 
ATOM     22  C   UNL     1       0.611   2.118  18.749  0.00  0.00    +0.000 C 
ENDBRANCH  18  19
ENDBRANCH   3  18
TORSDOF 7
ENDMDL
MODEL 3
REMARK VINA RESULT:      -6.6      2.295      3.611
REMARK  Name = 
REMARK  12 active torsions:
REMARK  status: ('A' for Active; 'I' for Inactive)
REMARK    1  A    between atoms: C_1  and  O_2
REMARK    2  A    between atoms: O_2  and  C_3
REMARK    3  A    between atoms: C_7  and  C_8
REMARK    4  A    between atoms: N_10  and  C_11
REMARK    5  A    between atoms: N_10  and  C_15
REMARK    6  A    between atoms: C_11  and  C_12
REMARK    7  A    between atoms: C_12  and  O_14
REMARK    8  A    between atoms: C_15  and  C_16
REMARK    9  A    between atoms: C_16  and  C_17
REMARK   10  A    between atoms: C_16  and  C_18
REMARK   11  A    between atoms: C_16  and  C_19
REMARK   12  A    between atoms: C_20  and  C_21
REMARK                            x       y       z     vdW  Elec       q    Type
REMARK                         _______ _______ _______ _____ _____    ______ ____
ROOT
ATOM      1  C   UNL     1       4.142   4.767  17.813  0.00  0.00    +0.000 C 
ATOM      2  O   UNL     1       3.998   4.074  16.805  0.00  0.00    +0.000 OA
ATOM      3  N   UNL     1       3.032   5.015  18.660  0.00  0.00    +0.000 N 
ENDROOT
BRANCH   1   8
ATOM      4  C   UNL     1       7.225   7.073  17.684  0.00  0.00    +0.000 A 
ATOM      5  C   UNL     1       7.997   6.527  18.713  0.00  0.00    +0.000 A 
ATOM      6  C   UNL     1       7.548   5.411  19.390  0.00  0.00    +0.000 A 
ATOM      7  C   UNL     1       6.316   4.852  19.063  0.00  0.00    +0.000 A 
ATOM      8  C   UNL     1       5.505   5.368  18.039  0.00  0.00    +0.000 A 
ATOM      9  C   UNL     1       5.951   6.535  17.359  0.00  0.00    +0.000 A 
ATOM     10  C   UNL     1       5.161   7.254  16.288  0.00  0.00    +0.000 C 
BRANCH   4  12
ATOM     11  C   UNL     1       8.108   9.258  17.776  0.00  0.00    +0.000 C 
ATOM     12  O   UNL     1       7.648   8.173  16.971  0.00  0.00    +0.000 OA
ENDBRANCH   4  12
ENDBRANCH   1   8
BRANCH   3  13
ATOM     13  C   UNL     1       3.017   5.889  19.849  0.00  0.00    +0.000 C 
BRANCH  13  14
ATOM     14  C   UNL     1       2.320   7.238  19.645  0.00  0.00    +0.000 C 
ATOM     15  O   UNL     1       2.208   7.791  18.560  0.00  0.00    +0.000 OA
BRANCH  14  16
ATOM     16  O   UNL     1       1.800   7.764  20.781  0.00  0.00    +0.000 OA
ATOM     17  H   UNL     1       2.198   7.350  21.576  0.00  0.00    +0.000 HD
ENDBRANCH  14  16
ENDBRANCH  13  14
ENDBRANCH   3  13
BRANCH   3  18
ATOM     18  C   UNL     1       1.787   4.245  18.402  0.00  0.00    +0.000 C 
BRANCH  18  19
ATOM     19  C   UNL     1       1.533   2.999  19.320  0.00  0.00    +0.000 C 
ATOM     20  C   UNL     1       0.559   1.992  18.686  0.00  0.00    +0.000 C 
ATOM     21  C   UNL     1       2.881   2.268  19.527  0.00  0.00    +0.000 C 
ATOM     22  C   UNL     1       0.993   3.410  20.700  0.00  0.00    +0.000 C 
ENDBRANCH  18  19
ENDBRANCH   3  18
TORSDOF 7
ENDMDL
MODEL 4
REMARK VINA RESULT:      -6.5      2.285      5.591
REMARK  Name = 
REMARK  12 active torsions:
REMARK  status: ('A' for Active; 'I' for Inactive)
REMARK    1  A    between atoms: C_1  and  O_2
REMARK    2  A    between atoms: O_2  and  C_3
REMARK    3  A    between atoms: C_7  and  C_8
REMARK    4  A    between atoms: N_10  and  C_11
REMARK    5  A    between atoms: N_10  and  C_15
REMARK    6  A    between atoms: C_11  and  C_12
REMARK    7  A    between atoms: C_12  and  O_14
REMARK    8  A    between atoms: C_15  and  C_16
REMARK    9  A    between atoms: C_16  and  C_17
REMARK   10  A    between atoms: C_16  and  C_18
REMARK   11  A    between atoms: C_16  and  C_19
REMARK   12  A    between atoms: C_20  and  C_21
REMARK                            x       y       z     vdW  Elec       q    Type
REMARK                         _______ _______ _______ _____ _____    ______ ____
ROOT
ATOM      1  C   UNL     1       3.817   4.149  17.534  0.00  0.00    +0.000 C 
ATOM      2  O   UNL     1       3.142   3.598  16.664  0.00  0.00    +0.000 OA
ATOM      3  N   UNL     1       5.232   4.149  17.432  0.00  0.00    +0.000 N 
ENDROOT
BRANCH   1   8
ATOM      4  C   UNL     1       2.048   6.588  19.934  0.00  0.00    +0.000 A 
ATOM      5  C   UNL     1       1.469   5.689  20.833  0.00  0.00    +0.000 A 
ATOM      6  C   UNL     1       1.693   4.334  20.690  0.00  0.00    +0.000 A 
ATOM      7  C   UNL     1       2.473   3.870  19.634  0.00  0.00    +0.000 A 
ATOM      8  C   UNL     1       3.072   4.736  18.705  0.00  0.00    +0.000 A 
ATOM      9  C   UNL     1       2.818   6.130  18.832  0.00  0.00    +0.000 A 
ATOM     10  C   UNL     1       3.327   7.182  17.872  0.00  0.00    +0.000 C 
BRANCH   4  12
ATOM     11  C   UNL     1       1.109   8.342  21.201  0.00  0.00    +0.000 C 
ATOM     12  O   UNL     1       1.865   7.948  20.056  0.00  0.00    +0.000 OA
ENDBRANCH   4  12
ENDBRANCH   1   8
BRANCH   3  13
ATOM     13  C   UNL     1       6.180   4.683  18.429  0.00  0.00    +0.000 C 
BRANCH  13  14
ATOM     14  C   UNL     1       7.559   5.051  17.871  0.00  0.00    +0.000 C 
ATOM     15  O   UNL     1       7.890   6.188  17.565  0.00  0.00    +0.000 OA
BRANCH  14  16
ATOM     16  O   UNL     1       8.408   3.999  17.770  0.00  0.00    +0.000 OA
ATOM     17  H   UNL     1       7.924   3.174  17.558  0.00  0.00    +0.000 HD
ENDBRANCH  14  16
ENDBRANCH  13  14
ENDBRANCH   3  13
BRANCH   3  18
ATOM     18  C   UNL     1       5.828   3.665  16.161  0.00  0.00    +0.000 C 
BRANCH  18  19
ATOM     19  C   UNL     1       5.851   4.683  14.968  0.00  0.00    +0.000 C 
ATOM     20  C   UNL     1       7.273   4.936  14.440  0.00  0.00    +0.000 C 
ATOM     21  C   UNL     1       5.028   4.083  13.803  0.00  0.00    +0.000 C 
ATOM     22  C   UNL     1       5.220   6.030  15.358  0.00  0.00    +0.000 C 
ENDBRANCH  18  19
ENDBRANCH   3  18
TORSDOF 7
ENDMDL
MODEL 5
REMARK VINA RESULT:      -6.4      2.474      5.589
REMARK  Name = 
REMARK  12 active torsions:
REMARK  status: ('A' for Active; 'I' for Inactive)
REMARK    1  A    between atoms: C_1  and  O_2
REMARK    2  A    between atoms: O_2  and  C_3
REMARK    3  A    between atoms: C_7  and  C_8
REMARK    4  A    between atoms: N_10  and  C_11
REMARK    5  A    between atoms: N_10  and  C_15
REMARK    6  A    between atoms: C_11  and  C_12
REMARK    7  A    between atoms: C_12  and  O_14
REMARK    8  A    between atoms: C_15  and  C_16
REMARK    9  A    between atoms: C_16  and  C_17
REMARK   10  A    between atoms: C_16  and  C_18
REMARK   11  A    between atoms: C_16  and  C_19
REMARK   12  A    between atoms: C_20  and  C_21
REMARK                            x       y       z     vdW  Elec       q    Type
REMARK                         _______ _______ _______ _____ _____    ______ ____
ROOT
ATOM      1  C   UNL     1       4.131   4.337  17.716  0.00  0.00    +0.000 C 
ATOM      2  O   UNL     1       3.531   3.500  17.040  0.00  0.00    +0.000 OA
ATOM      3  N   UNL     1       5.504   4.590  17.466  0.00  0.00    +0.000 N 
ENDROOT
BRANCH   1   8
ATOM      4  C   UNL     1       2.156   6.869  19.843  0.00  0.00    +0.000 A 
ATOM      5  C   UNL     1       1.721   6.046  20.885  0.00  0.00    +0.000 A 
ATOM      6  C   UNL     1       2.105   4.720  20.918  0.00  0.00    +0.000 A 
ATOM      7  C   UNL     1       2.900   4.205  19.899  0.00  0.00    +0.000 A 
ATOM      8  C   UNL     1       3.358   4.994  18.830  0.00  0.00    +0.000 A 
ATOM      9  C   UNL     1       2.940   6.352  18.778  0.00  0.00    +0.000 A 
ATOM     10  C   UNL     1       3.284   7.309  17.658  0.00  0.00    +0.000 C 
BRANCH   4  12
ATOM     11  C   UNL     1       1.096   8.677  20.927  0.00  0.00    +0.000 C 
ATOM     12  O   UNL     1       1.811   8.202  19.786  0.00  0.00    +0.000 OA
ENDBRANCH   4  12
ENDBRANCH   1   8
BRANCH   3  13
ATOM     13  C   UNL     1       6.382   5.489  18.240  0.00  0.00    +0.000 C 
BRANCH  13  14
ATOM     14  C   UNL     1       7.764   4.913  18.566  0.00  0.00    +0.000 C 
ATOM     15  O   UNL     1       8.378   4.154  17.830  0.00  0.00    +0.000 OA
BRANCH  14  16
ATOM     16  O   UNL     1       8.275   5.347  19.745  0.00  0.00    +0.000 OA
ATOM     17  H   UNL     1       8.719   6.214  19.639  0.00  0.00    +0.000 HD
ENDBRANCH  14  16
ENDBRANCH  13  14
ENDBRANCH   3  13
BRANCH   3  18
ATOM     18  C   UNL     1       6.103   3.983  16.250  0.00  0.00    +0.000 C 
BRANCH  18  19
ATOM     19  C   UNL     1       6.024   4.832  14.934  0.00  0.00    +0.000 C 
ATOM     20  C   UNL     1       5.296   6.171  15.142  0.00  0.00    +0.000 C 
ATOM     21  C   UNL     1       7.467   5.160  14.482  0.00  0.00    +0.000 C 
ATOM     22  C   UNL     1       5.329   4.061  13.800  0.00  0.00    +0.000 C 
ENDBRANCH  18  19
ENDBRANCH   3  18
TORSDOF 7
ENDMDL
MODEL 6
REMARK VINA RESULT:      -6.3      2.077      6.035
REMARK  Name = 
REMARK  12 active torsions:
REMARK  status: ('A' for Active; 'I' for Inactive)
REMARK    1  A    between atoms: C_1  and  O_2
REMARK    2  A    between atoms: O_2  and  C_3
REMARK    3  A    between atoms: C_7  and  C_8
REMARK    4  A    between atoms: N_10  and  C_11
REMARK    5  A    between atoms: N_10  and  C_15
REMARK    6  A    between atoms: C_11  and  C_12
REMARK    7  A    between atoms: C_12  and  O_14
REMARK    8  A    between atoms: C_15  and  C_16
REMARK    9  A    between atoms: C_16  and  C_17
REMARK   10  A    between atoms: C_16  and  C_18
REMARK   11  A    between atoms: C_16  and  C_19
REMARK   12  A    between atoms: C_20  and  C_21
REMARK                            x       y       z     vdW  Elec       q    Type
REMARK                         _______ _______ _______ _____ _____    ______ ____
ROOT
ATOM      1  C   UNL     1       4.862   4.120  17.391  0.00  0.00    +0.000 C 
ATOM      2  O   UNL     1       4.652   3.062  16.796  0.00  0.00    +0.000 OA
ATOM      3  N   UNL     1       6.057   4.842  17.141  0.00  0.00    +0.000 N 
ENDROOT
BRANCH   1   8
ATOM      4  C   UNL     1       2.688   4.338  20.564  0.00  0.00    +0.000 A 
ATOM      5  C   UNL     1       2.046   5.561  20.351  0.00  0.00    +0.000 A 
ATOM      6  C   UNL     1       2.277   6.264  19.186  0.00  0.00    +0.000 A 
ATOM      7  C   UNL     1       3.168   5.765  18.241  0.00  0.00    +0.000 A 
ATOM      8  C   UNL     1       3.839   4.542  18.413  0.00  0.00    +0.000 A 
ATOM      9  C   UNL     1       3.626   3.830  19.625  0.00  0.00    +0.000 A 
ATOM     10  C   UNL     1       4.327   2.541  19.993  0.00  0.00    +0.000 C 
BRANCH   4  12
ATOM     11  C   UNL     1       1.296   2.783  21.663  0.00  0.00    +0.000 C 
ATOM     12  O   UNL     1       2.468   3.597  21.703  0.00  0.00    +0.000 OA
ENDBRANCH   4  12
ENDBRANCH   1   8
BRANCH   3  13
ATOM     13  C   UNL     1       6.496   6.071  17.831  0.00  0.00    +0.000 C 
BRANCH  13  14
ATOM     14  C   UNL     1       7.309   5.835  19.108  0.00  0.00    +0.000 C 
ATOM     15  O   UNL     1       7.021   5.003  19.957  0.00  0.00    +0.000 OA
BRANCH  14  16
ATOM     16  O   UNL     1       8.413   6.616  19.207  0.00  0.00    +0.000 OA
ATOM     17  H   UNL     1       9.124   6.162  19.705  0.00  0.00    +0.000 HD
ENDBRANCH  14  16
ENDBRANCH  13  14
ENDBRANCH   3  13
BRANCH   3  18
ATOM     18  C   UNL     1       6.906   4.392  16.009  0.00  0.00    +0.000 C 
BRANCH  18  19
ATOM     19  C   UNL     1       6.489   4.891  14.582  0.00  0.00    +0.000 C 
ATOM     20  C   UNL     1       7.677   5.462  13.788  0.00  0.00    +0.000 C 
ATOM     21  C   UNL     1       5.945   3.680  13.786  0.00  0.00    +0.000 C 
ATOM     22  C   UNL     1       5.382   5.955  14.652  0.00  0.00    +0.000 C 
ENDBRANCH  18  19
ENDBRANCH   3  18
TORSDOF 7
ENDMDL
MODEL 7
REMARK VINA RESULT:      -6.2      0.143      1.196
REMARK  Name = 
REMARK  12 active torsions:
REMARK  status: ('A' for Active; 'I' for Inactive)
REMARK    1  A    between atoms: C_1  and  O_2
REMARK    2  A    between atoms: O_2  and  C_3
REMARK    3  A    between atoms: C_7  and  C_8
REMARK    4  A    between atoms: N_10  and  C_11
REMARK    5  A    between atoms: N_10  and  C_15
REMARK    6  A    between atoms: C_11  and  C_12
REMARK    7  A    between atoms: C_12  and  O_14
REMARK    8  A    between atoms: C_15  and  C_16
REMARK    9  A    between atoms: C_16  and  C_17
REMARK   10  A    between atoms: C_16  and  C_18
REMARK   11  A    between atoms: C_16  and  C_19
REMARK   12  A    between atoms: C_20  and  C_21
REMARK                            x       y       z     vdW  Elec       q    Type
REMARK                         _______ _______ _______ _____ _____    ______ ____
ROOT
ATOM      1  C   UNL     1       3.400   3.681  17.493  0.00  0.00    +0.000 C 
ATOM      2  O   UNL     1       2.311   3.748  16.921  0.00  0.00    +0.000 OA
ATOM      3  N   UNL     1       3.483   3.094  18.782  0.00  0.00    +0.000 N 
ENDROOT
BRANCH   1   8
ATOM      4  C   UNL     1       6.178   6.116  16.402  0.00  0.00    +0.000 A 
ATOM      5  C   UNL     1       6.935   5.286  15.571  0.00  0.00    +0.000 A 
ATOM      6  C   UNL     1       6.522   3.990  15.334  0.00  0.00    +0.000 A 
ATOM      7  C   UNL     1       5.368   3.509  15.946  0.00  0.00    +0.000 A 
ATOM      8  C   UNL     1       4.577   4.306  16.791  0.00  0.00    +0.000 A 
ATOM      9  C   UNL     1       5.017   5.632  17.061  0.00  0.00    +0.000 A 
ATOM     10  C   UNL     1       4.320   6.587  18.004  0.00  0.00    +0.000 C 
BRANCH   4  12
ATOM     11  C   UNL     1       7.659   7.567  17.528  0.00  0.00    +0.000 C 
ATOM     12  O   UNL     1       6.546   7.421  16.645  0.00  0.00    +0.000 OA
ENDBRANCH   4  12
ENDBRANCH   1   8
BRANCH   3  13
ATOM     13  C   UNL     1       4.686   3.018  19.632  0.00  0.00    +0.000 C 
BRANCH  13  14
ATOM     14  C   UNL     1       4.973   1.631  20.217  0.00  0.00    +0.000 C 
ATOM     15  O   UNL     1       4.945   0.597  19.566  0.00  0.00    +0.000 OA
BRANCH  14  16
ATOM     16  O   UNL     1       5.297   1.648  21.534  0.00  0.00    +0.000 OA
ATOM     17  H   UNL     1       4.493   1.647  22.095  0.00  0.00    +0.000 HD
ENDBRANCH  14  16
ENDBRANCH  13  14
ENDBRANCH   3  13
BRANCH   3  18
ATOM     18  C   UNL     1       2.279   2.390  19.293  0.00  0.00    +0.000 C 
BRANCH  18  19
ATOM     19  C   UNL     1       1.394   3.175  20.322  0.00  0.00    +0.000 C 
ATOM     20  C   UNL     1       1.803   4.653  20.440  0.00  0.00    +0.000 C 
ATOM     21  C   UNL     1      -0.071   3.142  19.826  0.00  0.00    +0.000 C 
ATOM     22  C   UNL     1       1.443   2.534  21.719  0.00  0.00    +0.000 C 
ENDBRANCH  18  19
ENDBRANCH   3  18
TORSDOF 7
ENDMDL
MODEL 8
REMARK VINA RESULT:      -6.1      3.856      5.837
REMARK  Name = 
REMARK  12 active torsions:
REMARK  status: ('A' for Active; 'I' for Inactive)
REMARK    1  A    between atoms: C_1  and  O_2
REMARK    2  A    between atoms: O_2  and  C_3
REMARK    3  A    between atoms: C_7  and  C_8
REMARK    4  A    between atoms: N_10  and  C_11
REMARK    5  A    between atoms: N_10  and  C_15
REMARK    6  A    between atoms: C_11  and  C_12
REMARK    7  A    between atoms: C_12  and  O_14
REMARK    8  A    between atoms: C_15  and  C_16
REMARK    9  A    between atoms: C_16  and  C_17
REMARK   10  A    between atoms: C_16  and  C_18
REMARK   11  A    between atoms: C_16  and  C_19
REMARK   12  A    between atoms: C_20  and  C_21
REMARK                            x       y       z     vdW  Elec       q    Type
REMARK                         _______ _______ _______ _____ _____    ______ ____
ROOT
ATOM      1  C   UNL     1       2.728   6.687  19.445  0.00  0.00    +0.000 C 
ATOM      2  O   UNL     1       3.642   6.926  18.654  0.00  0.00    +0.000 OA
ATOM      3  N   UNL     1       2.429   5.343  19.788  0.00  0.00    +0.000 N 
ENDROOT
BRANCH   1   8
ATOM      4  C   UNL     1       0.618   9.904  19.629  0.00  0.00    +0.000 A 
ATOM      5  C   UNL     1       0.271   9.906  20.983  0.00  0.00    +0.000 A 
ATOM      6  C   UNL     1       0.754   8.918  21.817  0.00  0.00    +0.000 A 
ATOM      7  C   UNL     1       1.562   7.910  21.300  0.00  0.00    +0.000 A 
ATOM      8  C   UNL     1       1.934   7.865  19.945  0.00  0.00    +0.000 A 
ATOM      9  C   UNL     1       1.414   8.865  19.078  0.00  0.00    +0.000 A 
ATOM     10  C   UNL     1       1.659   8.913  17.586  0.00  0.00    +0.000 C 
BRANCH   4  12
ATOM     11  C   UNL     1      -1.247  11.011  18.701  0.00  0.00    +0.000 C 
ATOM     12  O   UNL     1       0.173  10.884  18.770  0.00  0.00    +0.000 OA
ENDBRANCH   4  12
ENDBRANCH   1   8
BRANCH   3  13
ATOM     13  C   UNL     1       1.317   4.887  20.644  0.00  0.00    +0.000 C 
BRANCH  13  14
ATOM     14  C   UNL     1       1.498   3.487  21.239  0.00  0.00    +0.000 C 
ATOM     15  O   UNL     1       2.226   3.238  22.189  0.00  0.00    +0.000 OA
BRANCH  14  16
ATOM     16  O   UNL     1       0.747   2.533  20.635  0.00  0.00    +0.000 OA
ATOM     17  H   UNL     1       0.941   1.645  21.002  0.00  0.00    +0.000 HD
ENDBRANCH  14  16
ENDBRANCH  13  14
ENDBRANCH   3  13
BRANCH   3  18
ATOM     18  C   UNL     1       3.379   4.293  19.339  0.00  0.00    +0.000 C 
BRANCH  18  19
ATOM     19  C   UNL     1       3.081   3.630  17.950  0.00  0.00    +0.000 C 
ATOM     20  C   UNL     1       4.134   3.992  16.889  0.00  0.00    +0.000 C 
ATOM     21  C   UNL     1       3.119   2.093  18.129  0.00  0.00    +0.000 C 
ATOM     22  C   UNL     1       1.690   4.017  17.421  0.00  0.00    +0.000 C 
ENDBRANCH  18  19
ENDBRANCH   3  18
TORSDOF 7
ENDMDL
MODEL 9
REMARK VINA RESULT:      -6.1      2.105      5.955
REMARK  Name = 
REMARK  12 active torsions:
REMARK  status: ('A' for Active; 'I' for Inactive)
REMARK    1  A    between atoms: C_1  and  O_2
REMARK    2  A    between atoms: O_2  and  C_3
REMARK    3  A    between atoms: C_7  and  C_8
REMARK    4  A    between atoms: N_10  and  C_11
REMARK    5  A    between atoms: N_10  and  C_15
REMARK    6  A    between atoms: C_11  and  C_12
REMARK    7  A    between atoms: C_12  and  O_14
REMARK    8  A    between atoms: C_15  and  C_16
REMARK    9  A    between atoms: C_16  and  C_17
REMARK   10  A    between atoms: C_16  and  C_18
REMARK   11  A    between atoms: C_16  and  C_19
REMARK   12  A    between atoms: C_20  and  C_21
REMARK                            x       y       z     vdW  Elec       q    Type
REMARK                         _______ _______ _______ _____ _____    ______ ____
ROOT
ATOM      1  C   UNL     1       4.487   3.988  17.543  0.00  0.00    +0.000 C 
ATOM      2  O   UNL     1       4.123   3.068  16.809  0.00  0.00    +0.000 OA
ATOM      3  N   UNL     1       5.769   4.566  17.362  0.00  0.00    +0.000 N 
ENDROOT
BRANCH   1   8
ATOM      4  C   UNL     1       2.546   4.132  20.868  0.00  0.00    +0.000 A 
ATOM      5  C   UNL     1       1.913   5.372  20.741  0.00  0.00    +0.000 A 
ATOM      6  C   UNL     1       2.074   6.111  19.587  0.00  0.00    +0.000 A 
ATOM      7  C   UNL     1       2.888   5.629  18.565  0.00  0.00    +0.000 A 
ATOM      8  C   UNL     1       3.546   4.391  18.649  0.00  0.00    +0.000 A 
ATOM      9  C   UNL     1       3.406   3.641  19.849  0.00  0.00    +0.000 A 
ATOM     10  C   UNL     1       4.108   2.330  20.124  0.00  0.00    +0.000 C 
BRANCH   4  12
ATOM     11  C   UNL     1       1.210   2.559  22.009  0.00  0.00    +0.000 C 
ATOM     12  O   UNL     1       2.393   3.357  21.995  0.00  0.00    +0.000 OA
ENDBRANCH   4  12
ENDBRANCH   1   8
BRANCH   3  13
ATOM     13  C   UNL     1       6.386   5.607  18.207  0.00  0.00    +0.000 C 
BRANCH  13  14
ATOM     14  C   UNL     1       7.618   5.148  18.995  0.00  0.00    +0.000 C 
ATOM     15  O   UNL     1       8.508   4.454  18.525  0.00  0.00    +0.000 OA
BRANCH  14  16
ATOM     16  O   UNL     1       7.656   5.608  20.270  0.00  0.00    +0.000 OA
ATOM     17  H   UNL     1       7.293   4.947  20.895  0.00  0.00    +0.000 HD
ENDBRANCH  14  16
ENDBRANCH  13  14
ENDBRANCH   3  13
BRANCH   3  18
ATOM     18  C   UNL     1       6.533   4.176  16.149  0.00  0.00    +0.000 C 
BRANCH  18  19
ATOM     19  C   UNL     1       6.169   4.929  14.823  0.00  0.00    +0.000 C 
ATOM     20  C   UNL     1       5.340   6.200  15.077  0.00  0.00    +0.000 C 
ATOM     21  C   UNL     1       7.487   5.369  14.140  0.00  0.00    +0.000 C 
ATOM     22  C   UNL     1       5.402   4.023  13.846  0.00  0.00    +0.000 C 
ENDBRANCH  18  19
ENDBRANCH   3  18
TORSDOF 7
ENDMDL
