MODEL 1
REMARK VINA RESULT:      -7.6      0.000      0.000
REMARK  Name = 
REMARK  3 active torsions:
REMARK  status: ('A' for Active; 'I' for Inactive)
REMARK    1  A    between atoms: C_1  and  O_2
REMARK    2  A    between atoms: O_2  and  C_3
REMARK    3  A    between atoms: C_13  and  C_14
REMARK                            x       y       z     vdW  Elec       q    Type
REMARK                         _______ _______ _______ _____ _____    ______ ____
ROOT
ATOM      1  C   UNL     1       2.353   3.494  19.669  0.00  0.00    +0.000 A 
ATOM      2  C   UNL     1       2.112   2.471  18.751  0.00  0.00    +0.000 A 
ATOM      3  C   UNL     1       2.950   2.275  17.646  0.00  0.00    +0.000 A 
ATOM      4  C   UNL     1       4.025   3.154  17.480  0.00  0.00    +0.000 A 
ATOM      5  N   UNL     1       4.967   3.230  16.475  0.00  0.00    +0.000 N 
ATOM      6  C   UNL     1       5.759   4.328  16.666  0.00  0.00    +0.000 A 
ATOM      7  C   UNL     1       5.410   4.902  17.870  0.00  0.00    +0.000 A 
ATOM      8  C   UNL     1       4.289   4.192  18.376  0.00  0.00    +0.000 A 
ATOM      9  C   UNL     1       3.441   4.358  19.488  0.00  0.00    +0.000 A 
ATOM     10  C   UNL     1       6.079   6.133  18.369  0.00  0.00    +0.000 C 
ATOM     11  C   UNL     1       7.386   6.416  17.578  0.00  0.00    +0.000 C 
ATOM     12  C   UNL     1       7.758   7.891  17.690  0.00  0.00    +0.000 C 
ATOM     13  N   UNL     1       7.329   6.017  16.163  0.00  0.00    +0.000 N 
ATOM     14  C   UNL     1       6.738   4.843  15.747  0.00  0.00    +0.000 C 
ATOM     15  O   UNL     1       7.010   4.332  14.668  0.00  0.00    +0.000 OA
ATOM     16  H   UNL     1       5.012   2.626  15.666  0.00  0.00    +0.000 HD
ATOM     17  H   UNL     1       8.074   6.313  15.545  0.00  0.00    +0.000 HD
ENDROOT
BRANCH   1  19
ATOM     18  C   UNL     1       1.485   2.775  21.751  0.00  0.00    +0.000 C 
ATOM     19  O   UNL     1       1.571   3.786  20.755  0.00  0.00    +0.000 OA
ENDBRANCH   1  19
TORSDOF 1
ENDMDL
MODEL 2
REMARK VINA RESULT:      -7.3      2.810      5.910
REMARK  Name = 
REMARK  3 active torsions:
REMARK  status: ('A' for Active; 'I' for Inactive)
REMARK    1  A    between atoms: C_1  and  O_2
REMARK    2  A    between atoms: O_2  and  C_3
REMARK    3  A    between atoms: C_13  and  C_14
REMARK                            x       y       z     vdW  Elec       q    Type
REMARK                         _______ _______ _______ _____ _____    ______ ____
ROOT
ATOM      1  C   UNL     1       5.857   3.361  12.264  0.00  0.00    +0.000 A 
ATOM      2  C   UNL     1       6.986   4.091  11.891  0.00  0.00    +0.000 A 
ATOM      3  C   UNL     1       7.676   4.883  12.819  0.00  0.00    +0.000 A 
ATOM      4  C   UNL     1       7.182   4.935  14.126  0.00  0.00    +0.000 A 
ATOM      5  N   UNL     1       7.621   5.658  15.216  0.00  0.00    +0.000 N 
ATOM      6  C   UNL     1       6.756   5.489  16.261  0.00  0.00    +0.000 A 
ATOM      7  C   UNL     1       5.816   4.551  15.890  0.00  0.00    +0.000 A 
ATOM      8  C   UNL     1       6.051   4.222  14.528  0.00  0.00    +0.000 A 
ATOM      9  C   UNL     1       5.385   3.421  13.581  0.00  0.00    +0.000 A 
ATOM     10  C   UNL     1       4.714   4.147  16.803  0.00  0.00    +0.000 C 
ATOM     11  C   UNL     1       4.999   4.615  18.258  0.00  0.00    +0.000 C 
ATOM     12  C   UNL     1       3.696   4.701  19.045  0.00  0.00    +0.000 C 
ATOM     13  N   UNL     1       5.726   5.890  18.347  0.00  0.00    +0.000 N 
ATOM     14  C   UNL     1       6.773   6.207  17.507  0.00  0.00    +0.000 C 
ATOM     15  O   UNL     1       7.602   7.057  17.803  0.00  0.00    +0.000 OA
ATOM     16  H   UNL     1       8.406   6.295  15.221  0.00  0.00    +0.000 HD
ATOM     17  H   UNL     1       5.808   6.341  19.250  0.00  0.00    +0.000 HD
ENDROOT
BRANCH   1  19
ATOM     18  C   UNL     1       3.846   3.142  11.033  0.00  0.00    +0.000 C 
ATOM     19  O   UNL     1       5.097   2.591  11.423  0.00  0.00    +0.000 OA
ENDBRANCH   1  19
TORSDOF 1
ENDMDL
MODEL 3
REMARK VINA RESULT:      -7.2      2.320      4.161
REMARK  Name = 
REMARK  3 active torsions:
REMARK  status: ('A' for Active; 'I' for Inactive)
REMARK    1  A    between atoms: C_1  and  O_2
REMARK    2  A    between atoms: O_2  and  C_3
REMARK    3  A    between atoms: C_13  and  C_14
REMARK                            x       y       z     vdW  Elec       q    Type
REMARK                         _______ _______ _______ _____ _____    ______ ____
ROOT
ATOM      1  C   UNL     1       5.032   4.192  18.708  0.00  0.00    +0.000 A 
ATOM      2  C   UNL     1       5.951   5.152  19.130  0.00  0.00    +0.000 A 
ATOM      3  C   UNL     1       6.797   5.798  18.218  0.00  0.00    +0.000 A 
ATOM      4  C   UNL     1       6.702   5.433  16.872  0.00  0.00    +0.000 A 
ATOM      5  N   UNL     1       7.431   5.858  15.781  0.00  0.00    +0.000 N 
ATOM      6  C   UNL     1       7.073   5.137  14.676  0.00  0.00    +0.000 A 
ATOM      7  C   UNL     1       6.017   4.321  15.023  0.00  0.00    +0.000 A 
ATOM      8  C   UNL     1       5.798   4.471  16.418  0.00  0.00    +0.000 A 
ATOM      9  C   UNL     1       4.949   3.847  17.353  0.00  0.00    +0.000 A 
ATOM     10  C   UNL     1       5.396   3.391  14.043  0.00  0.00    +0.000 C 
ATOM     11  C   UNL     1       5.829   3.740  12.593  0.00  0.00    +0.000 C 
ATOM     12  C   UNL     1       5.666   2.522  11.689  0.00  0.00    +0.000 C 
ATOM     13  N   UNL     1       7.199   4.266  12.485  0.00  0.00    +0.000 N 
ATOM     14  C   UNL     1       7.721   5.164  13.393  0.00  0.00    +0.000 C 
ATOM     15  O   UNL     1       8.678   5.875  13.116  0.00  0.00    +0.000 OA
ATOM     16  H   UNL     1       8.185   6.532  15.804  0.00  0.00    +0.000 HD
ATOM     17  H   UNL     1       7.612   4.364  11.566  0.00  0.00    +0.000 HD
ENDROOT
BRANCH   1  19
ATOM     18  C   UNL     1       3.390   2.495  18.891  0.00  0.00    +0.000 C 
ATOM     19  O   UNL     1       4.193   3.482  19.526  0.00  0.00    +0.000 OA
ENDBRANCH   1  19
TORSDOF 1
ENDMDL
MODEL 4
REMARK VINA RESULT:      -7.1      2.439      5.969
REMARK  Name = 
REMARK  3 active torsions:
REMARK  status: ('A' for Active; 'I' for Inactive)
REMARK    1  A    between atoms: C_1  and  O_2
REMARK    2  A    between atoms: O_2  and  C_3
REMARK    3  A    between atoms: C_13  and  C_14
REMARK                            x       y       z     vdW  Elec       q    Type
REMARK                         _______ _______ _______ _____ _____    ______ ____
ROOT
ATOM      1  C   UNL     1       5.560   4.443  15.525  0.00  0.00    +0.000 A 
ATOM      2  C   UNL     1       5.591   5.811  15.257  0.00  0.00    +0.000 A 
ATOM      3  C   UNL     1       4.989   6.735  16.122  0.00  0.00    +0.000 A 
ATOM      4  C   UNL     1       4.335   6.236  17.253  0.00  0.00    +0.000 A 
ATOM      5  N   UNL     1       3.624   6.895  18.234  0.00  0.00    +0.000 N 
ATOM      6  C   UNL     1       3.056   5.987  19.083  0.00  0.00    +0.000 A 
ATOM      7  C   UNL     1       3.501   4.732  18.725  0.00  0.00    +0.000 A 
ATOM      8  C   UNL     1       4.280   4.872  17.546  0.00  0.00    +0.000 A 
ATOM      9  C   UNL     1       4.907   3.966  16.668  0.00  0.00    +0.000 A 
ATOM     10  C   UNL     1       3.054   3.511  19.447  0.00  0.00    +0.000 C 
ATOM     11  C   UNL     1       2.378   3.879  20.797  0.00  0.00    +0.000 C 
ATOM     12  C   UNL     1       1.464   2.747  21.252  0.00  0.00    +0.000 C 
ATOM     13  N   UNL     1       1.633   5.148  20.769  0.00  0.00    +0.000 N 
ATOM     14  C   UNL     1       2.106   6.271  20.124  0.00  0.00    +0.000 C 
ATOM     15  O   UNL     1       1.702   7.392  20.404  0.00  0.00    +0.000 OA
ATOM     16  H   UNL     1       3.463   7.893  18.273  0.00  0.00    +0.000 HD
ATOM     17  H   UNL     1       1.035   5.377  21.553  0.00  0.00    +0.000 HD
ENDROOT
BRANCH   1  19
ATOM     18  C   UNL     1       6.157   3.767  13.335  0.00  0.00    +0.000 C 
ATOM     19  O   UNL     1       6.086   3.465  14.723  0.00  0.00    +0.000 OA
ENDBRANCH   1  19
TORSDOF 1
ENDMDL
MODEL 5
REMARK VINA RESULT:      -7.0      3.701      4.870
REMARK  Name = 
REMARK  3 active torsions:
REMARK  status: ('A' for Active; 'I' for Inactive)
REMARK    1  A    between atoms: C_1  and  O_2
REMARK    2  A    between atoms: O_2  and  C_3
REMARK    3  A    between atoms: C_13  and  C_14
REMARK                            x       y       z     vdW  Elec       q    Type
REMARK                         _______ _______ _______ _____ _____    ______ ____
ROOT
ATOM      1  C   UNL     1       1.669   8.931  18.601  0.00  0.00    +0.000 A 
ATOM      2  C   UNL     1       1.303   8.540  19.888  0.00  0.00    +0.000 A 
ATOM      3  C   UNL     1       1.850   7.395  20.483  0.00  0.00    +0.000 A 
ATOM      4  C   UNL     1       2.761   6.645  19.734  0.00  0.00    +0.000 A 
ATOM      5  N   UNL     1       3.408   5.465  20.039  0.00  0.00    +0.000 N 
ATOM      6  C   UNL     1       4.116   5.031  18.953  0.00  0.00    +0.000 A 
ATOM      7  C   UNL     1       4.029   5.997  17.974  0.00  0.00    +0.000 A 
ATOM      8  C   UNL     1       3.144   7.005  18.440  0.00  0.00    +0.000 A 
ATOM      9  C   UNL     1       2.590   8.169  17.871  0.00  0.00    +0.000 A 
ATOM     10  C   UNL     1       4.683   5.825  16.649  0.00  0.00    +0.000 C 
ATOM     11  C   UNL     1       5.715   4.665  16.685  0.00  0.00    +0.000 C 
ATOM     12  C   UNL     1       5.963   4.139  15.275  0.00  0.00    +0.000 C 
ATOM     13  N   UNL     1       5.342   3.556  17.578  0.00  0.00    +0.000 N 
ATOM     14  C   UNL     1       4.778   3.762  18.819  0.00  0.00    +0.000 C 
ATOM     15  O   UNL     1       4.817   2.906  19.693  0.00  0.00    +0.000 OA
ATOM     16  H   UNL     1       3.304   4.944  20.900  0.00  0.00    +0.000 HD
ATOM     17  H   UNL     1       5.876   2.697  17.535  0.00  0.00    +0.000 HD
ENDROOT
BRANCH   1  19
ATOM     18  C   UNL     1       0.870  11.157  18.710  0.00  0.00    +0.000 C 
ATOM     19  O   UNL     1       1.163  10.009  17.924  0.00  0.00    +0.000 OA
ENDBRANCH   1  19
TORSDOF 1
ENDMDL
MODEL 6
REMARK VINA RESULT:      -6.9      1.962      2.960
REMARK  Name = 
REMARK  3 active torsions:
REMARK  status: ('A' for Active; 'I' for Inactive)
REMARK    1  A    between atoms: C_1  and  O_2
REMARK    2  A    between atoms: O_2  and  C_3
REMARK    3  A    between atoms: C_13  and  C_14
REMARK                            x       y       z     vdW  Elec       q    Type
REMARK                         _______ _______ _______ _____ _____    ______ ____
ROOT
ATOM      1  C   UNL     1       1.833   4.085  18.736  0.00  0.00    +0.000 A 
ATOM      2  C   UNL     1       2.176   4.944  19.780  0.00  0.00    +0.000 A 
ATOM      3  C   UNL     1       3.300   5.777  19.696  0.00  0.00    +0.000 A 
ATOM      4  C   UNL     1       4.081   5.701  18.538  0.00  0.00    +0.000 A 
ATOM      5  N   UNL     1       5.251   6.353  18.208  0.00  0.00    +0.000 N 
ATOM      6  C   UNL     1       5.727   5.876  17.019  0.00  0.00    +0.000 A 
ATOM      7  C   UNL     1       4.796   4.995  16.509  0.00  0.00    +0.000 A 
ATOM      8  C   UNL     1       3.769   4.846  17.479  0.00  0.00    +0.000 A 
ATOM      9  C   UNL     1       2.624   4.031  17.582  0.00  0.00    +0.000 A 
ATOM     10  C   UNL     1       5.018   4.284  15.222  0.00  0.00    +0.000 C 
ATOM     11  C   UNL     1       6.180   4.934  14.421  0.00  0.00    +0.000 C 
ATOM     12  C   UNL     1       6.757   3.932  13.428  0.00  0.00    +0.000 C 
ATOM     13  N   UNL     1       7.254   5.486  15.262  0.00  0.00    +0.000 N 
ATOM     14  C   UNL     1       7.002   6.179  16.427  0.00  0.00    +0.000 C 
ATOM     15  O   UNL     1       7.826   6.942  16.914  0.00  0.00    +0.000 OA
ATOM     16  H   UNL     1       5.740   7.015  18.795  0.00  0.00    +0.000 HD
ATOM     17  H   UNL     1       8.116   5.779  14.819  0.00  0.00    +0.000 HD
ENDROOT
BRANCH   1  19
ATOM     18  C   UNL     1       1.100   1.846  18.976  0.00  0.00    +0.000 C 
ATOM     19  O   UNL     1       0.778   3.211  18.742  0.00  0.00    +0.000 OA
ENDBRANCH   1  19
TORSDOF 1
ENDMDL
MODEL 7
REMARK VINA RESULT:      -6.7      1.997      5.541
REMARK  Name = 
REMARK  3 active torsions:
REMARK  status: ('A' for Active; 'I' for Inactive)
REMARK    1  A    between atoms: C_1  and  O_2
REMARK    2  A    between atoms: O_2  and  C_3
REMARK    3  A    between atoms: C_13  and  C_14
REMARK                            x       y       z     vdW  Elec       q    Type
REMARK                         _______ _______ _______ _____ _____    ______ ____
ROOT
ATOM      1  C   UNL     1       6.642   6.965  16.968  0.00  0.00    +0.000 A 
ATOM      2  C   UNL     1       7.374   5.970  16.320  0.00  0.00    +0.000 A 
ATOM      3  C   UNL     1       6.923   4.644  16.285  0.00  0.00    +0.000 A 
ATOM      4  C   UNL     1       5.725   4.347  16.940  0.00  0.00    +0.000 A 
ATOM      5  N   UNL     1       5.078   3.140  17.110  0.00  0.00    +0.000 N 
ATOM      6  C   UNL     1       3.994   3.307  17.926  0.00  0.00    +0.000 A 
ATOM      7  C   UNL     1       3.862   4.654  18.189  0.00  0.00    +0.000 A 
ATOM      8  C   UNL     1       4.972   5.318  17.603  0.00  0.00    +0.000 A 
ATOM      9  C   UNL     1       5.440   6.647  17.611  0.00  0.00    +0.000 A 
ATOM     10  C   UNL     1       2.779   5.175  19.065  0.00  0.00    +0.000 C 
ATOM     11  C   UNL     1       1.683   4.097  19.295  0.00  0.00    +0.000 C 
ATOM     12  C   UNL     1       0.905   4.404  20.571  0.00  0.00    +0.000 C 
ATOM     13  N   UNL     1       2.196   2.719  19.338  0.00  0.00    +0.000 N 
ATOM     14  C   UNL     1       3.171   2.264  18.475  0.00  0.00    +0.000 C 
ATOM     15  O   UNL     1       3.326   1.071  18.251  0.00  0.00    +0.000 OA
ATOM     16  H   UNL     1       5.403   2.246  16.767  0.00  0.00    +0.000 HD
ATOM     17  H   UNL     1       1.576   1.979  19.642  0.00  0.00    +0.000 HD
ENDROOT
BRANCH   1  19
ATOM     18  C   UNL     1       8.121   8.535  17.948  0.00  0.00    +0.000 C 
ATOM     19  O   UNL     1       7.019   8.277  17.087  0.00  0.00    +0.000 OA
ENDBRANCH   1  19
TORSDOF 1
ENDMDL
MODEL 8
REMARK VINA RESULT:      -6.7      1.805      6.075
REMARK  Name = 
REMARK  3 active torsions:
REMARK  status: ('A' for Active; 'I' for Inactive)
REMARK    1  A    between atoms: C_1  and  O_2
REMARK    2  A    between atoms: O_2  and  C_3
REMARK    3  A    between atoms: C_13  and  C_14
REMARK                            x       y       z     vdW  Elec       q    Type
REMARK                         _______ _______ _______ _____ _____    ______ ____
ROOT
ATOM      1  C   UNL     1       6.549   4.934  15.784  0.00  0.00    +0.000 A 
ATOM      2  C   UNL     1       7.089   5.932  16.595  0.00  0.00    +0.000 A 
ATOM      3  C   UNL     1       6.560   6.202  17.864  0.00  0.00    +0.000 A 
ATOM      4  C   UNL     1       5.457   5.450  18.282  0.00  0.00    +0.000 A 
ATOM      5  N   UNL     1       4.711   5.531  19.440  0.00  0.00    +0.000 N 
ATOM      6  C   UNL     1       3.648   4.675  19.366  0.00  0.00    +0.000 A 
ATOM      7  C   UNL     1       3.771   3.942  18.205  0.00  0.00    +0.000 A 
ATOM      8  C   UNL     1       4.889   4.449  17.492  0.00  0.00    +0.000 A 
ATOM      9  C   UNL     1       5.450   4.188  16.226  0.00  0.00    +0.000 A 
ATOM     10  C   UNL     1       2.760   2.923  17.815  0.00  0.00    +0.000 C 
ATOM     11  C   UNL     1       1.837   2.569  19.014  0.00  0.00    +0.000 C 
ATOM     12  C   UNL     1       0.521   1.987  18.509  0.00  0.00    +0.000 C 
ATOM     13  N   UNL     1       1.573   3.697  19.922  0.00  0.00    +0.000 N 
ATOM     14  C   UNL     1       2.552   4.594  20.293  0.00  0.00    +0.000 C 
ATOM     15  O   UNL     1       2.450   5.277  21.303  0.00  0.00    +0.000 OA
ATOM     16  H   UNL     1       4.865   6.188  20.193  0.00  0.00    +0.000 HD
ATOM     17  H   UNL     1       0.858   3.593  20.631  0.00  0.00    +0.000 HD
ENDROOT
BRANCH   1  19
ATOM     18  C   UNL     1       6.066   3.871  13.724  0.00  0.00    +0.000 C 
ATOM     19  O   UNL     1       6.973   4.624  14.519  0.00  0.00    +0.000 OA
ENDBRANCH   1  19
TORSDOF 1
ENDMDL
MODEL 9
REMARK VINA RESULT:      -6.7      2.053      5.490
REMARK  Name = 
REMARK  3 active torsions:
REMARK  status: ('A' for Active; 'I' for Inactive)
REMARK    1  A    between atoms: C_1  and  O_2
REMARK    2  A    between atoms: O_2  and  C_3
REMARK    3  A    between atoms: C_13  and  C_14
REMARK                            x       y       z     vdW  Elec       q    Type
REMARK                         _______ _______ _______ _____ _____    ______ ____
ROOT
ATOM      1  C   UNL     1       6.951   6.111  16.445  0.00  0.00    +0.000 A 
ATOM      2  C   UNL     1       7.013   4.982  15.627  0.00  0.00    +0.000 A 
ATOM      3  C   UNL     1       5.987   4.028  15.628  0.00  0.00    +0.000 A 
ATOM      4  C   UNL     1       4.908   4.234  16.493  0.00  0.00    +0.000 A 
ATOM      5  N   UNL     1       3.801   3.448  16.738  0.00  0.00    +0.000 N 
ATOM      6  C   UNL     1       3.066   3.990  17.756  0.00  0.00    +0.000 A 
ATOM      7  C   UNL     1       3.631   5.201  18.093  0.00  0.00    +0.000 A 
ATOM      8  C   UNL     1       4.819   5.349  17.328  0.00  0.00    +0.000 A 
ATOM      9  C   UNL     1       5.856   6.301  17.297  0.00  0.00    +0.000 A 
ATOM     10  C   UNL     1       3.075   6.044  19.184  0.00  0.00    +0.000 C 
ATOM     11  C   UNL     1       1.649   5.571  19.581  0.00  0.00    +0.000 C 
ATOM     12  C   UNL     1       1.317   6.036  20.995  0.00  0.00    +0.000 C 
ATOM     13  N   UNL     1       1.446   4.118  19.468  0.00  0.00    +0.000 N 
ATOM     14  C   UNL     1       1.941   3.380  18.413  0.00  0.00    +0.000 C 
ATOM     15  O   UNL     1       1.475   2.289  18.116  0.00  0.00    +0.000 OA
ATOM     16  H   UNL     1       3.605   2.557  16.303  0.00  0.00    +0.000 HD
ATOM     17  H   UNL     1       0.604   3.714  19.858  0.00  0.00    +0.000 HD
ENDROOT
BRANCH   1  19
ATOM     18  C   UNL     1       7.783   7.990  17.621  0.00  0.00    +0.000 C 
ATOM     19  O   UNL     1       7.918   7.076  16.540  0.00  0.00    +0.000 OA
ENDBRANCH   1  19
TORSDOF 1
ENDMDL
