MODEL 1
REMARK VINA RESULT:      -6.4      0.000      0.000
REMARK  Name = 
REMARK  4 active torsions:
REMARK  status: ('A' for Active; 'I' for Inactive)
REMARK    1  A    between atoms: C_1  and  C_2
REMARK    2  A    between atoms: C_14  and  C_15
REMARK    3  A    between atoms: C_18  and  C_19
REMARK    4  A    between atoms: C_23  and  O_24
REMARK                            x       y       z     vdW  Elec       q    Type
REMARK                         _______ _______ _______ _____ _____    ______ ____
ROOT
ATOM      1  C   UNL     1      -5.478  14.760  23.784  0.00  0.00    +0.000 C 
ATOM      2  C   UNL     1      -5.661  13.249  23.502  0.00  0.00    +0.000 C 
ATOM      3  C   UNL     1      -4.602  12.458  24.280  0.00  0.00    +0.000 C 
ATOM      4  C   UNL     1      -3.177  12.725  23.745  0.00  0.00    +0.000 C 
ATOM      5  C   UNL     1      -3.054  12.362  22.248  0.00  0.00    +0.000 C 
ATOM      6  C   UNL     1      -4.166  13.048  21.378  0.00  0.00    +0.000 C 
ATOM      7  C   UNL     1      -4.164  12.369  19.998  0.00  0.00    +0.000 C 
ATOM      8  C   UNL     1      -2.812  12.485  19.324  0.00  0.00    +0.000 C 
ATOM      9  C   UNL     1      -1.700  11.916  20.189  0.00  0.00    +0.000 C 
ATOM     10  O   UNL     1      -1.247  10.729  19.668  0.00  0.00    +0.000 OA
ATOM     11  C   UNL     1      -0.192  11.680  19.555  0.00  0.00    +0.000 C 
ATOM     12  C   UNL     1       0.008  13.107  19.190  0.00  0.00    +0.000 C 
ATOM     13  O   UNL     1      -0.090  13.513  18.041  0.00  0.00    +0.000 OA
ATOM     14  C   UNL     1       0.230  13.990  20.429  0.00  0.00    +0.000 C 
ATOM     15  C   UNL     1      -0.930  13.853  21.486  0.00  0.00    +0.000 C 
ATOM     16  C   UNL     1      -1.588  12.417  21.618  0.00  0.00    +0.000 C 
ATOM     17  C   UNL     1      -0.665  11.548  22.506  0.00  0.00    +0.000 C 
ATOM     18  C   UNL     1      -5.553  12.849  22.018  0.00  0.00    +0.000 C 
ATOM     19  C   UNL     1      -6.789  13.511  21.408  0.00  0.00    +0.000 C 
ATOM     20  C   UNL     1      -7.885  13.192  22.447  0.00  0.00    +0.000 C 
ATOM     21  C   UNL     1      -7.146  12.888  23.775  0.00  0.00    +0.000 C 
ENDROOT
BRANCH  14  22
ATOM     22  C   UNL     1       1.563  13.671  20.986  0.00  0.00    +0.000 C 
ATOM     23  N   UNL     1       2.620  13.435  21.391  0.00  0.00    +0.000 NA
ENDBRANCH  14  22
BRANCH  21  24
ATOM     24  O   UNL     1      -7.316  11.511  24.107  0.00  0.00    +0.000 OA
ATOM     25  H   UNL     1      -7.562  11.020  23.305  0.00  0.00    +0.000 HD
ENDBRANCH  21  24
TORSDOF 2
ENDMDL
MODEL 2
REMARK VINA RESULT:      -6.4     10.858     12.779
REMARK  Name = 
REMARK  4 active torsions:
REMARK  status: ('A' for Active; 'I' for Inactive)
REMARK    1  A    between atoms: C_1  and  C_2
REMARK    2  A    between atoms: C_14  and  C_15
REMARK    3  A    between atoms: C_18  and  C_19
REMARK    4  A    between atoms: C_23  and  O_24
REMARK                            x       y       z     vdW  Elec       q    Type
REMARK                         _______ _______ _______ _____ _____    ______ ____
ROOT
ATOM      1  C   UNL     1       6.467  14.446  23.917  0.00  0.00    +0.000 C 
ATOM      2  C   UNL     1       7.829  13.901  24.414  0.00  0.00    +0.000 C 
ATOM      3  C   UNL     1       8.866  15.030  24.384  0.00  0.00    +0.000 C 
ATOM      4  C   UNL     1       9.193  15.473  22.939  0.00  0.00    +0.000 C 
ATOM      5  C   UNL     1       9.728  14.297  22.092  0.00  0.00    +0.000 C 
ATOM      6  C   UNL     1       8.778  13.049  22.143  0.00  0.00    +0.000 C 
ATOM      7  C   UNL     1       9.550  11.851  21.563  0.00  0.00    +0.000 C 
ATOM      8  C   UNL     1      10.003  12.118  20.143  0.00  0.00    +0.000 C 
ATOM      9  C   UNL     1      10.846  13.380  20.047  0.00  0.00    +0.000 C 
ATOM     10  O   UNL     1      12.163  13.061  19.827  0.00  0.00    +0.000 OA
ATOM     11  C   UNL     1      11.678  13.720  18.661  0.00  0.00    +0.000 C 
ATOM     12  C   UNL     1      10.468  13.746  17.799  0.00  0.00    +0.000 C 
ATOM     13  O   UNL     1      10.175  12.827  17.047  0.00  0.00    +0.000 OA
ATOM     14  C   UNL     1       9.604  14.990  18.061  0.00  0.00    +0.000 C 
ATOM     15  C   UNL     1       9.199  15.138  19.576  0.00  0.00    +0.000 C 
ATOM     16  C   UNL     1      10.275  14.658  20.636  0.00  0.00    +0.000 C 
ATOM     17  C   UNL     1      11.324  15.784  20.797  0.00  0.00    +0.000 C 
ATOM     18  C   UNL     1       8.392  12.722  23.597  0.00  0.00    +0.000 C 
ATOM     19  C   UNL     1       7.391  11.605  23.901  0.00  0.00    +0.000 C 
ATOM     20  C   UNL     1       7.181  11.751  25.423  0.00  0.00    +0.000 C 
ATOM     21  C   UNL     1       7.594  13.201  25.779  0.00  0.00    +0.000 C 
ENDROOT
BRANCH  14  22
ATOM     22  C   UNL     1      10.327  16.169  17.535  0.00  0.00    +0.000 C 
ATOM     23  N   UNL     1      10.892  17.074  17.092  0.00  0.00    +0.000 NA
ENDBRANCH  14  22
BRANCH  21  24
ATOM     24  O   UNL     1       8.773  13.175  26.583  0.00  0.00    +0.000 OA
ATOM     25  H   UNL     1       9.471  13.685  26.138  0.00  0.00    +0.000 HD
ENDBRANCH  21  24
TORSDOF 2
ENDMDL
MODEL 3
REMARK VINA RESULT:      -6.3     10.022     13.392
REMARK  Name = 
REMARK  4 active torsions:
REMARK  status: ('A' for Active; 'I' for Inactive)
REMARK    1  A    between atoms: C_1  and  C_2
REMARK    2  A    between atoms: C_14  and  C_15
REMARK    3  A    between atoms: C_18  and  C_19
REMARK    4  A    between atoms: C_23  and  O_24
REMARK                            x       y       z     vdW  Elec       q    Type
REMARK                         _______ _______ _______ _____ _____    ______ ____
ROOT
ATOM      1  C   UNL     1       8.622  12.054  17.838  0.00  0.00    +0.000 C 
ATOM      2  C   UNL     1       9.983  12.191  18.565  0.00  0.00    +0.000 C 
ATOM      3  C   UNL     1      10.023  11.218  19.750  0.00  0.00    +0.000 C 
ATOM      4  C   UNL     1       9.016  11.614  20.854  0.00  0.00    +0.000 C 
ATOM      5  C   UNL     1       9.285  13.040  21.385  0.00  0.00    +0.000 C 
ATOM      6  C   UNL     1       9.364  14.098  20.229  0.00  0.00    +0.000 C 
ATOM      7  C   UNL     1       9.959  15.389  20.816  0.00  0.00    +0.000 C 
ATOM      8  C   UNL     1       9.121  15.913  21.964  0.00  0.00    +0.000 C 
ATOM      9  C   UNL     1       8.946  14.872  23.057  0.00  0.00    +0.000 C 
ATOM     10  O   UNL     1       9.687  15.209  24.163  0.00  0.00    +0.000 OA
ATOM     11  C   UNL     1       8.311  15.302  24.521  0.00  0.00    +0.000 C 
ATOM     12  C   UNL     1       7.028  15.793  23.955  0.00  0.00    +0.000 C 
ATOM     13  O   UNL     1       6.776  16.983  23.827  0.00  0.00    +0.000 OA
ATOM     14  C   UNL     1       6.141  14.639  23.460  0.00  0.00    +0.000 C 
ATOM     15  C   UNL     1       6.879  13.711  22.421  0.00  0.00    +0.000 C 
ATOM     16  C   UNL     1       8.433  13.502  22.653  0.00  0.00    +0.000 C 
ATOM     17  C   UNL     1       8.611  12.427  23.752  0.00  0.00    +0.000 C 
ATOM     18  C   UNL     1      10.290  13.602  19.103  0.00  0.00    +0.000 C 
ATOM     19  C   UNL     1      10.452  14.415  17.817  0.00  0.00    +0.000 C 
ATOM     20  C   UNL     1      11.304  13.479  16.935  0.00  0.00    +0.000 C 
ATOM     21  C   UNL     1      11.107  12.052  17.505  0.00  0.00    +0.000 C 
ENDROOT
BRANCH  14  22
ATOM     22  C   UNL     1       5.643  13.904  24.643  0.00  0.00    +0.000 C 
ATOM     23  N   UNL     1       5.225  13.319  25.548  0.00  0.00    +0.000 NA
ENDBRANCH  14  22
BRANCH  21  24
ATOM     24  O   UNL     1      12.333  11.595  18.074  0.00  0.00    +0.000 OA
ATOM     25  H   UNL     1      12.501  10.684  17.776  0.00  0.00    +0.000 HD
ENDBRANCH  21  24
TORSDOF 2
ENDMDL
MODEL 4
REMARK VINA RESULT:      -6.2      6.134      9.003
REMARK  Name = 
REMARK  4 active torsions:
REMARK  status: ('A' for Active; 'I' for Inactive)
REMARK    1  A    between atoms: C_1  and  C_2
REMARK    2  A    between atoms: C_14  and  C_15
REMARK    3  A    between atoms: C_18  and  C_19
REMARK    4  A    between atoms: C_23  and  O_24
REMARK                            x       y       z     vdW  Elec       q    Type
REMARK                         _______ _______ _______ _____ _____    ______ ____
ROOT
ATOM      1  C   UNL     1      -0.532  10.177  18.062  0.00  0.00    +0.000 C 
ATOM      2  C   UNL     1       0.780  10.436  18.843  0.00  0.00    +0.000 C 
ATOM      3  C   UNL     1       1.977  10.174  17.922  0.00  0.00    +0.000 C 
ATOM      4  C   UNL     1       2.101   8.678  17.551  0.00  0.00    +0.000 C 
ATOM      5  C   UNL     1       2.250   7.792  18.808  0.00  0.00    +0.000 C 
ATOM      6  C   UNL     1       1.120   8.063  19.863  0.00  0.00    +0.000 C 
ATOM      7  C   UNL     1       1.544   7.398  21.183  0.00  0.00    +0.000 C 
ATOM      8  C   UNL     1       1.764   5.909  21.008  0.00  0.00    +0.000 C 
ATOM      9  C   UNL     1       2.784   5.613  19.921  0.00  0.00    +0.000 C 
ATOM     10  O   UNL     1       3.959   5.167  20.475  0.00  0.00    +0.000 OA
ATOM     11  C   UNL     1       3.389   4.086  19.743  0.00  0.00    +0.000 C 
ATOM     12  C   UNL     1       2.063   3.460  19.501  0.00  0.00    +0.000 C 
ATOM     13  O   UNL     1       1.476   2.810  20.354  0.00  0.00    +0.000 OA
ATOM     14  C   UNL     1       1.499   3.829  18.119  0.00  0.00    +0.000 C 
ATOM     15  C   UNL     1       1.417   5.386  17.895  0.00  0.00    +0.000 C 
ATOM     16  C   UNL     1       2.570   6.248  18.559  0.00  0.00    +0.000 C 
ATOM     17  C   UNL     1       3.814   6.172  17.641  0.00  0.00    +0.000 C 
ATOM     18  C   UNL     1       0.961   9.575  20.108  0.00  0.00    +0.000 C 
ATOM     19  C   UNL     1      -0.148  10.099  21.023  0.00  0.00    +0.000 C 
ATOM     20  C   UNL     1      -0.041  11.627  20.836  0.00  0.00    +0.000 C 
ATOM     21  C   UNL     1       0.684  11.847  19.484  0.00  0.00    +0.000 C 
ENDROOT
BRANCH  14  22
ATOM     22  C   UNL     1       2.308   3.135  17.094  0.00  0.00    +0.000 C 
ATOM     23  N   UNL     1       2.968   2.615  16.300  0.00  0.00    +0.000 NA
ENDBRANCH  14  22
BRANCH  21  24
ATOM     24  O   UNL     1       1.968  12.421  19.721  0.00  0.00    +0.000 OA
ATOM     25  H   UNL     1       1.952  12.892  20.572  0.00  0.00    +0.000 HD
ENDBRANCH  21  24
TORSDOF 2
ENDMDL
MODEL 5
REMARK VINA RESULT:      -6.2     10.251     12.374
REMARK  Name = 
REMARK  4 active torsions:
REMARK  status: ('A' for Active; 'I' for Inactive)
REMARK    1  A    between atoms: C_1  and  C_2
REMARK    2  A    between atoms: C_14  and  C_15
REMARK    3  A    between atoms: C_18  and  C_19
REMARK    4  A    between atoms: C_23  and  O_24
REMARK                            x       y       z     vdW  Elec       q    Type
REMARK                         _______ _______ _______ _____ _____    ______ ____
ROOT
ATOM      1  C   UNL     1       5.888  14.706  22.969  0.00  0.00    +0.000 C 
ATOM      2  C   UNL     1       7.053  14.157  23.830  0.00  0.00    +0.000 C 
ATOM      3  C   UNL     1       8.225  15.145  23.782  0.00  0.00    +0.000 C 
ATOM      4  C   UNL     1       8.859  15.217  22.374  0.00  0.00    +0.000 C 
ATOM      5  C   UNL     1       9.367  13.834  21.908  0.00  0.00    +0.000 C 
ATOM      6  C   UNL     1       8.260  12.727  22.018  0.00  0.00    +0.000 C 
ATOM      7  C   UNL     1       8.948  11.361  21.861  0.00  0.00    +0.000 C 
ATOM      8  C   UNL     1       9.677  11.256  20.537  0.00  0.00    +0.000 C 
ATOM      9  C   UNL     1      10.689  12.375  20.360  0.00  0.00    +0.000 C 
ATOM     10  O   UNL     1      11.968  11.889  20.480  0.00  0.00    +0.000 OA
ATOM     11  C   UNL     1      11.792  12.312  19.131  0.00  0.00    +0.000 C 
ATOM     12  C   UNL     1      10.768  12.260  18.055  0.00  0.00    +0.000 C 
ATOM     13  O   UNL     1      10.487  11.229  17.462  0.00  0.00    +0.000 OA
ATOM     14  C   UNL     1      10.052  13.609  17.880  0.00  0.00    +0.000 C 
ATOM     15  C   UNL     1       9.411  14.134  19.220  0.00  0.00    +0.000 C 
ATOM     16  C   UNL     1      10.206  13.802  20.551  0.00  0.00    +0.000 C 
ATOM     17  C   UNL     1      11.356  14.829  20.688  0.00  0.00    +0.000 C 
ATOM     18  C   UNL     1       7.582  12.776  23.400  0.00  0.00    +0.000 C 
ATOM     19  C   UNL     1       6.399  11.859  23.715  0.00  0.00    +0.000 C 
ATOM     20  C   UNL     1       5.946  12.363  25.101  0.00  0.00    +0.000 C 
ATOM     21  C   UNL     1       6.487  13.809  25.233  0.00  0.00    +0.000 C 
ENDROOT
BRANCH  14  22
ATOM     22  C   UNL     1      11.012  14.563  17.283  0.00  0.00    +0.000 C 
ATOM     23  N   UNL     1      11.752  15.333  16.840  0.00  0.00    +0.000 NA
ENDBRANCH  14  22
BRANCH  21  24
ATOM     24  O   UNL     1       7.490  13.850  26.246  0.00  0.00    +0.000 OA
ATOM     25  H   UNL     1       7.905  14.730  26.245  0.00  0.00    +0.000 HD
ENDBRANCH  21  24
TORSDOF 2
ENDMDL
MODEL 6
REMARK VINA RESULT:      -6.2      9.919     12.986
REMARK  Name = 
REMARK  4 active torsions:
REMARK  status: ('A' for Active; 'I' for Inactive)
REMARK    1  A    between atoms: C_1  and  C_2
REMARK    2  A    between atoms: C_14  and  C_15
REMARK    3  A    between atoms: C_18  and  C_19
REMARK    4  A    between atoms: C_23  and  O_24
REMARK                            x       y       z     vdW  Elec       q    Type
REMARK                         _______ _______ _______ _____ _____    ______ ____
ROOT
ATOM      1  C   UNL     1      11.468  14.593  19.986  0.00  0.00    +0.000 C 
ATOM      2  C   UNL     1      10.242  13.895  19.347  0.00  0.00    +0.000 C 
ATOM      3  C   UNL     1       9.060  14.872  19.323  0.00  0.00    +0.000 C 
ATOM      4  C   UNL     1       8.553  15.195  20.747  0.00  0.00    +0.000 C 
ATOM      5  C   UNL     1       8.115  13.918  21.498  0.00  0.00    +0.000 C 
ATOM      6  C   UNL     1       9.229  12.813  21.488  0.00  0.00    +0.000 C 
ATOM      7  C   UNL     1       8.583  11.495  21.950  0.00  0.00    +0.000 C 
ATOM      8  C   UNL     1       7.977  11.629  23.332  0.00  0.00    +0.000 C 
ATOM      9  C   UNL     1       6.963  12.760  23.396  0.00  0.00    +0.000 C 
ATOM     10  O   UNL     1       5.689  12.256  23.483  0.00  0.00    +0.000 OA
ATOM     11  C   UNL     1       5.976  12.917  24.712  0.00  0.00    +0.000 C 
ATOM     12  C   UNL     1       7.093  13.063  25.682  0.00  0.00    +0.000 C 
ATOM     13  O   UNL     1       7.445  12.155  26.423  0.00  0.00    +0.000 OA
ATOM     14  C   UNL     1       7.796  14.423  25.546  0.00  0.00    +0.000 C 
ATOM     15  C   UNL     1       8.305  14.698  24.081  0.00  0.00    +0.000 C 
ATOM     16  C   UNL     1       7.400  14.130  22.910  0.00  0.00    +0.000 C 
ATOM     17  C   UNL     1       6.224  15.112  22.695  0.00  0.00    +0.000 C 
ATOM     18  C   UNL     1       9.780  12.613  20.064  0.00  0.00    +0.000 C 
ATOM     19  C   UNL     1      10.947  11.657  19.812  0.00  0.00    +0.000 C 
ATOM     20  C   UNL     1      11.265  11.904  18.323  0.00  0.00    +0.000 C 
ATOM     21  C   UNL     1      10.687  13.301  17.983  0.00  0.00    +0.000 C 
ENDROOT
BRANCH  14  22
ATOM     22  C   UNL     1       6.875  15.466  26.047  0.00  0.00    +0.000 C 
ATOM     23  N   UNL     1       6.136  16.278  26.409  0.00  0.00    +0.000 NA
ENDBRANCH  14  22
BRANCH  21  24
ATOM     24  O   UNL     1       9.597  13.156  17.075  0.00  0.00    +0.000 OA
ATOM     25  H   UNL     1       9.846  12.523  16.380  0.00  0.00    +0.000 HD
ENDBRANCH  21  24
TORSDOF 2
ENDMDL
MODEL 7
REMARK VINA RESULT:      -6.1      2.513      4.105
REMARK  Name = 
REMARK  4 active torsions:
REMARK  status: ('A' for Active; 'I' for Inactive)
REMARK    1  A    between atoms: C_1  and  C_2
REMARK    2  A    between atoms: C_14  and  C_15
REMARK    3  A    between atoms: C_18  and  C_19
REMARK    4  A    between atoms: C_23  and  O_24
REMARK                            x       y       z     vdW  Elec       q    Type
REMARK                         _______ _______ _______ _____ _____    ______ ____
ROOT
ATOM      1  C   UNL     1      -6.524  10.326  19.018  0.00  0.00    +0.000 C 
ATOM      2  C   UNL     1      -6.274  11.847  18.876  0.00  0.00    +0.000 C 
ATOM      3  C   UNL     1      -5.531  12.117  17.562  0.00  0.00    +0.000 C 
ATOM      4  C   UNL     1      -4.095  11.545  17.586  0.00  0.00    +0.000 C 
ATOM      5  C   UNL     1      -3.265  12.140  18.746  0.00  0.00    +0.000 C 
ATOM      6  C   UNL     1      -3.995  12.002  20.129  0.00  0.00    +0.000 C 
ATOM      7  C   UNL     1      -3.262  12.905  21.135  0.00  0.00    +0.000 C 
ATOM      8  C   UNL     1      -1.802  12.523  21.263  0.00  0.00    +0.000 C 
ATOM      9  C   UNL     1      -1.091  12.552  19.919  0.00  0.00    +0.000 C 
ATOM     10  O   UNL     1      -0.240  13.627  19.851  0.00  0.00    +0.000 OA
ATOM     11  C   UNL     1       0.556  12.445  19.848  0.00  0.00    +0.000 C 
ATOM     12  C   UNL     1       0.619  11.124  20.526  0.00  0.00    +0.000 C 
ATOM     13  O   UNL     1       0.955  10.999  21.695  0.00  0.00    +0.000 OA
ATOM     14  C   UNL     1       0.106   9.991  19.622  0.00  0.00    +0.000 C 
ATOM     15  C   UNL     1      -1.350  10.259  19.081  0.00  0.00    +0.000 C 
ATOM     16  C   UNL     1      -1.712  11.772  18.774  0.00  0.00    +0.000 C 
ATOM     17  C   UNL     1      -1.121  12.134  17.390  0.00  0.00    +0.000 C 
ATOM     18  C   UNL     1      -5.455  12.478  20.019  0.00  0.00    +0.000 C 
ATOM     19  C   UNL     1      -6.404  12.349  21.212  0.00  0.00    +0.000 C 
ATOM     20  C   UNL     1      -7.759  12.772  20.608  0.00  0.00    +0.000 C 
ATOM     21  C   UNL     1      -7.630  12.575  19.077  0.00  0.00    +0.000 C 
ENDROOT
BRANCH  14  22
ATOM     22  C   UNL     1       1.097   9.781  18.544  0.00  0.00    +0.000 C 
ATOM     23  N   UNL     1       1.847   9.628  17.679  0.00  0.00    +0.000 NA
ENDBRANCH  14  22
BRANCH  21  24
ATOM     24  O   UNL     1      -7.661  13.847  18.430  0.00  0.00    +0.000 OA
ATOM     25  H   UNL     1      -8.568  14.025  18.126  0.00  0.00    +0.000 HD
ENDBRANCH  21  24
TORSDOF 2
ENDMDL
MODEL 8
REMARK VINA RESULT:      -6.0      1.809      2.493
REMARK  Name = 
REMARK  4 active torsions:
REMARK  status: ('A' for Active; 'I' for Inactive)
REMARK    1  A    between atoms: C_1  and  C_2
REMARK    2  A    between atoms: C_14  and  C_15
REMARK    3  A    between atoms: C_18  and  C_19
REMARK    4  A    between atoms: C_23  and  O_24
REMARK                            x       y       z     vdW  Elec       q    Type
REMARK                         _______ _______ _______ _____ _____    ______ ____
ROOT
ATOM      1  C   UNL     1      -5.833  14.208  19.871  0.00  0.00    +0.000 C 
ATOM      2  C   UNL     1      -5.669  12.711  20.232  0.00  0.00    +0.000 C 
ATOM      3  C   UNL     1      -5.122  12.592  21.659  0.00  0.00    +0.000 C 
ATOM      4  C   UNL     1      -3.672  13.119  21.765  0.00  0.00    +0.000 C 
ATOM      5  C   UNL     1      -2.721  12.361  20.813  0.00  0.00    +0.000 C 
ATOM      6  C   UNL     1      -3.251  12.340  19.336  0.00  0.00    +0.000 C 
ATOM      7  C   UNL     1      -2.430  11.297  18.559  0.00  0.00    +0.000 C 
ATOM      8  C   UNL     1      -0.950  11.622  18.590  0.00  0.00    +0.000 C 
ATOM      9  C   UNL     1      -0.429  11.746  20.012  0.00  0.00    +0.000 C 
ATOM     10  O   UNL     1       0.359  10.667  20.329  0.00  0.00    +0.000 OA
ATOM     11  C   UNL     1       1.197  11.819  20.298  0.00  0.00    +0.000 C 
ATOM     12  C   UNL     1       1.407  13.041  19.479  0.00  0.00    +0.000 C 
ATOM     13  O   UNL     1       1.903  13.008  18.362  0.00  0.00    +0.000 OA
ATOM     14  C   UNL     1       0.826  14.293  20.157  0.00  0.00    +0.000 C 
ATOM     15  C   UNL     1      -0.699  14.133  20.519  0.00  0.00    +0.000 C 
ATOM     16  C   UNL     1      -1.164  12.682  20.956  0.00  0.00    +0.000 C 
ATOM     17  C   UNL     1      -0.780  12.483  22.442  0.00  0.00    +0.000 C 
ATOM     18  C   UNL     1      -4.733  11.919  19.300  0.00  0.00    +0.000 C 
ATOM     19  C   UNL     1      -5.506  11.920  17.980  0.00  0.00    +0.000 C 
ATOM     20  C   UNL     1      -6.947  11.613  18.437  0.00  0.00    +0.000 C 
ATOM     21  C   UNL     1      -7.016  11.999  19.936  0.00  0.00    +0.000 C 
ENDROOT
BRANCH  14  22
ATOM     22  C   UNL     1       1.671  14.613  21.328  0.00  0.00    +0.000 C 
ATOM     23  N   UNL     1       2.343  14.830  22.243  0.00  0.00    +0.000 NA
ENDBRANCH  14  22
BRANCH  21  24
ATOM     24  O   UNL     1      -7.189  10.820  20.722  0.00  0.00    +0.000 OA
ATOM     25  H   UNL     1      -7.382  11.078  21.640  0.00  0.00    +0.000 HD
ENDBRANCH  21  24
TORSDOF 2
ENDMDL
MODEL 9
REMARK VINA RESULT:      -5.9      6.781      9.546
REMARK  Name = 
REMARK  4 active torsions:
REMARK  status: ('A' for Active; 'I' for Inactive)
REMARK    1  A    between atoms: C_1  and  C_2
REMARK    2  A    between atoms: C_14  and  C_15
REMARK    3  A    between atoms: C_18  and  C_19
REMARK    4  A    between atoms: C_23  and  O_24
REMARK                            x       y       z     vdW  Elec       q    Type
REMARK                         _______ _______ _______ _____ _____    ______ ____
ROOT
ATOM      1  C   UNL     1      -0.190   9.269  17.890  0.00  0.00    +0.000 C 
ATOM      2  C   UNL     1       0.906   9.702  18.895  0.00  0.00    +0.000 C 
ATOM      3  C   UNL     1       2.201  10.002  18.131  0.00  0.00    +0.000 C 
ATOM      4  C   UNL     1       2.810   8.725  17.507  0.00  0.00    +0.000 C 
ATOM      5  C   UNL     1       3.113   7.657  18.581  0.00  0.00    +0.000 C 
ATOM      6  C   UNL     1       1.867   7.354  19.486  0.00  0.00    +0.000 C 
ATOM      7  C   UNL     1       2.357   6.555  20.705  0.00  0.00    +0.000 C 
ATOM      8  C   UNL     1       3.037   5.267  20.286  0.00  0.00    +0.000 C 
ATOM      9  C   UNL     1       4.190   5.523  19.329  0.00  0.00    +0.000 C 
ATOM     10  O   UNL     1       5.391   5.312  19.959  0.00  0.00    +0.000 OA
ATOM     11  C   UNL     1       5.247   4.308  18.958  0.00  0.00    +0.000 C 
ATOM     12  C   UNL     1       4.203   3.407  18.405  0.00  0.00    +0.000 C 
ATOM     13  O   UNL     1       3.771   2.443  19.021  0.00  0.00    +0.000 OA
ATOM     14  C   UNL     1       3.675   3.904  17.049  0.00  0.00    +0.000 C 
ATOM     15  C   UNL     1       3.141   5.385  17.114  0.00  0.00    +0.000 C 
ATOM     16  C   UNL     1       3.911   6.363  18.095  0.00  0.00    +0.000 C 
ATOM     17  C   UNL     1       5.194   6.848  17.377  0.00  0.00    +0.000 C 
ATOM     18  C   UNL     1       1.231   8.665  19.986  0.00  0.00    +0.000 C 
ATOM     19  C   UNL     1      -0.060   8.636  20.807  0.00  0.00    +0.000 C 
ATOM     20  C   UNL     1      -0.410  10.134  20.930  0.00  0.00    +0.000 C 
ATOM     21  C   UNL     1       0.327  10.847  19.769  0.00  0.00    +0.000 C 
ENDROOT
BRANCH  14  22
ATOM     22  C   UNL     1       4.745   3.716  16.045  0.00  0.00    +0.000 C 
ATOM     23  N   UNL     1       5.596   3.598  15.271  0.00  0.00    +0.000 NA
ENDBRANCH  14  22
BRANCH  21  24
ATOM     24  O   UNL     1       1.348  11.690  20.301  0.00  0.00    +0.000 OA
ATOM     25  H   UNL     1       2.208  11.245  20.205  0.00  0.00    +0.000 HD
ENDBRANCH  21  24
TORSDOF 2
ENDMDL
