MODEL 1
REMARK VINA RESULT:      -7.7      0.000      0.000
REMARK  Name = 
REMARK  3 active torsions:
REMARK  status: ('A' for Active; 'I' for Inactive)
REMARK    1  A    between atoms: C_2  and  C_3
REMARK    2  A    between atoms: C_2  and  C_9
REMARK    3  A    between atoms: C_15  and  O_16
REMARK                            x       y       z     vdW  Elec       q    Type
REMARK                         _______ _______ _______ _____ _____    ______ ____
ROOT
ATOM      1  C   UNL     1       3.072   6.198  18.691  0.00  0.00    +0.000 A 
ATOM      2  C   UNL     1       2.378   7.067  19.523  0.00  0.00    +0.000 A 
ATOM      3  O   UNL     1       1.816   6.428  20.561  0.00  0.00    +0.000 OA
ATOM      4  C   UNL     1       1.929   5.110  20.295  0.00  0.00    +0.000 A 
ATOM      5  C   UNL     1       1.376   4.121  21.106  0.00  0.00    +0.000 A 
ATOM      6  C   UNL     1       1.292   2.844  20.572  0.00  0.00    +0.000 A 
ATOM      7  C   UNL     1       1.779   2.582  19.305  0.00  0.00    +0.000 A 
ATOM      8  C   UNL     1       2.460   3.570  18.573  0.00  0.00    +0.000 A 
ATOM      9 CL   UNL     1       2.971   3.290  16.962  0.00  0.00    +0.000 Cl
ATOM     10  C   UNL     1       2.565   4.893  19.066  0.00  0.00    +0.000 A 
ENDROOT
BRANCH   1  12
ATOM     11  O   UNL     1       3.718   7.969  17.342  0.00  0.00    +0.000 OA
ATOM     12  C   UNL     1       3.937   6.803  17.681  0.00  0.00    +0.000 C 
BRANCH  12  13
ATOM     13  C   UNL     1       5.144   6.166  17.081  0.00  0.00    +0.000 A 
ATOM     14  C   UNL     1       5.160   6.015  15.679  0.00  0.00    +0.000 A 
ATOM     15  C   UNL     1       6.107   5.208  15.052  0.00  0.00    +0.000 A 
ATOM     16  C   UNL     1       7.066   4.564  15.822  0.00  0.00    +0.000 A 
ATOM     17  C   UNL     1       7.158   4.838  17.187  0.00  0.00    +0.000 A 
ATOM     18  C   UNL     1       6.227   5.677  17.809  0.00  0.00    +0.000 A 
ENDBRANCH  12  13
ENDBRANCH   1  12
BRANCH   7  19
ATOM     19  O   UNL     1       1.543   1.348  18.760  0.00  0.00    +0.000 OA
ATOM     20  H   UNL     1       1.338   0.722  19.477  0.00  0.00    +0.000 HD
ENDBRANCH   7  19
TORSDOF 3
ENDMDL
MODEL 2
REMARK VINA RESULT:      -7.4      0.296      1.141
REMARK  Name = 
REMARK  3 active torsions:
REMARK  status: ('A' for Active; 'I' for Inactive)
REMARK    1  A    between atoms: C_2  and  C_3
REMARK    2  A    between atoms: C_2  and  C_9
REMARK    3  A    between atoms: C_15  and  O_16
REMARK                            x       y       z     vdW  Elec       q    Type
REMARK                         _______ _______ _______ _____ _____    ______ ____
ROOT
ATOM      1  C   UNL     1       3.137   6.079  18.571  0.00  0.00    +0.000 A 
ATOM      2  C   UNL     1       2.515   7.016  19.386  0.00  0.00    +0.000 A 
ATOM      3  O   UNL     1       1.900   6.443  20.433  0.00  0.00    +0.000 OA
ATOM      4  C   UNL     1       1.905   5.116  20.188  0.00  0.00    +0.000 A 
ATOM      5  C   UNL     1       1.270   4.189  21.013  0.00  0.00    +0.000 A 
ATOM      6  C   UNL     1       1.082   2.915  20.500  0.00  0.00    +0.000 A 
ATOM      7  C   UNL     1       1.550   2.593  19.240  0.00  0.00    +0.000 A 
ATOM      8  C   UNL     1       2.311   3.509  18.494  0.00  0.00    +0.000 A 
ATOM      9 CL   UNL     1       2.801   3.161  16.889  0.00  0.00    +0.000 Cl
ATOM     10  C   UNL     1       2.523   4.827  18.965  0.00  0.00    +0.000 A 
ENDROOT
BRANCH   1  12
ATOM     11  O   UNL     1       4.048   7.806  17.320  0.00  0.00    +0.000 OA
ATOM     12  C   UNL     1       4.051   6.594  17.554  0.00  0.00    +0.000 C 
BRANCH  12  13
ATOM     13  C   UNL     1       5.079   5.793  16.829  0.00  0.00    +0.000 A 
ATOM     14  C   UNL     1       6.069   5.163  17.612  0.00  0.00    +0.000 A 
ATOM     15  C   UNL     1       7.210   4.617  17.026  0.00  0.00    +0.000 A 
ATOM     16  C   UNL     1       7.358   4.673  15.647  0.00  0.00    +0.000 A 
ATOM     17  C   UNL     1       6.310   5.146  14.856  0.00  0.00    +0.000 A 
ATOM     18  C   UNL     1       5.150   5.661  15.444  0.00  0.00    +0.000 A 
ENDBRANCH  12  13
ENDBRANCH   1  12
BRANCH   7  19
ATOM     19  O   UNL     1       1.214   1.373  18.714  0.00  0.00    +0.000 OA
ATOM     20  H   UNL     1       0.376   1.079  19.112  0.00  0.00    +0.000 HD
ENDBRANCH   7  19
TORSDOF 3
ENDMDL
MODEL 3
REMARK VINA RESULT:      -7.3      1.975      3.426
REMARK  Name = 
REMARK  3 active torsions:
REMARK  status: ('A' for Active; 'I' for Inactive)
REMARK    1  A    between atoms: C_2  and  C_3
REMARK    2  A    between atoms: C_2  and  C_9
REMARK    3  A    between atoms: C_15  and  O_16
REMARK                            x       y       z     vdW  Elec       q    Type
REMARK                         _______ _______ _______ _____ _____    ______ ____
ROOT
ATOM      1  C   UNL     1       4.095   3.545  17.632  0.00  0.00    +0.000 A 
ATOM      2  C   UNL     1       3.965   2.165  17.710  0.00  0.00    +0.000 A 
ATOM      3  O   UNL     1       2.824   1.800  18.316  0.00  0.00    +0.000 OA
ATOM      4  C   UNL     1       2.310   2.926  18.854  0.00  0.00    +0.000 A 
ATOM      5  C   UNL     1       1.165   2.935  19.648  0.00  0.00    +0.000 A 
ATOM      6  C   UNL     1       0.919   4.083  20.385  0.00  0.00    +0.000 A 
ATOM      7  C   UNL     1       1.765   5.171  20.288  0.00  0.00    +0.000 A 
ATOM      8  C   UNL     1       2.829   5.180  19.370  0.00  0.00    +0.000 A 
ATOM      9 CL   UNL     1       3.949   6.477  19.317  0.00  0.00    +0.000 Cl
ATOM     10  C   UNL     1       3.132   4.031  18.600  0.00  0.00    +0.000 A 
ENDROOT
BRANCH   1  12
ATOM     11  O   UNL     1       5.157   3.737  15.580  0.00  0.00    +0.000 OA
ATOM     12  C   UNL     1       5.157   4.059  16.771  0.00  0.00    +0.000 C 
BRANCH  12  13
ATOM     13  C   UNL     1       6.206   5.037  17.180  0.00  0.00    +0.000 A 
ATOM     14  C   UNL     1       7.023   4.680  18.273  0.00  0.00    +0.000 A 
ATOM     15  C   UNL     1       7.845   5.618  18.894  0.00  0.00    +0.000 A 
ATOM     16  C   UNL     1       7.879   6.918  18.409  0.00  0.00    +0.000 A 
ATOM     17  C   UNL     1       7.202   7.236  17.230  0.00  0.00    +0.000 A 
ATOM     18  C   UNL     1       6.404   6.283  16.589  0.00  0.00    +0.000 A 
ENDBRANCH  12  13
ENDBRANCH   1  12
BRANCH   7  19
ATOM     19  O   UNL     1       1.570   6.225  21.141  0.00  0.00    +0.000 OA
ATOM     20  H   UNL     1       2.416   6.693  21.259  0.00  0.00    +0.000 HD
ENDBRANCH   7  19
TORSDOF 3
ENDMDL
MODEL 4
REMARK VINA RESULT:      -7.2      1.577      2.077
REMARK  Name = 
REMARK  3 active torsions:
REMARK  status: ('A' for Active; 'I' for Inactive)
REMARK    1  A    between atoms: C_2  and  C_3
REMARK    2  A    between atoms: C_2  and  C_9
REMARK    3  A    between atoms: C_15  and  O_16
REMARK                            x       y       z     vdW  Elec       q    Type
REMARK                         _______ _______ _______ _____ _____    ______ ____
ROOT
ATOM      1  C   UNL     1       4.370   4.798  18.858  0.00  0.00    +0.000 A 
ATOM      2  C   UNL     1       3.955   6.090  19.150  0.00  0.00    +0.000 A 
ATOM      3  O   UNL     1       2.839   6.104  19.897  0.00  0.00    +0.000 OA
ATOM      4  C   UNL     1       2.376   4.836  19.899  0.00  0.00    +0.000 A 
ATOM      5  C   UNL     1       1.174   4.468  20.499  0.00  0.00    +0.000 A 
ATOM      6  C   UNL     1       0.662   3.221  20.171  0.00  0.00    +0.000 A 
ATOM      7  C   UNL     1       1.356   2.384  19.317  0.00  0.00    +0.000 A 
ATOM      8  C   UNL     1       2.633   2.729  18.845  0.00  0.00    +0.000 A 
ATOM      9 CL   UNL     1       3.454   1.752  17.701  0.00  0.00    +0.000 Cl
ATOM     10  C   UNL     1       3.198   3.994  19.139  0.00  0.00    +0.000 A 
ENDROOT
BRANCH   1  12
ATOM     11  O   UNL     1       6.668   4.551  19.042  0.00  0.00    +0.000 OA
ATOM     12  C   UNL     1       5.703   4.649  18.279  0.00  0.00    +0.000 C 
BRANCH  12  13
ATOM     13  C   UNL     1       6.005   4.502  16.826  0.00  0.00    +0.000 A 
ATOM     14  C   UNL     1       7.319   4.800  16.411  0.00  0.00    +0.000 A 
ATOM     15  C   UNL     1       7.632   4.947  15.061  0.00  0.00    +0.000 A 
ATOM     16  C   UNL     1       6.636   4.769  14.110  0.00  0.00    +0.000 A 
ATOM     17  C   UNL     1       5.377   4.314  14.503  0.00  0.00    +0.000 A 
ATOM     18  C   UNL     1       5.075   4.133  15.857  0.00  0.00    +0.000 A 
ENDBRANCH  12  13
ENDBRANCH   1  12
BRANCH   7  19
ATOM     19  O   UNL     1       0.747   1.228  18.903  0.00  0.00    +0.000 OA
ATOM     20  H   UNL     1       0.489   0.712  19.687  0.00  0.00    +0.000 HD
ENDBRANCH   7  19
TORSDOF 3
ENDMDL
MODEL 5
REMARK VINA RESULT:      -7.2      1.611      1.917
REMARK  Name = 
REMARK  3 active torsions:
REMARK  status: ('A' for Active; 'I' for Inactive)
REMARK    1  A    between atoms: C_2  and  C_3
REMARK    2  A    between atoms: C_2  and  C_9
REMARK    3  A    between atoms: C_15  and  O_16
REMARK                            x       y       z     vdW  Elec       q    Type
REMARK                         _______ _______ _______ _____ _____    ______ ____
ROOT
ATOM      1  C   UNL     1       4.417   4.863  18.750  0.00  0.00    +0.000 A 
ATOM      2  C   UNL     1       3.976   6.156  19.002  0.00  0.00    +0.000 A 
ATOM      3  O   UNL     1       2.884   6.172  19.783  0.00  0.00    +0.000 OA
ATOM      4  C   UNL     1       2.456   4.894  19.853  0.00  0.00    +0.000 A 
ATOM      5  C   UNL     1       1.283   4.521  20.505  0.00  0.00    +0.000 A 
ATOM      6  C   UNL     1       0.795   3.249  20.246  0.00  0.00    +0.000 A 
ATOM      7  C   UNL     1       1.484   2.394  19.405  0.00  0.00    +0.000 A 
ATOM      8  C   UNL     1       2.737   2.752  18.879  0.00  0.00    +0.000 A 
ATOM      9 CL   UNL     1       3.548   1.749  17.750  0.00  0.00    +0.000 Cl
ATOM     10  C   UNL     1       3.276   4.042  19.102  0.00  0.00    +0.000 A 
ENDROOT
BRANCH   1  12
ATOM     11  O   UNL     1       6.693   4.437  18.858  0.00  0.00    +0.000 OA
ATOM     12  C   UNL     1       5.735   4.725  18.136  0.00  0.00    +0.000 C 
BRANCH  12  13
ATOM     13  C   UNL     1       6.021   4.800  16.674  0.00  0.00    +0.000 A 
ATOM     14  C   UNL     1       5.033   4.300  15.801  0.00  0.00    +0.000 A 
ATOM     15  C   UNL     1       5.306   4.085  14.452  0.00  0.00    +0.000 A 
ATOM     16  C   UNL     1       6.566   4.395  13.957  0.00  0.00    +0.000 A 
ATOM     17  C   UNL     1       7.492   5.042  14.776  0.00  0.00    +0.000 A 
ATOM     18  C   UNL     1       7.203   5.289  16.122  0.00  0.00    +0.000 A 
ENDBRANCH  12  13
ENDBRANCH   1  12
BRANCH   7  19
ATOM     19  O   UNL     1       0.895   1.207  19.059  0.00  0.00    +0.000 OA
ATOM     20  H   UNL     1       1.114   1.006  18.133  0.00  0.00    +0.000 HD
ENDBRANCH   7  19
TORSDOF 3
ENDMDL
MODEL 6
REMARK VINA RESULT:      -7.1      1.838      5.353
REMARK  Name = 
REMARK  3 active torsions:
REMARK  status: ('A' for Active; 'I' for Inactive)
REMARK    1  A    between atoms: C_2  and  C_3
REMARK    2  A    between atoms: C_2  and  C_9
REMARK    3  A    between atoms: C_15  and  O_16
REMARK                            x       y       z     vdW  Elec       q    Type
REMARK                         _______ _______ _______ _____ _____    ______ ____
ROOT
ATOM      1  C   UNL     1       3.193   6.573  18.470  0.00  0.00    +0.000 A 
ATOM      2  C   UNL     1       3.035   7.814  17.867  0.00  0.00    +0.000 A 
ATOM      3  O   UNL     1       3.662   7.880  16.682  0.00  0.00    +0.000 OA
ATOM      4  C   UNL     1       4.434   6.776  16.605  0.00  0.00    +0.000 A 
ATOM      5  C   UNL     1       5.312   6.535  15.550  0.00  0.00    +0.000 A 
ATOM      6  C   UNL     1       6.261   5.541  15.736  0.00  0.00    +0.000 A 
ATOM      7  C   UNL     1       6.286   4.809  16.908  0.00  0.00    +0.000 A 
ATOM      8  C   UNL     1       5.297   4.981  17.890  0.00  0.00    +0.000 A 
ATOM      9 CL   UNL     1       5.380   4.160  19.392  0.00  0.00    +0.000 Cl
ATOM     10  C   UNL     1       4.311   5.990  17.757  0.00  0.00    +0.000 A 
ENDROOT
BRANCH   1  12
ATOM     11  O   UNL     1       1.893   7.243  20.270  0.00  0.00    +0.000 OA
ATOM     12  C   UNL     1       2.349   6.292  19.629  0.00  0.00    +0.000 C 
BRANCH  12  13
ATOM     13  C   UNL     1       1.894   4.939  20.061  0.00  0.00    +0.000 A 
ATOM     14  C   UNL     1       2.243   4.531  21.365  0.00  0.00    +0.000 A 
ATOM     15  C   UNL     1       2.098   3.205  21.768  0.00  0.00    +0.000 A 
ATOM     16  C   UNL     1       1.576   2.278  20.877  0.00  0.00    +0.000 A 
ATOM     17  C   UNL     1       1.076   2.705  19.646  0.00  0.00    +0.000 A 
ATOM     18  C   UNL     1       1.191   4.044  19.257  0.00  0.00    +0.000 A 
ENDBRANCH  12  13
ENDBRANCH   1  12
BRANCH   7  19
ATOM     19  O   UNL     1       7.328   3.942  17.110  0.00  0.00    +0.000 OA
ATOM     20  H   UNL     1       8.165   4.429  17.016  0.00  0.00    +0.000 HD
ENDBRANCH   7  19
TORSDOF 3
ENDMDL
MODEL 7
REMARK VINA RESULT:      -7.1      1.950      5.468
REMARK  Name = 
REMARK  3 active torsions:
REMARK  status: ('A' for Active; 'I' for Inactive)
REMARK    1  A    between atoms: C_2  and  C_3
REMARK    2  A    between atoms: C_2  and  C_9
REMARK    3  A    between atoms: C_15  and  O_16
REMARK                            x       y       z     vdW  Elec       q    Type
REMARK                         _______ _______ _______ _____ _____    ______ ____
ROOT
ATOM      1  C   UNL     1       3.070   5.717  17.888  0.00  0.00    +0.000 A 
ATOM      2  C   UNL     1       2.812   7.077  17.776  0.00  0.00    +0.000 A 
ATOM      3  O   UNL     1       3.872   7.753  17.305  0.00  0.00    +0.000 OA
ATOM      4  C   UNL     1       4.908   6.888  17.331  0.00  0.00    +0.000 A 
ATOM      5  C   UNL     1       6.211   7.255  17.000  0.00  0.00    +0.000 A 
ATOM      6  C   UNL     1       7.222   6.377  17.359  0.00  0.00    +0.000 A 
ATOM      7  C   UNL     1       6.921   5.180  17.981  0.00  0.00    +0.000 A 
ATOM      8  C   UNL     1       5.587   4.778  18.170  0.00  0.00    +0.000 A 
ATOM      9 CL   UNL     1       5.201   3.351  19.036  0.00  0.00    +0.000 Cl
ATOM     10  C   UNL     1       4.516   5.641  17.832  0.00  0.00    +0.000 A 
ENDROOT
BRANCH   1  12
ATOM     11  O   UNL     1       1.131   4.639  17.215  0.00  0.00    +0.000 OA
ATOM     12  C   UNL     1       1.923   4.848  18.138  0.00  0.00    +0.000 C 
BRANCH  12  13
ATOM     13  C   UNL     1       1.668   4.093  19.398  0.00  0.00    +0.000 A 
ATOM     14  C   UNL     1       2.198   4.634  20.588  0.00  0.00    +0.000 A 
ATOM     15  C   UNL     1       2.243   3.886  21.762  0.00  0.00    +0.000 A 
ATOM     16  C   UNL     1       1.731   2.595  21.765  0.00  0.00    +0.000 A 
ATOM     17  C   UNL     1       1.058   2.114  20.641  0.00  0.00    +0.000 A 
ATOM     18  C   UNL     1       0.984   2.881  19.473  0.00  0.00    +0.000 A 
ENDBRANCH  12  13
ENDBRANCH   1  12
BRANCH   7  19
ATOM     19  O   UNL     1       7.953   4.412  18.451  0.00  0.00    +0.000 OA
ATOM     20  H   UNL     1       8.409   4.003  17.695  0.00  0.00    +0.000 HD
ENDBRANCH   7  19
TORSDOF 3
ENDMDL
MODEL 8
REMARK VINA RESULT:      -7.1      1.515      2.138
REMARK  Name = 
REMARK  3 active torsions:
REMARK  status: ('A' for Active; 'I' for Inactive)
REMARK    1  A    between atoms: C_2  and  C_3
REMARK    2  A    between atoms: C_2  and  C_9
REMARK    3  A    between atoms: C_15  and  O_16
REMARK                            x       y       z     vdW  Elec       q    Type
REMARK                         _______ _______ _______ _____ _____    ______ ____
ROOT
ATOM      1  C   UNL     1       3.702   5.541  18.115  0.00  0.00    +0.000 A 
ATOM      2  C   UNL     1       3.069   6.715  18.499  0.00  0.00    +0.000 A 
ATOM      3  O   UNL     1       2.209   6.516  19.510  0.00  0.00    +0.000 OA
ATOM      4  C   UNL     1       2.088   5.178  19.639  0.00  0.00    +0.000 A 
ATOM      5  C   UNL     1       1.204   4.578  20.533  0.00  0.00    +0.000 A 
ATOM      6  C   UNL     1       0.950   3.226  20.356  0.00  0.00    +0.000 A 
ATOM      7  C   UNL     1       1.590   2.520  19.355  0.00  0.00    +0.000 A 
ATOM      8  C   UNL     1       2.583   3.124  18.565  0.00  0.00    +0.000 A 
ATOM      9 CL   UNL     1       3.304   2.293  17.251  0.00  0.00    +0.000 Cl
ATOM     10  C   UNL     1       2.874   4.504  18.696  0.00  0.00    +0.000 A 
ENDROOT
BRANCH   1  12
ATOM     11  O   UNL     1       4.694   5.352  16.027  0.00  0.00    +0.000 OA
ATOM     12  C   UNL     1       4.842   5.672  17.210  0.00  0.00    +0.000 C 
BRANCH  12  13
ATOM     13  C   UNL     1       6.164   6.263  17.563  0.00  0.00    +0.000 A 
ATOM     14  C   UNL     1       6.932   5.583  18.532  0.00  0.00    +0.000 A 
ATOM     15  C   UNL     1       8.046   6.181  19.118  0.00  0.00    +0.000 A 
ATOM     16  C   UNL     1       8.419   7.457  18.719  0.00  0.00    +0.000 A 
ATOM     17  C   UNL     1       7.766   8.068  17.648  0.00  0.00    +0.000 A 
ATOM     18  C   UNL     1       6.669   7.451  17.038  0.00  0.00    +0.000 A 
ENDBRANCH  12  13
ENDBRANCH   1  12
BRANCH   7  19
ATOM     19  O   UNL     1       1.202   1.228  19.120  0.00  0.00    +0.000 OA
ATOM     20  H   UNL     1       0.325   1.087  19.518  0.00  0.00    +0.000 HD
ENDBRANCH   7  19
TORSDOF 3
ENDMDL
MODEL 9
REMARK VINA RESULT:      -7.0      2.459      2.858
REMARK  Name = 
REMARK  3 active torsions:
REMARK  status: ('A' for Active; 'I' for Inactive)
REMARK    1  A    between atoms: C_2  and  C_3
REMARK    2  A    between atoms: C_2  and  C_9
REMARK    3  A    between atoms: C_15  and  O_16
REMARK                            x       y       z     vdW  Elec       q    Type
REMARK                         _______ _______ _______ _____ _____    ______ ____
ROOT
ATOM      1  C   UNL     1       3.654   3.937  17.707  0.00  0.00    +0.000 A 
ATOM      2  C   UNL     1       2.614   3.905  16.787  0.00  0.00    +0.000 A 
ATOM      3  O   UNL     1       1.412   3.894  17.386  0.00  0.00    +0.000 OA
ATOM      4  C   UNL     1       1.650   3.675  18.696  0.00  0.00    +0.000 A 
ATOM      5  C   UNL     1       0.634   3.505  19.635  0.00  0.00    +0.000 A 
ATOM      6  C   UNL     1       0.996   2.985  20.868  0.00  0.00    +0.000 A 
ATOM      7  C   UNL     1       2.319   2.695  21.143  0.00  0.00    +0.000 A 
ATOM      8  C   UNL     1       3.335   3.014  20.226  0.00  0.00    +0.000 A 
ATOM      9 CL   UNL     1       4.964   2.560  20.508  0.00  0.00    +0.000 Cl
ATOM     10  C   UNL     1       3.021   3.535  18.947  0.00  0.00    +0.000 A 
ENDROOT
BRANCH   1  12
ATOM     11  O   UNL     1       5.361   3.610  16.174  0.00  0.00    +0.000 OA
ATOM     12  C   UNL     1       4.989   4.214  17.183  0.00  0.00    +0.000 C 
BRANCH  12  13
ATOM     13  C   UNL     1       5.925   5.251  17.704  0.00  0.00    +0.000 A 
ATOM     14  C   UNL     1       5.978   6.475  17.005  0.00  0.00    +0.000 A 
ATOM     15  C   UNL     1       6.994   7.398  17.246  0.00  0.00    +0.000 A 
ATOM     16  C   UNL     1       7.952   7.117  18.210  0.00  0.00    +0.000 A 
ATOM     17  C   UNL     1       7.812   5.987  19.018  0.00  0.00    +0.000 A 
ATOM     18  C   UNL     1       6.772   5.079  18.797  0.00  0.00    +0.000 A 
ENDBRANCH  12  13
ENDBRANCH   1  12
BRANCH   7  19
ATOM     19  O   UNL     1       2.614   2.047  22.313  0.00  0.00    +0.000 OA
ATOM     20  H   UNL     1       1.873   1.458  22.540  0.00  0.00    +0.000 HD
ENDBRANCH   7  19
TORSDOF 3
ENDMDL
