MODEL 1
REMARK VINA RESULT:      -8.0      0.000      0.000
REMARK  Name = 
REMARK  2 active torsions:
REMARK  status: ('A' for Active; 'I' for Inactive)
REMARK    1  A    between atoms: N_1  and  C_2
REMARK    2  A    between atoms: C_13  and  N_14
REMARK                            x       y       z     vdW  Elec       q    Type
REMARK                         _______ _______ _______ _____ _____    ______ ____
ROOT
ATOM      1  C   UNL     1       3.844   3.226  18.108  0.00  0.00    +0.000 A 
ATOM      2  N   UNL     1       3.032   3.461  19.149  0.00  0.00    +0.000 NA
ATOM      3  C   UNL     1       2.696   4.723  19.437  0.00  0.00    +0.000 A 
ATOM      4  C   UNL     1       1.850   4.928  20.519  0.00  0.00    +0.000 A 
ATOM      5  C   UNL     1       1.419   6.200  20.894  0.00  0.00    +0.000 A 
ATOM      6  C   UNL     1       1.845   7.302  20.173  0.00  0.00    +0.000 A 
ATOM      7  C   UNL     1       2.704   7.122  19.087  0.00  0.00    +0.000 A 
ATOM      8  C   UNL     1       3.153   5.832  18.695  0.00  0.00    +0.000 A 
ATOM      9  C   UNL     1       4.032   5.577  17.592  0.00  0.00    +0.000 A 
ATOM     10  C   UNL     1       4.578   6.595  16.766  0.00  0.00    +0.000 A 
ATOM     11  C   UNL     1       5.432   6.315  15.697  0.00  0.00    +0.000 A 
ATOM     12  C   UNL     1       5.764   4.992  15.420  0.00  0.00    +0.000 A 
ATOM     13  C   UNL     1       5.241   3.959  16.202  0.00  0.00    +0.000 A 
ATOM     14  C   UNL     1       4.383   4.237  17.294  0.00  0.00    +0.000 A 
ENDROOT
BRANCH   1  15
ATOM     15  N   UNL     1       4.082   1.871  17.861  0.00  0.00    +0.000 N 
ATOM     16  H   UNL     1       3.924   1.726  16.865  0.00  0.00    +0.000 HD
ATOM     17  H   UNL     1       3.490   1.269  18.420  0.00  0.00    +0.000 HD
ENDBRANCH   1  15
BRANCH  12  18
ATOM     18  N   UNL     1       6.673   4.682  14.311  0.00  0.00    +0.000 N 
ATOM     19  O   UNL     1       6.360   3.754  13.551  0.00  0.00    +0.000 OA
ATOM     20  O   UNL     1       7.695   5.373  14.193  0.00  0.00    +0.000 OA
ENDBRANCH  12  18
TORSDOF 2
ENDMDL
MODEL 2
REMARK VINA RESULT:      -7.8      2.360      2.888
REMARK  Name = 
REMARK  2 active torsions:
REMARK  status: ('A' for Active; 'I' for Inactive)
REMARK    1  A    between atoms: N_1  and  C_2
REMARK    2  A    between atoms: C_13  and  N_14
REMARK                            x       y       z     vdW  Elec       q    Type
REMARK                         _______ _______ _______ _____ _____    ______ ____
ROOT
ATOM      1  C   UNL     1       6.575   4.542  18.076  0.00  0.00    +0.000 A 
ATOM      2  N   UNL     1       5.718   4.235  19.061  0.00  0.00    +0.000 NA
ATOM      3  C   UNL     1       4.477   3.851  18.744  0.00  0.00    +0.000 A 
ATOM      4  C   UNL     1       3.619   3.537  19.789  0.00  0.00    +0.000 A 
ATOM      5  C   UNL     1       2.310   3.105  19.571  0.00  0.00    +0.000 A 
ATOM      6  C   UNL     1       1.842   2.985  18.274  0.00  0.00    +0.000 A 
ATOM      7  C   UNL     1       2.684   3.305  17.207  0.00  0.00    +0.000 A 
ATOM      8  C   UNL     1       4.017   3.748  17.414  0.00  0.00    +0.000 A 
ATOM      9  C   UNL     1       4.933   4.091  16.366  0.00  0.00    +0.000 A 
ATOM     10  C   UNL     1       4.604   4.045  14.986  0.00  0.00    +0.000 A 
ATOM     11  C   UNL     1       5.519   4.385  13.985  0.00  0.00    +0.000 A 
ATOM     12  C   UNL     1       6.804   4.780  14.346  0.00  0.00    +0.000 A 
ATOM     13  C   UNL     1       7.171   4.830  15.693  0.00  0.00    +0.000 A 
ATOM     14  C   UNL     1       6.246   4.496  16.712  0.00  0.00    +0.000 A 
ENDROOT
BRANCH   1  15
ATOM     15  N   UNL     1       7.860   4.872  18.517  0.00  0.00    +0.000 N 
ATOM     16  H   UNL     1       7.849   4.790  19.532  0.00  0.00    +0.000 HD
ATOM     17  H   UNL     1       8.141   5.800  18.225  0.00  0.00    +0.000 HD
ENDBRANCH   1  15
BRANCH  12  18
ATOM     18  N   UNL     1       7.771   5.156  13.308  0.00  0.00    +0.000 N 
ATOM     19  O   UNL     1       7.600   4.698  12.168  0.00  0.00    +0.000 OA
ATOM     20  O   UNL     1       8.695   5.916  13.629  0.00  0.00    +0.000 OA
ENDBRANCH  12  18
TORSDOF 2
ENDMDL
MODEL 3
REMARK VINA RESULT:      -7.4      0.853      1.152
REMARK  Name = 
REMARK  2 active torsions:
REMARK  status: ('A' for Active; 'I' for Inactive)
REMARK    1  A    between atoms: N_1  and  C_2
REMARK    2  A    between atoms: C_13  and  N_14
REMARK                            x       y       z     vdW  Elec       q    Type
REMARK                         _______ _______ _______ _____ _____    ______ ____
ROOT
ATOM      1  C   UNL     1       4.072   3.999  18.980  0.00  0.00    +0.000 A 
ATOM      2  N   UNL     1       3.218   4.400  19.933  0.00  0.00    +0.000 NA
ATOM      3  C   UNL     1       2.706   5.634  19.867  0.00  0.00    +0.000 A 
ATOM      4  C   UNL     1       1.823   6.013  20.869  0.00  0.00    +0.000 A 
ATOM      5  C   UNL     1       1.214   7.268  20.886  0.00  0.00    +0.000 A 
ATOM      6  C   UNL     1       1.497   8.174  19.878  0.00  0.00    +0.000 A 
ATOM      7  C   UNL     1       2.391   7.819  18.867  0.00  0.00    +0.000 A 
ATOM      8  C   UNL     1       3.019   6.545  18.837  0.00  0.00    +0.000 A 
ATOM      9  C   UNL     1       3.944   6.117  17.829  0.00  0.00    +0.000 A 
ATOM     10  C   UNL     1       4.358   6.931  16.742  0.00  0.00    +0.000 A 
ATOM     11  C   UNL     1       5.261   6.485  15.773  0.00  0.00    +0.000 A 
ATOM     12  C   UNL     1       5.776   5.195  15.867  0.00  0.00    +0.000 A 
ATOM     13  C   UNL     1       5.387   4.359  16.916  0.00  0.00    +0.000 A 
ATOM     14  C   UNL     1       4.480   4.808  17.907  0.00  0.00    +0.000 A 
ENDROOT
BRANCH   1  15
ATOM     15  N   UNL     1       4.498   2.674  19.113  0.00  0.00    +0.000 N 
ATOM     16  H   UNL     1       5.515   2.690  19.069  0.00  0.00    +0.000 HD
ATOM     17  H   UNL     1       4.107   2.071  18.399  0.00  0.00    +0.000 HD
ENDBRANCH   1  15
BRANCH  12  18
ATOM     18  N   UNL     1       6.738   4.718  14.867  0.00  0.00    +0.000 N 
ATOM     19  O   UNL     1       7.793   5.355  14.733  0.00  0.00    +0.000 OA
ATOM     20  O   UNL     1       6.445   3.701  14.223  0.00  0.00    +0.000 OA
ENDBRANCH  12  18
TORSDOF 2
ENDMDL
MODEL 4
REMARK VINA RESULT:      -7.2      1.659      2.866
REMARK  Name = 
REMARK  2 active torsions:
REMARK  status: ('A' for Active; 'I' for Inactive)
REMARK    1  A    between atoms: N_1  and  C_2
REMARK    2  A    between atoms: C_13  and  N_14
REMARK                            x       y       z     vdW  Elec       q    Type
REMARK                         _______ _______ _______ _____ _____    ______ ____
ROOT
ATOM      1  C   UNL     1       3.446   6.499  17.864  0.00  0.00    +0.000 A 
ATOM      2  N   UNL     1       2.541   6.289  18.832  0.00  0.00    +0.000 NA
ATOM      3  C   UNL     1       2.313   5.038  19.245  0.00  0.00    +0.000 A 
ATOM      4  C   UNL     1       1.373   4.859  20.251  0.00  0.00    +0.000 A 
ATOM      5  C   UNL     1       1.073   3.600  20.772  0.00  0.00    +0.000 A 
ATOM      6  C   UNL     1       1.726   2.486  20.273  0.00  0.00    +0.000 A 
ATOM      7  C   UNL     1       2.668   2.640  19.254  0.00  0.00    +0.000 A 
ATOM      8  C   UNL     1       2.982   3.915  18.714  0.00  0.00    +0.000 A 
ATOM      9  C   UNL     1       3.937   4.144  17.669  0.00  0.00    +0.000 A 
ATOM     10  C   UNL     1       4.674   3.110  17.035  0.00  0.00    +0.000 A 
ATOM     11  C   UNL     1       5.600   3.364  16.019  0.00  0.00    +0.000 A 
ATOM     12  C   UNL     1       5.818   4.676  15.611  0.00  0.00    +0.000 A 
ATOM     13  C   UNL     1       5.120   5.724  16.215  0.00  0.00    +0.000 A 
ATOM     14  C   UNL     1       4.172   5.473  17.238  0.00  0.00    +0.000 A 
ENDROOT
BRANCH   1  15
ATOM     15  N   UNL     1       3.648   7.846  17.552  0.00  0.00    +0.000 N 
ATOM     16  H   UNL     1       4.386   7.874  16.851  0.00  0.00    +0.000 HD
ATOM     17  H   UNL     1       3.891   8.397  18.366  0.00  0.00    +0.000 HD
ENDBRANCH   1  15
BRANCH  12  18
ATOM     18  N   UNL     1       6.774   4.958  14.534  0.00  0.00    +0.000 N 
ATOM     19  O   UNL     1       7.740   5.690  14.798  0.00  0.00    +0.000 OA
ATOM     20  O   UNL     1       6.568   4.439  13.428  0.00  0.00    +0.000 OA
ENDBRANCH  12  18
TORSDOF 2
ENDMDL
MODEL 5
REMARK VINA RESULT:      -7.2      2.233      3.334
REMARK  Name = 
REMARK  2 active torsions:
REMARK  status: ('A' for Active; 'I' for Inactive)
REMARK    1  A    between atoms: N_1  and  C_2
REMARK    2  A    between atoms: C_13  and  N_14
REMARK                            x       y       z     vdW  Elec       q    Type
REMARK                         _______ _______ _______ _____ _____    ______ ____
ROOT
ATOM      1  C   UNL     1       2.773   6.495  18.464  0.00  0.00    +0.000 A 
ATOM      2  N   UNL     1       1.796   5.933  19.191  0.00  0.00    +0.000 NA
ATOM      3  C   UNL     1       2.040   4.779  19.822  0.00  0.00    +0.000 A 
ATOM      4  C   UNL     1       1.007   4.228  20.568  0.00  0.00    +0.000 A 
ATOM      5  C   UNL     1       1.159   3.040  21.283  0.00  0.00    +0.000 A 
ATOM      6  C   UNL     1       2.374   2.379  21.250  0.00  0.00    +0.000 A 
ATOM      7  C   UNL     1       3.424   2.908  20.498  0.00  0.00    +0.000 A 
ATOM      8  C   UNL     1       3.283   4.116  19.764  0.00  0.00    +0.000 A 
ATOM      9  C   UNL     1       4.319   4.714  18.973  0.00  0.00    +0.000 A 
ATOM     10  C   UNL     1       5.614   4.153  18.816  0.00  0.00    +0.000 A 
ATOM     11  C   UNL     1       6.605   4.760  18.039  0.00  0.00    +0.000 A 
ATOM     12  C   UNL     1       6.322   5.961  17.395  0.00  0.00    +0.000 A 
ATOM     13  C   UNL     1       5.064   6.551  17.532  0.00  0.00    +0.000 A 
ATOM     14  C   UNL     1       4.052   5.936  18.310  0.00  0.00    +0.000 A 
ENDROOT
BRANCH   1  15
ATOM     15  N   UNL     1       2.429   7.727  17.898  0.00  0.00    +0.000 N 
ATOM     16  H   UNL     1       3.304   8.210  17.702  0.00  0.00    +0.000 HD
ATOM     17  H   UNL     1       1.832   8.275  18.505  0.00  0.00    +0.000 HD
ENDBRANCH   1  15
BRANCH  12  18
ATOM     18  N   UNL     1       7.346   6.602  16.562  0.00  0.00    +0.000 N 
ATOM     19  O   UNL     1       7.783   7.703  16.931  0.00  0.00    +0.000 OA
ATOM     20  O   UNL     1       7.722   6.002  15.546  0.00  0.00    +0.000 OA
ENDBRANCH  12  18
TORSDOF 2
ENDMDL
MODEL 6
REMARK VINA RESULT:      -7.2      3.876      6.065
REMARK  Name = 
REMARK  2 active torsions:
REMARK  status: ('A' for Active; 'I' for Inactive)
REMARK    1  A    between atoms: N_1  and  C_2
REMARK    2  A    between atoms: C_13  and  N_14
REMARK                            x       y       z     vdW  Elec       q    Type
REMARK                         _______ _______ _______ _____ _____    ______ ____
ROOT
ATOM      1  C   UNL     1       6.360   4.804  18.567  0.00  0.00    +0.000 A 
ATOM      2  N   UNL     1       7.098   5.030  17.470  0.00  0.00    +0.000 NA
ATOM      3  C   UNL     1       6.602   4.692  16.275  0.00  0.00    +0.000 A 
ATOM      4  C   UNL     1       7.393   4.944  15.161  0.00  0.00    +0.000 A 
ATOM      5  C   UNL     1       6.966   4.651  13.866  0.00  0.00    +0.000 A 
ATOM      6  C   UNL     1       5.716   4.088  13.674  0.00  0.00    +0.000 A 
ATOM      7  C   UNL     1       4.908   3.816  14.779  0.00  0.00    +0.000 A 
ATOM      8  C   UNL     1       5.330   4.107  16.104  0.00  0.00    +0.000 A 
ATOM      9  C   UNL     1       4.552   3.855  17.281  0.00  0.00    +0.000 A 
ATOM     10  C   UNL     1       3.262   3.262  17.261  0.00  0.00    +0.000 A 
ATOM     11  C   UNL     1       2.525   3.030  18.426  0.00  0.00    +0.000 A 
ATOM     12  C   UNL     1       3.067   3.393  19.655  0.00  0.00    +0.000 A 
ATOM     13  C   UNL     1       4.329   3.987  19.719  0.00  0.00    +0.000 A 
ATOM     14  C   UNL     1       5.085   4.217  18.543  0.00  0.00    +0.000 A 
ENDROOT
BRANCH   1  15
ATOM     15  N   UNL     1       6.948   5.250  19.755  0.00  0.00    +0.000 N 
ATOM     16  H   UNL     1       7.436   4.451  20.154  0.00  0.00    +0.000 HD
ATOM     17  H   UNL     1       6.267   5.629  20.402  0.00  0.00    +0.000 HD
ENDBRANCH   1  15
BRANCH  12  18
ATOM     18  N   UNL     1       2.313   3.140  20.889  0.00  0.00    +0.000 N 
ATOM     19  O   UNL     1       2.907   2.580  21.823  0.00  0.00    +0.000 OA
ATOM     20  O   UNL     1       1.131   3.509  20.929  0.00  0.00    +0.000 OA
ENDBRANCH  12  18
TORSDOF 2
ENDMDL
MODEL 7
REMARK VINA RESULT:      -7.2      3.308      6.291
REMARK  Name = 
REMARK  2 active torsions:
REMARK  status: ('A' for Active; 'I' for Inactive)
REMARK    1  A    between atoms: N_1  and  C_2
REMARK    2  A    between atoms: C_13  and  N_14
REMARK                            x       y       z     vdW  Elec       q    Type
REMARK                         _______ _______ _______ _____ _____    ______ ____
ROOT
ATOM      1  C   UNL     1       6.885   5.879  16.694  0.00  0.00    +0.000 A 
ATOM      2  N   UNL     1       7.523   5.814  15.516  0.00  0.00    +0.000 NA
ATOM      3  C   UNL     1       7.011   5.053  14.543  0.00  0.00    +0.000 A 
ATOM      4  C   UNL     1       7.696   5.013  13.336  0.00  0.00    +0.000 A 
ATOM      5  C   UNL     1       7.241   4.270  12.247  0.00  0.00    +0.000 A 
ATOM      6  C   UNL     1       6.069   3.542  12.365  0.00  0.00    +0.000 A 
ATOM      7  C   UNL     1       5.369   3.558  13.572  0.00  0.00    +0.000 A 
ATOM      8  C   UNL     1       5.822   4.309  14.689  0.00  0.00    +0.000 A 
ATOM      9  C   UNL     1       5.152   4.371  15.955  0.00  0.00    +0.000 A 
ATOM     10  C   UNL     1       3.954   3.666  16.248  0.00  0.00    +0.000 A 
ATOM     11  C   UNL     1       3.322   3.747  17.492  0.00  0.00    +0.000 A 
ATOM     12  C   UNL     1       3.878   4.548  18.485  0.00  0.00    +0.000 A 
ATOM     13  C   UNL     1       5.050   5.265  18.235  0.00  0.00    +0.000 A 
ATOM     14  C   UNL     1       5.701   5.180  16.980  0.00  0.00    +0.000 A 
ENDROOT
BRANCH   1  15
ATOM     15  N   UNL     1       7.473   6.749  17.617  0.00  0.00    +0.000 N 
ATOM     16  H   UNL     1       7.067   6.527  18.524  0.00  0.00    +0.000 HD
ATOM     17  H   UNL     1       7.328   7.721  17.375  0.00  0.00    +0.000 HD
ENDBRANCH   1  15
BRANCH  12  18
ATOM     18  N   UNL     1       3.236   4.630  19.802  0.00  0.00    +0.000 N 
ATOM     19  O   UNL     1       3.131   3.582  20.458  0.00  0.00    +0.000 OA
ATOM     20  O   UNL     1       2.845   5.741  20.186  0.00  0.00    +0.000 OA
ENDBRANCH  12  18
TORSDOF 2
ENDMDL
MODEL 8
REMARK VINA RESULT:      -7.0      4.235      6.071
REMARK  Name = 
REMARK  2 active torsions:
REMARK  status: ('A' for Active; 'I' for Inactive)
REMARK    1  A    between atoms: N_1  and  C_2
REMARK    2  A    between atoms: C_13  and  N_14
REMARK                            x       y       z     vdW  Elec       q    Type
REMARK                         _______ _______ _______ _____ _____    ______ ____
ROOT
ATOM      1  C   UNL     1       2.889   5.497  19.934  0.00  0.00    +0.000 A 
ATOM      2  N   UNL     1       3.720   4.661  19.293  0.00  0.00    +0.000 NA
ATOM      3  C   UNL     1       4.253   5.046  18.128  0.00  0.00    +0.000 A 
ATOM      4  C   UNL     1       5.111   4.157  17.494  0.00  0.00    +0.000 A 
ATOM      5  C   UNL     1       5.738   4.464  16.287  0.00  0.00    +0.000 A 
ATOM      6  C   UNL     1       5.502   5.691  15.691  0.00  0.00    +0.000 A 
ATOM      7  C   UNL     1       4.635   6.596  16.304  0.00  0.00    +0.000 A 
ATOM      8  C   UNL     1       3.988   6.297  17.533  0.00  0.00    +0.000 A 
ATOM      9  C   UNL     1       3.088   7.180  18.216  0.00  0.00    +0.000 A 
ATOM     10  C   UNL     1       2.722   8.462  17.730  0.00  0.00    +0.000 A 
ATOM     11  C   UNL     1       1.843   9.302  18.419  0.00  0.00    +0.000 A 
ATOM     12  C   UNL     1       1.304   8.876  19.629  0.00  0.00    +0.000 A 
ATOM     13  C   UNL     1       1.646   7.625  20.147  0.00  0.00    +0.000 A 
ATOM     14  C   UNL     1       2.529   6.764  19.449  0.00  0.00    +0.000 A 
ENDROOT
BRANCH   1  15
ATOM     15  N   UNL     1       2.438   5.020  21.169  0.00  0.00    +0.000 N 
ATOM     16  H   UNL     1       2.047   5.819  21.663  0.00  0.00    +0.000 HD
ATOM     17  H   UNL     1       3.177   4.580  21.704  0.00  0.00    +0.000 HD
ENDBRANCH   1  15
BRANCH  12  18
ATOM     18  N   UNL     1       0.367   9.739  20.357  0.00  0.00    +0.000 N 
ATOM     19  O   UNL     1       0.666  10.069  21.514  0.00  0.00    +0.000 OA
ATOM     20  O   UNL     1      -0.663  10.097  19.769  0.00  0.00    +0.000 OA
ENDBRANCH  12  18
TORSDOF 2
ENDMDL
MODEL 9
REMARK VINA RESULT:      -6.9      3.041      4.635
REMARK  Name = 
REMARK  2 active torsions:
REMARK  status: ('A' for Active; 'I' for Inactive)
REMARK    1  A    between atoms: N_1  and  C_2
REMARK    2  A    between atoms: C_13  and  N_14
REMARK                            x       y       z     vdW  Elec       q    Type
REMARK                         _______ _______ _______ _____ _____    ______ ____
ROOT
ATOM      1  C   UNL     1       3.548   6.710  17.799  0.00  0.00    +0.000 A 
ATOM      2  N   UNL     1       3.013   7.940  17.813  0.00  0.00    +0.000 NA
ATOM      3  C   UNL     1       2.186   8.275  18.810  0.00  0.00    +0.000 A 
ATOM      4  C   UNL     1       1.654   9.557  18.795  0.00  0.00    +0.000 A 
ATOM      5  C   UNL     1       0.799  10.019  19.796  0.00  0.00    +0.000 A 
ATOM      6  C   UNL     1       0.461   9.176  20.842  0.00  0.00    +0.000 A 
ATOM      7  C   UNL     1       0.975   7.879  20.872  0.00  0.00    +0.000 A 
ATOM      8  C   UNL     1       1.846   7.396  19.859  0.00  0.00    +0.000 A 
ATOM      9  C   UNL     1       2.409   6.078  19.830  0.00  0.00    +0.000 A 
ATOM     10  C   UNL     1       2.145   5.086  20.812  0.00  0.00    +0.000 A 
ATOM     11  C   UNL     1       2.711   3.809  20.758  0.00  0.00    +0.000 A 
ATOM     12  C   UNL     1       3.568   3.490  19.709  0.00  0.00    +0.000 A 
ATOM     13  C   UNL     1       3.861   4.439  18.728  0.00  0.00    +0.000 A 
ATOM     14  C   UNL     1       3.284   5.732  18.771  0.00  0.00    +0.000 A 
ENDROOT
BRANCH   1  15
ATOM     15  N   UNL     1       4.442   6.488  16.748  0.00  0.00    +0.000 N 
ATOM     16  H   UNL     1       4.133   5.639  16.278  0.00  0.00    +0.000 HD
ATOM     17  H   UNL     1       5.399   6.405  17.068  0.00  0.00    +0.000 HD
ENDBRANCH   1  15
BRANCH  12  18
ATOM     18  N   UNL     1       4.157   2.148  19.629  0.00  0.00    +0.000 N 
ATOM     19  O   UNL     1       5.027   1.850  20.461  0.00  0.00    +0.000 OA
ATOM     20  O   UNL     1       3.742   1.388  18.743  0.00  0.00    +0.000 OA
ENDBRANCH  12  18
TORSDOF 2
ENDMDL
