MODEL 1
REMARK VINA RESULT:      -7.2      0.000      0.000
REMARK  Name = 
REMARK  14 active torsions:
REMARK  status: ('A' for Active; 'I' for Inactive)
REMARK    1  A    between atoms: O_1  and  C_2
REMARK    2  A    between atoms: C_2  and  C_3
REMARK    3  A    between atoms: C_4  and  O_5
REMARK    4  A    between atoms: C_6  and  O_7
REMARK    5  A    between atoms: C_8  and  O_9
REMARK    6  A    between atoms: N_11  and  C_12
REMARK    7  A    between atoms: C_12  and  C_13
REMARK    8  A    between atoms: C_13  and  C_14
REMARK    9  A    between atoms: C_14  and  C_15
REMARK   10  A    between atoms: C_15  and  C_16
REMARK   11  A    between atoms: C_16  and  O_17
REMARK   12  A    between atoms: O_17  and  C_18
REMARK   13  A    between atoms: C_18  and  C_19
REMARK   14  A    between atoms: C_22  and  C_23
REMARK                            x       y       z     vdW  Elec       q    Type
REMARK                         _______ _______ _______ _____ _____    ______ ____
ROOT
ATOM      1  C   UNL     1       2.569   3.345  18.174  0.00  0.00    +0.000 C 
ENDROOT
BRANCH   1   2
ATOM      2  C   UNL     1       4.078   3.264  18.376  0.00  0.00    +0.000 C 
BRANCH   2   8
ATOM      3  C   UNL     1       6.098   4.600  17.957  0.00  0.00    +0.000 C 
ATOM      4  C   UNL     1       6.882   5.454  16.924  0.00  0.00    +0.000 C 
ATOM      5  C   UNL     1       7.020   4.729  15.574  0.00  0.00    +0.000 C 
ATOM      6  C   UNL     1       5.650   4.292  15.062  0.00  0.00    +0.000 C 
ATOM      7  C   UNL     1       4.983   3.411  16.119  0.00  0.00    +0.000 C 
ATOM      8  N   UNL     1       4.805   4.102  17.406  0.00  0.00    +0.000 NA
BRANCH   4   9
ATOM      9  O   UNL     1       8.186   5.752  17.457  0.00  0.00    +0.000 OA
ATOM     10  H   UNL     1       8.123   6.569  17.982  0.00  0.00    +0.000 HD
ENDBRANCH   4   9
BRANCH   5  11
ATOM     11  O   UNL     1       7.687   5.568  14.622  0.00  0.00    +0.000 OA
ATOM     12  H   UNL     1       7.234   5.454  13.765  0.00  0.00    +0.000 HD
ENDBRANCH   5  11
BRANCH   6  13
ATOM     13  O   UNL     1       5.755   3.571  13.829  0.00  0.00    +0.000 OA
ATOM     14  H   UNL     1       6.051   4.186  13.137  0.00  0.00    +0.000 HD
ENDBRANCH   6  13
BRANCH   3  15
ATOM     15  C   UNL     1       5.931   5.438  19.259  0.00  0.00    +0.000 C 
BRANCH  15  16
ATOM     16  O   UNL     1       7.127   5.427  20.037  0.00  0.00    +0.000 OA
ATOM     17  H   UNL     1       7.812   5.874  19.516  0.00  0.00    +0.000 HD
ENDBRANCH  15  16
ENDBRANCH   3  15
ENDBRANCH   2   8
ENDBRANCH   1   2
BRANCH   1  18
ATOM     18  C   UNL     1       2.087   4.776  17.976  0.00  0.00    +0.000 C 
BRANCH  18  19
ATOM     19  C   UNL     1       2.258   5.572  19.273  0.00  0.00    +0.000 C 
BRANCH  19  20
ATOM     20  C   UNL     1       2.723   7.014  19.034  0.00  0.00    +0.000 C 
BRANCH  20  21
ATOM     21  O   UNL     1       1.740   7.969  19.429  0.00  0.00    +0.000 OA
BRANCH  21  22
ATOM     22  C   UNL     1       1.375   7.822  20.798  0.00  0.00    +0.000 C 
BRANCH  22  23
ATOM     23  C   UNL     1       0.604   9.004  21.321  0.00  0.00    +0.000 A 
ATOM     24  C   UNL     1       0.213  10.071  20.512  0.00  0.00    +0.000 A 
ATOM     25  C   UNL     1      -0.514  11.134  21.066  0.00  0.00    +0.000 A 
ATOM     26  C   UNL     1      -0.891  11.142  22.421  0.00  0.00    +0.000 A 
ATOM     27  C   UNL     1      -0.504  10.046  23.210  0.00  0.00    +0.000 A 
ATOM     28  C   UNL     1       0.238   8.995  22.666  0.00  0.00    +0.000 A 
BRANCH  26  29
ATOM     29  C   UNL     1      -1.665  12.252  22.998  0.00  0.00    +0.000 A 
ATOM     30  C   UNL     1      -3.006  12.109  23.378  0.00  0.00    +0.000 A 
ATOM     31  C   UNL     1      -3.707  13.184  23.920  0.00  0.00    +0.000 A 
ATOM     32  C   UNL     1      -3.044  14.387  24.080  0.00  0.00    +0.000 A 
ATOM     33  N   UNL     1      -1.758  14.580  23.738  0.00  0.00    +0.000 NA
ATOM     34  C   UNL     1      -1.108  13.518  23.203  0.00  0.00    +0.000 A 
ENDBRANCH  26  29
ENDBRANCH  22  23
ENDBRANCH  21  22
ENDBRANCH  20  21
ENDBRANCH  19  20
ENDBRANCH  18  19
ENDBRANCH   1  18
TORSDOF 14
ENDMDL
MODEL 2
REMARK VINA RESULT:      -6.9      3.852     10.387
REMARK  Name = 
REMARK  14 active torsions:
REMARK  status: ('A' for Active; 'I' for Inactive)
REMARK    1  A    between atoms: O_1  and  C_2
REMARK    2  A    between atoms: C_2  and  C_3
REMARK    3  A    between atoms: C_4  and  O_5
REMARK    4  A    between atoms: C_6  and  O_7
REMARK    5  A    between atoms: C_8  and  O_9
REMARK    6  A    between atoms: N_11  and  C_12
REMARK    7  A    between atoms: C_12  and  C_13
REMARK    8  A    between atoms: C_13  and  C_14
REMARK    9  A    between atoms: C_14  and  C_15
REMARK   10  A    between atoms: C_15  and  C_16
REMARK   11  A    between atoms: C_16  and  O_17
REMARK   12  A    between atoms: O_17  and  C_18
REMARK   13  A    between atoms: C_18  and  C_19
REMARK   14  A    between atoms: C_22  and  C_23
REMARK                            x       y       z     vdW  Elec       q    Type
REMARK                         _______ _______ _______ _____ _____    ______ ____
ROOT
ATOM      1  C   UNL     1       1.802   8.739  18.442  0.00  0.00    +0.000 C 
ENDROOT
BRANCH   1   2
ATOM      2  C   UNL     1       1.313   9.578  19.618  0.00  0.00    +0.000 C 
BRANCH   2   8
ATOM      3  C   UNL     1       0.102  11.685  19.247  0.00  0.00    +0.000 C 
ATOM      4  C   UNL     1      -1.268  12.337  18.919  0.00  0.00    +0.000 C 
ATOM      5  C   UNL     1      -1.935  11.681  17.698  0.00  0.00    +0.000 C 
ATOM      6  C   UNL     1      -2.031  10.169  17.894  0.00  0.00    +0.000 C 
ATOM      7  C   UNL     1      -0.631   9.611  18.150  0.00  0.00    +0.000 C 
ATOM      8  N   UNL     1       0.006  10.199  19.340  0.00  0.00    +0.000 NA
BRANCH   4   9
ATOM      9  O   UNL     1      -1.070  13.742  18.672  0.00  0.00    +0.000 OA
ATOM     10  H   UNL     1      -1.875  14.096  18.255  0.00  0.00    +0.000 HD
ENDBRANCH   4   9
BRANCH   5  11
ATOM     11  O   UNL     1      -3.226  12.257  17.462  0.00  0.00    +0.000 OA
ATOM     12  H   UNL     1      -3.104  13.221  17.371  0.00  0.00    +0.000 HD
ENDBRANCH   5  11
BRANCH   6  13
ATOM     13  O   UNL     1      -2.605   9.527  16.749  0.00  0.00    +0.000 OA
ATOM     14  H   UNL     1      -2.180   8.660  16.637  0.00  0.00    +0.000 HD
ENDBRANCH   6  13
BRANCH   3  15
ATOM     15  C   UNL     1       0.665  12.348  20.538  0.00  0.00    +0.000 C 
BRANCH  15  16
ATOM     16  O   UNL     1      -0.364  12.547  21.506  0.00  0.00    +0.000 OA
ATOM     17  H   UNL     1      -0.505  11.697  21.953  0.00  0.00    +0.000 HD
ENDBRANCH  15  16
ENDBRANCH   3  15
ENDBRANCH   2   8
ENDBRANCH   1   2
BRANCH   1  18
ATOM     18  C   UNL     1       2.408   7.415  18.888  0.00  0.00    +0.000 C 
BRANCH  18  19
ATOM     19  C   UNL     1       2.057   7.145  20.354  0.00  0.00    +0.000 C 
BRANCH  19  20
ATOM     20  C   UNL     1       1.499   5.736  20.586  0.00  0.00    +0.000 C 
BRANCH  20  21
ATOM     21  O   UNL     1       2.447   4.878  21.218  0.00  0.00    +0.000 OA
BRANCH  21  22
ATOM     22  C   UNL     1       2.657   3.679  20.477  0.00  0.00    +0.000 C 
BRANCH  22  23
ATOM     23  C   UNL     1       3.528   3.891  19.269  0.00  0.00    +0.000 A 
ATOM     24  C   UNL     1       4.914   4.025  19.349  0.00  0.00    +0.000 A 
ATOM     25  C   UNL     1       5.665   4.209  18.180  0.00  0.00    +0.000 A 
ATOM     26  C   UNL     1       5.058   4.232  16.911  0.00  0.00    +0.000 A 
ATOM     27  C   UNL     1       3.663   4.075  16.855  0.00  0.00    +0.000 A 
ATOM     28  C   UNL     1       2.910   3.912  18.020  0.00  0.00    +0.000 A 
BRANCH  26  29
ATOM     29  C   UNL     1       5.847   4.413  15.683  0.00  0.00    +0.000 A 
ATOM     30  C   UNL     1       5.518   3.770  14.483  0.00  0.00    +0.000 A 
ATOM     31  C   UNL     1       6.291   3.964  13.340  0.00  0.00    +0.000 A 
ATOM     32  C   UNL     1       7.381   4.812  13.420  0.00  0.00    +0.000 A 
ATOM     33  N   UNL     1       7.741   5.458  14.543  0.00  0.00    +0.000 NA
ATOM     34  C   UNL     1       6.975   5.239  15.640  0.00  0.00    +0.000 A 
ENDBRANCH  26  29
ENDBRANCH  22  23
ENDBRANCH  21  22
ENDBRANCH  20  21
ENDBRANCH  19  20
ENDBRANCH  18  19
ENDBRANCH   1  18
TORSDOF 14
ENDMDL
MODEL 3
REMARK VINA RESULT:      -6.7      4.716     11.326
REMARK  Name = 
REMARK  14 active torsions:
REMARK  status: ('A' for Active; 'I' for Inactive)
REMARK    1  A    between atoms: O_1  and  C_2
REMARK    2  A    between atoms: C_2  and  C_3
REMARK    3  A    between atoms: C_4  and  O_5
REMARK    4  A    between atoms: C_6  and  O_7
REMARK    5  A    between atoms: C_8  and  O_9
REMARK    6  A    between atoms: N_11  and  C_12
REMARK    7  A    between atoms: C_12  and  C_13
REMARK    8  A    between atoms: C_13  and  C_14
REMARK    9  A    between atoms: C_14  and  C_15
REMARK   10  A    between atoms: C_15  and  C_16
REMARK   11  A    between atoms: C_16  and  O_17
REMARK   12  A    between atoms: O_17  and  C_18
REMARK   13  A    between atoms: C_18  and  C_19
REMARK   14  A    between atoms: C_22  and  C_23
REMARK                            x       y       z     vdW  Elec       q    Type
REMARK                         _______ _______ _______ _____ _____    ______ ____
ROOT
ATOM      1  C   UNL     1      -3.729  10.195  17.821  0.00  0.00    +0.000 C 
ENDROOT
BRANCH   1   2
ATOM      2  C   UNL     1      -4.297  11.576  17.511  0.00  0.00    +0.000 C 
BRANCH   2   8
ATOM      3  C   UNL     1      -5.856  11.250  19.383  0.00  0.00    +0.000 C 
ATOM      4  C   UNL     1      -6.488  11.882  20.652  0.00  0.00    +0.000 C 
ATOM      5  C   UNL     1      -5.420  12.484  21.581  0.00  0.00    +0.000 C 
ATOM      6  C   UNL     1      -4.536  13.463  20.811  0.00  0.00    +0.000 C 
ATOM      7  C   UNL     1      -3.913  12.736  19.618  0.00  0.00    +0.000 C 
ATOM      8  N   UNL     1      -4.921  12.189  18.697  0.00  0.00    +0.000 NA
BRANCH   4   9
ATOM      9  O   UNL     1      -7.235  10.871  21.355  0.00  0.00    +0.000 OA
ATOM     10  H   UNL     1      -6.626  10.398  21.949  0.00  0.00    +0.000 HD
ENDBRANCH   4   9
BRANCH   5  11
ATOM     11  O   UNL     1      -6.038  13.120  22.708  0.00  0.00    +0.000 OA
ATOM     12  H   UNL     1      -6.606  12.456  23.143  0.00  0.00    +0.000 HD
ENDBRANCH   5  11
BRANCH   6  13
ATOM     13  O   UNL     1      -3.502  14.002  21.642  0.00  0.00    +0.000 OA
ATOM     14  H   UNL     1      -3.394  14.944  21.429  0.00  0.00    +0.000 HD
ENDBRANCH   6  13
BRANCH   3  15
ATOM     15  C   UNL     1      -7.005  10.743  18.463  0.00  0.00    +0.000 C 
BRANCH  15  16
ATOM     16  O   UNL     1      -7.463   9.455  18.871  0.00  0.00    +0.000 OA
ATOM     17  H   UNL     1      -7.846   9.554  19.757  0.00  0.00    +0.000 HD
ENDBRANCH  15  16
ENDBRANCH   3  15
ENDBRANCH   2   8
ENDBRANCH   1   2
BRANCH   1  18
ATOM     18  C   UNL     1      -2.250  10.086  17.479  0.00  0.00    +0.000 C 
BRANCH  18  19
ATOM     19  C   UNL     1      -1.404  10.286  18.740  0.00  0.00    +0.000 C 
BRANCH  19  20
ATOM     20  C   UNL     1      -0.393  11.431  18.609  0.00  0.00    +0.000 C 
BRANCH  20  21
ATOM     21  O   UNL     1       0.906  11.058  19.067  0.00  0.00    +0.000 OA
BRANCH  21  22
ATOM     22  C   UNL     1       1.569  10.197  18.146  0.00  0.00    +0.000 C 
BRANCH  22  23
ATOM     23  C   UNL     1       1.848   8.837  18.724  0.00  0.00    +0.000 A 
ATOM     24  C   UNL     1       1.486   8.476  20.022  0.00  0.00    +0.000 A 
ATOM     25  C   UNL     1       1.768   7.185  20.491  0.00  0.00    +0.000 A 
ATOM     26  C   UNL     1       2.386   6.223  19.672  0.00  0.00    +0.000 A 
ATOM     27  C   UNL     1       2.723   6.604  18.362  0.00  0.00    +0.000 A 
ATOM     28  C   UNL     1       2.462   7.895  17.899  0.00  0.00    +0.000 A 
BRANCH  26  29
ATOM     29  C   UNL     1       2.671   4.865  20.160  0.00  0.00    +0.000 A 
ATOM     30  C   UNL     1       3.529   3.992  19.478  0.00  0.00    +0.000 A 
ATOM     31  C   UNL     1       3.773   2.712  19.970  0.00  0.00    +0.000 A 
ATOM     32  C   UNL     1       3.157   2.332  21.149  0.00  0.00    +0.000 A 
ATOM     33  N   UNL     1       2.330   3.130  21.848  0.00  0.00    +0.000 NA
ATOM     34  C   UNL     1       2.103   4.364  21.336  0.00  0.00    +0.000 A 
ENDBRANCH  26  29
ENDBRANCH  22  23
ENDBRANCH  21  22
ENDBRANCH  20  21
ENDBRANCH  19  20
ENDBRANCH  18  19
ENDBRANCH   1  18
TORSDOF 14
ENDMDL
MODEL 4
REMARK VINA RESULT:      -6.7      6.993      9.358
REMARK  Name = 
REMARK  14 active torsions:
REMARK  status: ('A' for Active; 'I' for Inactive)
REMARK    1  A    between atoms: O_1  and  C_2
REMARK    2  A    between atoms: C_2  and  C_3
REMARK    3  A    between atoms: C_4  and  O_5
REMARK    4  A    between atoms: C_6  and  O_7
REMARK    5  A    between atoms: C_8  and  O_9
REMARK    6  A    between atoms: N_11  and  C_12
REMARK    7  A    between atoms: C_12  and  C_13
REMARK    8  A    between atoms: C_13  and  C_14
REMARK    9  A    between atoms: C_14  and  C_15
REMARK   10  A    between atoms: C_15  and  C_16
REMARK   11  A    between atoms: C_16  and  O_17
REMARK   12  A    between atoms: O_17  and  C_18
REMARK   13  A    between atoms: C_18  and  C_19
REMARK   14  A    between atoms: C_22  and  C_23
REMARK                            x       y       z     vdW  Elec       q    Type
REMARK                         _______ _______ _______ _____ _____    ______ ____
ROOT
ATOM      1  C   UNL     1       6.187   5.006  17.055  0.00  0.00    +0.000 C 
ENDROOT
BRANCH   1   2
ATOM      2  C   UNL     1       5.775   5.087  18.521  0.00  0.00    +0.000 C 
BRANCH   2   8
ATOM      3  C   UNL     1       3.361   4.795  18.162  0.00  0.00    +0.000 C 
ATOM      4  C   UNL     1       2.123   3.897  18.429  0.00  0.00    +0.000 C 
ATOM      5  C   UNL     1       2.403   2.424  18.089  0.00  0.00    +0.000 C 
ATOM      6  C   UNL     1       3.654   1.938  18.818  0.00  0.00    +0.000 C 
ATOM      7  C   UNL     1       4.828   2.844  18.446  0.00  0.00    +0.000 C 
ATOM      8  N   UNL     1       4.594   4.253  18.803  0.00  0.00    +0.000 NA
BRANCH   4   9
ATOM      9  O   UNL     1       1.016   4.380  17.644  0.00  0.00    +0.000 OA
ATOM     10  H   UNL     1       1.091   4.006  16.748  0.00  0.00    +0.000 HD
ENDBRANCH   4   9
BRANCH   5  11
ATOM     11  O   UNL     1       1.266   1.611  18.410  0.00  0.00    +0.000 OA
ATOM     12  H   UNL     1       1.449   1.177  19.265  0.00  0.00    +0.000 HD
ENDBRANCH   5  11
BRANCH   6  13
ATOM     13  O   UNL     1       3.965   0.581  18.479  0.00  0.00    +0.000 OA
ATOM     14  H   UNL     1       3.163   0.159  18.129  0.00  0.00    +0.000 HD
ENDBRANCH   6  13
BRANCH   3  15
ATOM     15  C   UNL     1       3.020   6.246  18.611  0.00  0.00    +0.000 C 
BRANCH  15  16
ATOM     16  O   UNL     1       2.232   6.919  17.631  0.00  0.00    +0.000 OA
ATOM     17  H   UNL     1       1.378   6.461  17.586  0.00  0.00    +0.000 HD
ENDBRANCH  15  16
ENDBRANCH   3  15
ENDBRANCH   2   8
ENDBRANCH   1   2
BRANCH   1  18
ATOM     18  C   UNL     1       7.294   5.993  16.710  0.00  0.00    +0.000 C 
BRANCH  18  19
ATOM     19  C   UNL     1       6.973   7.369  17.299  0.00  0.00    +0.000 C 
BRANCH  19  20
ATOM     20  C   UNL     1       8.050   7.872  18.268  0.00  0.00    +0.000 C 
BRANCH  20  21
ATOM     21  O   UNL     1       8.319   9.263  18.101  0.00  0.00    +0.000 OA
BRANCH  21  22
ATOM     22  C   UNL     1       9.262   9.741  19.055  0.00  0.00    +0.000 C 
BRANCH  22  23
ATOM     23  C   UNL     1       9.665  11.169  18.805  0.00  0.00    +0.000 A 
ATOM     24  C   UNL     1      10.912  11.679  19.168  0.00  0.00    +0.000 A 
ATOM     25  C   UNL     1      11.223  13.017  18.894  0.00  0.00    +0.000 A 
ATOM     26  C   UNL     1      10.318  13.863  18.228  0.00  0.00    +0.000 A 
ATOM     27  C   UNL     1       9.077  13.321  17.854  0.00  0.00    +0.000 A 
ATOM     28  C   UNL     1       8.755  11.993  18.144  0.00  0.00    +0.000 A 
BRANCH  26  29
ATOM     29  C   UNL     1      10.650  15.264  17.930  0.00  0.00    +0.000 A 
ATOM     30  C   UNL     1       9.681  16.276  17.922  0.00  0.00    +0.000 A 
ATOM     31  C   UNL     1      10.033  17.592  17.632  0.00  0.00    +0.000 A 
ATOM     32  C   UNL     1      11.360  17.873  17.364  0.00  0.00    +0.000 A 
ATOM     33  N   UNL     1      12.333  16.944  17.362  0.00  0.00    +0.000 NA
ATOM     34  C   UNL     1      11.955  15.672  17.635  0.00  0.00    +0.000 A 
ENDBRANCH  26  29
ENDBRANCH  22  23
ENDBRANCH  21  22
ENDBRANCH  20  21
ENDBRANCH  19  20
ENDBRANCH  18  19
ENDBRANCH   1  18
TORSDOF 14
ENDMDL
MODEL 5
REMARK VINA RESULT:      -6.7      6.042     10.499
REMARK  Name = 
REMARK  14 active torsions:
REMARK  status: ('A' for Active; 'I' for Inactive)
REMARK    1  A    between atoms: O_1  and  C_2
REMARK    2  A    between atoms: C_2  and  C_3
REMARK    3  A    between atoms: C_4  and  O_5
REMARK    4  A    between atoms: C_6  and  O_7
REMARK    5  A    between atoms: C_8  and  O_9
REMARK    6  A    between atoms: N_11  and  C_12
REMARK    7  A    between atoms: C_12  and  C_13
REMARK    8  A    between atoms: C_13  and  C_14
REMARK    9  A    between atoms: C_14  and  C_15
REMARK   10  A    between atoms: C_15  and  C_16
REMARK   11  A    between atoms: C_16  and  O_17
REMARK   12  A    between atoms: O_17  and  C_18
REMARK   13  A    between atoms: C_18  and  C_19
REMARK   14  A    between atoms: C_22  and  C_23
REMARK                            x       y       z     vdW  Elec       q    Type
REMARK                         _______ _______ _______ _____ _____    ______ ____
ROOT
ATOM      1  C   UNL     1       9.284  11.282  20.635  0.00  0.00    +0.000 C 
ENDROOT
BRANCH   1   2
ATOM      2  C   UNL     1       9.729  12.243  21.732  0.00  0.00    +0.000 C 
BRANCH   2   8
ATOM      3  C   UNL     1       7.915  13.891  21.545  0.00  0.00    +0.000 C 
ATOM      4  C   UNL     1       6.683  14.528  22.242  0.00  0.00    +0.000 C 
ATOM      5  C   UNL     1       5.723  13.460  22.793  0.00  0.00    +0.000 C 
ATOM      6  C   UNL     1       6.475  12.485  23.696  0.00  0.00    +0.000 C 
ATOM      7  C   UNL     1       7.629  11.866  22.907  0.00  0.00    +0.000 C 
ATOM      8  N   UNL     1       8.580  12.871  22.408  0.00  0.00    +0.000 NA
BRANCH   4   9
ATOM      9  O   UNL     1       5.993  15.367  21.297  0.00  0.00    +0.000 OA
ATOM     10  H   UNL     1       5.637  16.137  21.774  0.00  0.00    +0.000 HD
ENDBRANCH   4   9
BRANCH   5  11
ATOM     11  O   UNL     1       4.633  14.077  23.489  0.00  0.00    +0.000 OA
ATOM     12  H   UNL     1       4.238  13.402  24.072  0.00  0.00    +0.000 HD
ENDBRANCH   5  11
BRANCH   6  13
ATOM     13  O   UNL     1       5.613  11.450  24.183  0.00  0.00    +0.000 OA
ATOM     14  H   UNL     1       4.814  11.862  24.552  0.00  0.00    +0.000 HD
ENDBRANCH   6  13
BRANCH   3  15
ATOM     15  C   UNL     1       8.871  15.035  21.096  0.00  0.00    +0.000 C 
BRANCH  15  16
ATOM     16  O   UNL     1       8.779  16.158  21.970  0.00  0.00    +0.000 OA
ATOM     17  H   UNL     1       7.855  16.221  22.261  0.00  0.00    +0.000 HD
ENDBRANCH  15  16
ENDBRANCH   3  15
ENDBRANCH   2   8
ENDBRANCH   1   2
BRANCH   1  18
ATOM     18  C   UNL     1       9.871  11.642  19.277  0.00  0.00    +0.000 C 
BRANCH  18  19
ATOM     19  C   UNL     1       9.154  10.861  18.172  0.00  0.00    +0.000 C 
BRANCH  19  20
ATOM     20  C   UNL     1       8.680   9.476  18.629  0.00  0.00    +0.000 C 
BRANCH  20  21
ATOM     21  O   UNL     1       7.676   8.940  17.770  0.00  0.00    +0.000 OA
BRANCH  21  22
ATOM     22  C   UNL     1       7.969   7.602  17.378  0.00  0.00    +0.000 C 
BRANCH  22  23
ATOM     23  C   UNL     1       6.827   6.659  17.638  0.00  0.00    +0.000 A 
ATOM     24  C   UNL     1       6.909   5.600  18.543  0.00  0.00    +0.000 A 
ATOM     25  C   UNL     1       5.800   4.767  18.743  0.00  0.00    +0.000 A 
ATOM     26  C   UNL     1       4.582   4.988  18.075  0.00  0.00    +0.000 A 
ATOM     27  C   UNL     1       4.517   6.073  17.184  0.00  0.00    +0.000 A 
ATOM     28  C   UNL     1       5.627   6.892  16.967  0.00  0.00    +0.000 A 
BRANCH  26  29
ATOM     29  C   UNL     1       3.415   4.120  18.295  0.00  0.00    +0.000 A 
ATOM     30  C   UNL     1       3.463   3.006  19.143  0.00  0.00    +0.000 A 
ATOM     31  C   UNL     1       2.337   2.206  19.325  0.00  0.00    +0.000 A 
ATOM     32  C   UNL     1       1.175   2.546  18.657  0.00  0.00    +0.000 A 
ATOM     33  N   UNL     1       1.070   3.605  17.835  0.00  0.00    +0.000 NA
ATOM     34  C   UNL     1       2.186   4.356  17.670  0.00  0.00    +0.000 A 
ENDBRANCH  26  29
ENDBRANCH  22  23
ENDBRANCH  21  22
ENDBRANCH  20  21
ENDBRANCH  19  20
ENDBRANCH  18  19
ENDBRANCH   1  18
TORSDOF 14
ENDMDL
MODEL 6
REMARK VINA RESULT:      -6.7      1.425      2.786
REMARK  Name = 
REMARK  14 active torsions:
REMARK  status: ('A' for Active; 'I' for Inactive)
REMARK    1  A    between atoms: O_1  and  C_2
REMARK    2  A    between atoms: C_2  and  C_3
REMARK    3  A    between atoms: C_4  and  O_5
REMARK    4  A    between atoms: C_6  and  O_7
REMARK    5  A    between atoms: C_8  and  O_9
REMARK    6  A    between atoms: N_11  and  C_12
REMARK    7  A    between atoms: C_12  and  C_13
REMARK    8  A    between atoms: C_13  and  C_14
REMARK    9  A    between atoms: C_14  and  C_15
REMARK   10  A    between atoms: C_15  and  C_16
REMARK   11  A    between atoms: C_16  and  O_17
REMARK   12  A    between atoms: O_17  and  C_18
REMARK   13  A    between atoms: C_18  and  C_19
REMARK   14  A    between atoms: C_22  and  C_23
REMARK                            x       y       z     vdW  Elec       q    Type
REMARK                         _______ _______ _______ _____ _____    ______ ____
ROOT
ATOM      1  C   UNL     1       3.221   4.398  17.719  0.00  0.00    +0.000 C 
ENDROOT
BRANCH   1   2
ATOM      2  C   UNL     1       4.465   3.543  17.510  0.00  0.00    +0.000 C 
BRANCH   2   8
ATOM      3  C   UNL     1       5.625   5.645  16.984  0.00  0.00    +0.000 C 
ATOM      4  C   UNL     1       6.913   6.487  17.190  0.00  0.00    +0.000 C 
ATOM      5  C   UNL     1       7.297   6.588  18.676  0.00  0.00    +0.000 C 
ATOM      6  C   UNL     1       7.395   5.195  19.296  0.00  0.00    +0.000 C 
ATOM      7  C   UNL     1       6.064   4.469  19.096  0.00  0.00    +0.000 C 
ATOM      8  N   UNL     1       5.702   4.326  17.677  0.00  0.00    +0.000 NA
BRANCH   4   9
ATOM      9  O   UNL     1       6.703   7.804  16.647  0.00  0.00    +0.000 OA
ATOM     10  H   UNL     1       5.843   8.132  16.966  0.00  0.00    +0.000 HD
ENDBRANCH   4   9
BRANCH   5  11
ATOM     11  O   UNL     1       8.525   7.311  18.828  0.00  0.00    +0.000 OA
ATOM     12  H   UNL     1       8.411   7.929  19.574  0.00  0.00    +0.000 HD
ENDBRANCH   5  11
BRANCH   6  13
ATOM     13  O   UNL     1       7.703   5.263  20.693  0.00  0.00    +0.000 OA
ATOM     14  H   UNL     1       6.870   5.256  21.194  0.00  0.00    +0.000 HD
ENDBRANCH   6  13
BRANCH   3  15
ATOM     15  C   UNL     1       5.358   5.523  15.455  0.00  0.00    +0.000 C 
BRANCH  15  16
ATOM     16  O   UNL     1       6.541   5.782  14.702  0.00  0.00    +0.000 OA
ATOM     17  H   UNL     1       6.420   6.639  14.264  0.00  0.00    +0.000 HD
ENDBRANCH  15  16
ENDBRANCH   3  15
ENDBRANCH   2   8
ENDBRANCH   1   2
BRANCH   1  18
ATOM     18  C   UNL     1       2.008   3.568  18.119  0.00  0.00    +0.000 C 
BRANCH  18  19
ATOM     19  C   UNL     1       1.584   3.914  19.549  0.00  0.00    +0.000 C 
BRANCH  19  20
ATOM     20  C   UNL     1       2.439   5.023  20.175  0.00  0.00    +0.000 C 
BRANCH  20  21
ATOM     21  O   UNL     1       1.658   6.155  20.555  0.00  0.00    +0.000 OA
BRANCH  21  22
ATOM     22  C   UNL     1       2.068   7.336  19.872  0.00  0.00    +0.000 C 
BRANCH  22  23
ATOM     23  C   UNL     1       1.276   8.547  20.284  0.00  0.00    +0.000 A 
ATOM     24  C   UNL     1       0.894   9.544  19.386  0.00  0.00    +0.000 A 
ATOM     25  C   UNL     1       0.146  10.640  19.839  0.00  0.00    +0.000 A 
ATOM     26  C   UNL     1      -0.261  10.750  21.181  0.00  0.00    +0.000 A 
ATOM     27  C   UNL     1       0.119   9.723  22.062  0.00  0.00    +0.000 A 
ATOM     28  C   UNL     1       0.881   8.641  21.618  0.00  0.00    +0.000 A 
BRANCH  26  29
ATOM     29  C   UNL     1      -1.056  11.894  21.653  0.00  0.00    +0.000 A 
ATOM     30  C   UNL     1      -1.259  12.150  23.015  0.00  0.00    +0.000 A 
ATOM     31  C   UNL     1      -2.020  13.242  23.425  0.00  0.00    +0.000 A 
ATOM     32  C   UNL     1      -2.558  14.069  22.455  0.00  0.00    +0.000 A 
ATOM     33  N   UNL     1      -2.392  13.875  21.134  0.00  0.00    +0.000 NA
ATOM     34  C   UNL     1      -1.656  12.796  20.769  0.00  0.00    +0.000 A 
ENDBRANCH  26  29
ENDBRANCH  22  23
ENDBRANCH  21  22
ENDBRANCH  20  21
ENDBRANCH  19  20
ENDBRANCH  18  19
ENDBRANCH   1  18
TORSDOF 14
ENDMDL
MODEL 7
REMARK VINA RESULT:      -6.6      6.420      8.697
REMARK  Name = 
REMARK  14 active torsions:
REMARK  status: ('A' for Active; 'I' for Inactive)
REMARK    1  A    between atoms: O_1  and  C_2
REMARK    2  A    between atoms: C_2  and  C_3
REMARK    3  A    between atoms: C_4  and  O_5
REMARK    4  A    between atoms: C_6  and  O_7
REMARK    5  A    between atoms: C_8  and  O_9
REMARK    6  A    between atoms: N_11  and  C_12
REMARK    7  A    between atoms: C_12  and  C_13
REMARK    8  A    between atoms: C_13  and  C_14
REMARK    9  A    between atoms: C_14  and  C_15
REMARK   10  A    between atoms: C_15  and  C_16
REMARK   11  A    between atoms: C_16  and  O_17
REMARK   12  A    between atoms: O_17  and  C_18
REMARK   13  A    between atoms: C_18  and  C_19
REMARK   14  A    between atoms: C_22  and  C_23
REMARK                            x       y       z     vdW  Elec       q    Type
REMARK                         _______ _______ _______ _____ _____    ______ ____
ROOT
ATOM      1  C   UNL     1       6.231   5.091  16.868  0.00  0.00    +0.000 C 
ENDROOT
BRANCH   1   2
ATOM      2  C   UNL     1       5.204   4.104  17.412  0.00  0.00    +0.000 C 
BRANCH   2   8
ATOM      3  C   UNL     1       3.822   4.474  19.411  0.00  0.00    +0.000 C 
ATOM      4  C   UNL     1       2.601   5.227  20.006  0.00  0.00    +0.000 C 
ATOM      5  C   UNL     1       2.658   6.734  19.705  0.00  0.00    +0.000 C 
ATOM      6  C   UNL     1       2.825   6.971  18.206  0.00  0.00    +0.000 C 
ATOM      7  C   UNL     1       4.080   6.243  17.725  0.00  0.00    +0.000 C 
ATOM      8  N   UNL     1       4.025   4.793  17.968  0.00  0.00    +0.000 NA
BRANCH   4   9
ATOM      9  O   UNL     1       2.568   5.012  21.430  0.00  0.00    +0.000 OA
ATOM     10  H   UNL     1       1.853   4.381  21.628  0.00  0.00    +0.000 HD
ENDBRANCH   4   9
BRANCH   5  11
ATOM     11  O   UNL     1       1.486   7.390  20.207  0.00  0.00    +0.000 OA
ATOM     12  H   UNL     1       0.926   6.708  20.624  0.00  0.00    +0.000 HD
ENDBRANCH   5  11
BRANCH   6  13
ATOM     13  O   UNL     1       2.930   8.367  17.903  0.00  0.00    +0.000 OA
ATOM     14  H   UNL     1       3.134   8.846  18.724  0.00  0.00    +0.000 HD
ENDBRANCH   6  13
BRANCH   3  15
ATOM     15  C   UNL     1       3.642   2.952  19.686  0.00  0.00    +0.000 C 
BRANCH  15  16
ATOM     16  O   UNL     1       2.262   2.599  19.752  0.00  0.00    +0.000 OA
ATOM     17  H   UNL     1       1.835   3.222  20.362  0.00  0.00    +0.000 HD
ENDBRANCH  15  16
ENDBRANCH   3  15
ENDBRANCH   2   8
ENDBRANCH   1   2
BRANCH   1  18
ATOM     18  C   UNL     1       7.490   5.147  17.722  0.00  0.00    +0.000 C 
BRANCH  18  19
ATOM     19  C   UNL     1       7.665   6.551  18.307  0.00  0.00    +0.000 C 
BRANCH  19  20
ATOM     20  C   UNL     1       7.506   7.660  17.260  0.00  0.00    +0.000 C 
BRANCH  20  21
ATOM     21  O   UNL     1       7.667   8.961  17.823  0.00  0.00    +0.000 OA
BRANCH  21  22
ATOM     22  C   UNL     1       8.813   9.038  18.666  0.00  0.00    +0.000 C 
BRANCH  22  23
ATOM     23  C   UNL     1       9.201  10.456  18.986  0.00  0.00    +0.000 A 
ATOM     24  C   UNL     1       9.360  11.437  18.008  0.00  0.00    +0.000 A 
ATOM     25  C   UNL     1       9.712  12.742  18.381  0.00  0.00    +0.000 A 
ATOM     26  C   UNL     1       9.882  13.102  19.730  0.00  0.00    +0.000 A 
ATOM     27  C   UNL     1       9.696  12.101  20.698  0.00  0.00    +0.000 A 
ATOM     28  C   UNL     1       9.365  10.796  20.328  0.00  0.00    +0.000 A 
BRANCH  26  29
ATOM     29  C   UNL     1      10.240  14.474  20.121  0.00  0.00    +0.000 A 
ATOM     30  C   UNL     1      10.581  14.809  21.438  0.00  0.00    +0.000 A 
ATOM     31  C   UNL     1      10.913  16.120  21.772  0.00  0.00    +0.000 A 
ATOM     32  C   UNL     1      10.904  17.075  20.772  0.00  0.00    +0.000 A 
ATOM     33  N   UNL     1      10.589  16.810  19.491  0.00  0.00    +0.000 NA
ATOM     34  C   UNL     1      10.260  15.527  19.202  0.00  0.00    +0.000 A 
ENDBRANCH  26  29
ENDBRANCH  22  23
ENDBRANCH  21  22
ENDBRANCH  20  21
ENDBRANCH  19  20
ENDBRANCH  18  19
ENDBRANCH   1  18
TORSDOF 14
ENDMDL
MODEL 8
REMARK VINA RESULT:      -6.6      3.725     10.299
REMARK  Name = 
REMARK  14 active torsions:
REMARK  status: ('A' for Active; 'I' for Inactive)
REMARK    1  A    between atoms: O_1  and  C_2
REMARK    2  A    between atoms: C_2  and  C_3
REMARK    3  A    between atoms: C_4  and  O_5
REMARK    4  A    between atoms: C_6  and  O_7
REMARK    5  A    between atoms: C_8  and  O_9
REMARK    6  A    between atoms: N_11  and  C_12
REMARK    7  A    between atoms: C_12  and  C_13
REMARK    8  A    between atoms: C_13  and  C_14
REMARK    9  A    between atoms: C_14  and  C_15
REMARK   10  A    between atoms: C_15  and  C_16
REMARK   11  A    between atoms: C_16  and  O_17
REMARK   12  A    between atoms: O_17  and  C_18
REMARK   13  A    between atoms: C_18  and  C_19
REMARK   14  A    between atoms: C_22  and  C_23
REMARK                            x       y       z     vdW  Elec       q    Type
REMARK                         _______ _______ _______ _____ _____    ______ ____
ROOT
ATOM      1  C   UNL     1       2.418   7.992  19.252  0.00  0.00    +0.000 C 
ENDROOT
BRANCH   1   2
ATOM      2  C   UNL     1       1.180   8.864  19.078  0.00  0.00    +0.000 C 
BRANCH   2   8
ATOM      3  C   UNL     1       0.440  11.091  19.808  0.00  0.00    +0.000 C 
ATOM      4  C   UNL     1       0.196  12.029  21.020  0.00  0.00    +0.000 C 
ATOM      5  C   UNL     1      -0.633  11.340  22.117  0.00  0.00    +0.000 C 
ATOM      6  C   UNL     1       0.011  10.014  22.516  0.00  0.00    +0.000 C 
ATOM      7  C   UNL     1       0.155   9.138  21.271  0.00  0.00    +0.000 C 
ATOM      8  N   UNL     1       0.980   9.765  20.226  0.00  0.00    +0.000 NA
BRANCH   4   9
ATOM      9  O   UNL     1      -0.484  13.215  20.565  0.00  0.00    +0.000 OA
ATOM     10  H   UNL     1      -0.741  13.082  19.635  0.00  0.00    +0.000 HD
ENDBRANCH   4   9
BRANCH   5  11
ATOM     11  O   UNL     1      -0.783  12.205  23.250  0.00  0.00    +0.000 OA
ATOM     12  H   UNL     1      -1.702  12.117  23.565  0.00  0.00    +0.000 HD
ENDBRANCH   5  11
BRANCH   6  13
ATOM     13  O   UNL     1      -0.768   9.327  23.502  0.00  0.00    +0.000 OA
ATOM     14  H   UNL     1      -1.670   9.211  23.157  0.00  0.00    +0.000 HD
ENDBRANCH   6  13
BRANCH   3  15
ATOM     15  C   UNL     1       1.353  11.834  18.788  0.00  0.00    +0.000 C 
BRANCH  15  16
ATOM     16  O   UNL     1       2.284  12.685  19.454  0.00  0.00    +0.000 OA
ATOM     17  H   UNL     1       1.940  13.590  19.393  0.00  0.00    +0.000 HD
ENDBRANCH  15  16
ENDBRANCH   3  15
ENDBRANCH   2   8
ENDBRANCH   1   2
BRANCH   1  18
ATOM     18  C   UNL     1       2.085   6.506  19.257  0.00  0.00    +0.000 C 
BRANCH  18  19
ATOM     19  C   UNL     1       1.611   6.079  20.649  0.00  0.00    +0.000 C 
BRANCH  19  20
ATOM     20  C   UNL     1       2.148   4.706  21.070  0.00  0.00    +0.000 C 
BRANCH  20  21
ATOM     21  O   UNL     1       1.158   3.685  20.969  0.00  0.00    +0.000 OA
BRANCH  21  22
ATOM     22  C   UNL     1       1.578   2.618  20.123  0.00  0.00    +0.000 C 
BRANCH  22  23
ATOM     23  C   UNL     1       2.619   3.046  19.126  0.00  0.00    +0.000 A 
ATOM     24  C   UNL     1       3.969   3.184  19.452  0.00  0.00    +0.000 A 
ATOM     25  C   UNL     1       4.886   3.576  18.467  0.00  0.00    +0.000 A 
ATOM     26  C   UNL     1       4.487   3.808  17.138  0.00  0.00    +0.000 A 
ATOM     27  C   UNL     1       3.127   3.642  16.830  0.00  0.00    +0.000 A 
ATOM     28  C   UNL     1       2.207   3.272  17.813  0.00  0.00    +0.000 A 
BRANCH  26  29
ATOM     29  C   UNL     1       5.453   4.207  16.103  0.00  0.00    +0.000 A 
ATOM     30  C   UNL     1       5.390   3.713  14.793  0.00  0.00    +0.000 A 
ATOM     31  C   UNL     1       6.323   4.113  13.840  0.00  0.00    +0.000 A 
ATOM     32  C   UNL     1       7.304   5.013  14.217  0.00  0.00    +0.000 A 
ATOM     33  N   UNL     1       7.409   5.523  15.457  0.00  0.00    +0.000 NA
ATOM     34  C   UNL     1       6.493   5.105  16.364  0.00  0.00    +0.000 A 
ENDBRANCH  26  29
ENDBRANCH  22  23
ENDBRANCH  21  22
ENDBRANCH  20  21
ENDBRANCH  19  20
ENDBRANCH  18  19
ENDBRANCH   1  18
TORSDOF 14
ENDMDL
MODEL 9
REMARK VINA RESULT:      -6.6      2.603      4.500
REMARK  Name = 
REMARK  14 active torsions:
REMARK  status: ('A' for Active; 'I' for Inactive)
REMARK    1  A    between atoms: O_1  and  C_2
REMARK    2  A    between atoms: C_2  and  C_3
REMARK    3  A    between atoms: C_4  and  O_5
REMARK    4  A    between atoms: C_6  and  O_7
REMARK    5  A    between atoms: C_8  and  O_9
REMARK    6  A    between atoms: N_11  and  C_12
REMARK    7  A    between atoms: C_12  and  C_13
REMARK    8  A    between atoms: C_13  and  C_14
REMARK    9  A    between atoms: C_14  and  C_15
REMARK   10  A    between atoms: C_15  and  C_16
REMARK   11  A    between atoms: C_16  and  O_17
REMARK   12  A    between atoms: O_17  and  C_18
REMARK   13  A    between atoms: C_18  and  C_19
REMARK   14  A    between atoms: C_22  and  C_23
REMARK                            x       y       z     vdW  Elec       q    Type
REMARK                         _______ _______ _______ _____ _____    ______ ____
ROOT
ATOM      1  C   UNL     1       2.313   8.048  18.622  0.00  0.00    +0.000 C 
ENDROOT
BRANCH   1   2
ATOM      2  C   UNL     1       3.254   7.163  17.812  0.00  0.00    +0.000 C 
BRANCH   2   8
ATOM      3  C   UNL     1       4.360   5.112  18.593  0.00  0.00    +0.000 C 
ATOM      4  C   UNL     1       4.174   3.619  18.975  0.00  0.00    +0.000 C 
ATOM      5  C   UNL     1       3.007   3.423  19.958  0.00  0.00    +0.000 C 
ATOM      6  C   UNL     1       1.733   4.054  19.402  0.00  0.00    +0.000 C 
ATOM      7  C   UNL     1       1.996   5.532  19.113  0.00  0.00    +0.000 C 
ATOM      8  N   UNL     1       3.083   5.737  18.143  0.00  0.00    +0.000 NA
BRANCH   4   9
ATOM      9  O   UNL     1       5.396   3.131  19.562  0.00  0.00    +0.000 OA
ATOM     10  H   UNL     1       5.213   2.269  19.976  0.00  0.00    +0.000 HD
ENDBRANCH   4   9
BRANCH   5  11
ATOM     11  O   UNL     1       2.817   2.030  20.239  0.00  0.00    +0.000 OA
ATOM     12  H   UNL     1       3.348   1.816  21.028  0.00  0.00    +0.000 HD
ENDBRANCH   5  11
BRANCH   6  13
ATOM     13  O   UNL     1       0.641   3.929  20.321  0.00  0.00    +0.000 OA
ATOM     14  H   UNL     1      -0.101   4.466  19.994  0.00  0.00    +0.000 HD
ENDBRANCH   6  13
BRANCH   3  15
ATOM     15  C   UNL     1       5.500   5.209  17.536  0.00  0.00    +0.000 C 
BRANCH  15  16
ATOM     16  O   UNL     1       5.796   3.931  16.977  0.00  0.00    +0.000 OA
ATOM     17  H   UNL     1       6.258   4.085  16.138  0.00  0.00    +0.000 HD
ENDBRANCH  15  16
ENDBRANCH   3  15
ENDBRANCH   2   8
ENDBRANCH   1   2
BRANCH   1  18
ATOM     18  C   UNL     1       1.818   9.248  17.826  0.00  0.00    +0.000 C 
BRANCH  18  19
ATOM     19  C   UNL     1       1.154  10.261  18.763  0.00  0.00    +0.000 C 
BRANCH  19  20
ATOM     20  C   UNL     1       0.500   9.607  19.986  0.00  0.00    +0.000 C 
BRANCH  20  21
ATOM     21  O   UNL     1       0.824  10.286  21.198  0.00  0.00    +0.000 OA
BRANCH  21  22
ATOM     22  C   UNL     1       0.505  11.673  21.132  0.00  0.00    +0.000 C 
BRANCH  22  23
ATOM     23  C   UNL     1      -0.918  11.959  21.528  0.00  0.00    +0.000 A 
ATOM     24  C   UNL     1      -1.404  11.740  22.817  0.00  0.00    +0.000 A 
ATOM     25  C   UNL     1      -2.740  12.041  23.118  0.00  0.00    +0.000 A 
ATOM     26  C   UNL     1      -3.606  12.591  22.156  0.00  0.00    +0.000 A 
ATOM     27  C   UNL     1      -3.087  12.822  20.871  0.00  0.00    +0.000 A 
ATOM     28  C   UNL     1      -1.763  12.504  20.562  0.00  0.00    +0.000 A 
BRANCH  26  29
ATOM     29  C   UNL     1      -5.004  12.918  22.476  0.00  0.00    +0.000 A 
ATOM     30  C   UNL     1      -5.418  13.229  23.778  0.00  0.00    +0.000 A 
ATOM     31  C   UNL     1      -6.752  13.531  24.043  0.00  0.00    +0.000 A 
ATOM     32  C   UNL     1      -7.649  13.525  22.990  0.00  0.00    +0.000 A 
ATOM     33  N   UNL     1      -7.307  13.238  21.722  0.00  0.00    +0.000 NA
ATOM     34  C   UNL     1      -6.004  12.937  21.499  0.00  0.00    +0.000 A 
ENDBRANCH  26  29
ENDBRANCH  22  23
ENDBRANCH  21  22
ENDBRANCH  20  21
ENDBRANCH  19  20
ENDBRANCH  18  19
ENDBRANCH   1  18
TORSDOF 14
ENDMDL
