MODEL 1
REMARK VINA RESULT:      -7.2      0.000      0.000
REMARK  Name = 
REMARK  7 active torsions:
REMARK  status: ('A' for Active; 'I' for Inactive)
REMARK    1  A    between atoms: C_1  and  O_2
REMARK    2  A    between atoms: O_2  and  C_3
REMARK    3  A    between atoms: C_6  and  C_7
REMARK    4  A    between atoms: C_9  and  O_10
REMARK    5  A    between atoms: O_10  and  C_11
REMARK    6  A    between atoms: C_14  and  C_15
REMARK    7  A    between atoms: N_23  and  C_24
REMARK                            x       y       z     vdW  Elec       q    Type
REMARK                         _______ _______ _______ _____ _____    ______ ____
ROOT
ATOM      1  C   UNL     1       2.501   5.937  19.187  0.00  0.00    +0.000 C 
ATOM      2  C   UNL     1       3.429   5.198  18.545  0.00  0.00    +0.000 A 
ATOM      3  C   UNL     1       4.545   5.780  17.726  0.00  0.00    +0.000 A 
ATOM      4  N   UNL     1       5.187   5.172  16.789  0.00  0.00    +0.000 NA
ATOM      5  C   UNL     1       4.837   3.869  16.554  0.00  0.00    +0.000 A 
ATOM      6  C   UNL     1       5.241   3.220  15.444  0.00  0.00    +0.000 C 
ATOM      7  C   UNL     1       4.062   3.050  17.570  0.00  0.00    +0.000 A 
ATOM      8  O   UNL     1       4.021   1.825  17.504  0.00  0.00    +0.000 OA
ATOM      9  N   UNL     1       3.389   3.792  18.552  0.00  0.00    +0.000 N 
ATOM     10  C   UNL     1       2.611   3.040  19.532  0.00  0.00    +0.000 C 
ENDROOT
BRANCH   1  14
ATOM     11  C   UNL     1       1.034   9.915  18.890  0.00  0.00    +0.000 A 
ATOM     12  C   UNL     1       1.545   9.271  17.762  0.00  0.00    +0.000 A 
ATOM     13  C   UNL     1       2.117   8.001  17.874  0.00  0.00    +0.000 A 
ATOM     14  C   UNL     1       2.204   7.374  19.122  0.00  0.00    +0.000 A 
ATOM     15  C   UNL     1       1.797   8.067  20.264  0.00  0.00    +0.000 A 
ATOM     16  C   UNL     1       1.209   9.333  20.147  0.00  0.00    +0.000 A 
BRANCH  11  18
ATOM     17  C   UNL     1      -1.003  10.994  18.388  0.00  0.00    +0.000 C 
ATOM     18  O   UNL     1       0.393  11.102  18.658  0.00  0.00    +0.000 OA
ENDBRANCH  11  18
ENDBRANCH   1  14
BRANCH   6  19
ATOM     19  C   UNL     1       6.056   3.846  14.397  0.00  0.00    +0.000 A 
ATOM     20  C   UNL     1       5.885   3.467  13.061  0.00  0.00    +0.000 A 
ATOM     21  C   UNL     1       6.664   4.044  12.057  0.00  0.00    +0.000 A 
ATOM     22  C   UNL     1       7.619   5.006  12.382  0.00  0.00    +0.000 A 
ATOM     23  C   UNL     1       7.796   5.388  13.712  0.00  0.00    +0.000 A 
ATOM     24  C   UNL     1       7.017   4.811  14.717  0.00  0.00    +0.000 A 
ENDBRANCH   6  19
BRANCH   3  25
ATOM     25  O   UNL     1       4.941   7.006  18.148  0.00  0.00    +0.000 OA
ATOM     26  C   UNL     1       6.146   7.556  17.576  0.00  0.00    +0.000 C 
ENDBRANCH   3  25
TORSDOF 4
ENDMDL
MODEL 2
REMARK VINA RESULT:      -7.2      8.465      9.565
REMARK  Name = 
REMARK  7 active torsions:
REMARK  status: ('A' for Active; 'I' for Inactive)
REMARK    1  A    between atoms: C_1  and  O_2
REMARK    2  A    between atoms: O_2  and  C_3
REMARK    3  A    between atoms: C_6  and  C_7
REMARK    4  A    between atoms: C_9  and  O_10
REMARK    5  A    between atoms: O_10  and  C_11
REMARK    6  A    between atoms: C_14  and  C_15
REMARK    7  A    between atoms: N_23  and  C_24
REMARK                            x       y       z     vdW  Elec       q    Type
REMARK                         _______ _______ _______ _____ _____    ______ ____
ROOT
ATOM      1  C   UNL     1       4.862  14.277  22.627  0.00  0.00    +0.000 C 
ATOM      2  C   UNL     1       6.121  13.792  22.598  0.00  0.00    +0.000 A 
ATOM      3  C   UNL     1       7.140  14.167  21.560  0.00  0.00    +0.000 A 
ATOM      4  N   UNL     1       8.172  13.470  21.232  0.00  0.00    +0.000 NA
ATOM      5  C   UNL     1       8.366  12.303  21.924  0.00  0.00    +0.000 A 
ATOM      6  C   UNL     1       9.243  11.371  21.502  0.00  0.00    +0.000 C 
ATOM      7  C   UNL     1       7.685  12.036  23.254  0.00  0.00    +0.000 A 
ATOM      8  O   UNL     1       8.087  11.158  24.011  0.00  0.00    +0.000 OA
ATOM      9  N   UNL     1       6.567  12.837  23.528  0.00  0.00    +0.000 N 
ATOM     10  C   UNL     1       5.869  12.591  24.787  0.00  0.00    +0.000 C 
ENDROOT
BRANCH   1  14
ATOM     11  C   UNL     1       3.273  16.684  19.504  0.00  0.00    +0.000 A 
ATOM     12  C   UNL     1       3.636  17.264  20.721  0.00  0.00    +0.000 A 
ATOM     13  C   UNL     1       4.067  16.465  21.783  0.00  0.00    +0.000 A 
ATOM     14  C   UNL     1       4.116  15.073  21.643  0.00  0.00    +0.000 A 
ATOM     15  C   UNL     1       3.645  14.488  20.467  0.00  0.00    +0.000 A 
ATOM     16  C   UNL     1       3.228  15.293  19.398  0.00  0.00    +0.000 A 
BRANCH  11  18
ATOM     17  C   UNL     1       2.899  16.977  17.194  0.00  0.00    +0.000 C 
ATOM     18  O   UNL     1       2.976  17.557  18.494  0.00  0.00    +0.000 OA
ENDBRANCH  11  18
ENDBRANCH   1  14
BRANCH   6  19
ATOM     19  C   UNL     1      10.034  11.508  20.274  0.00  0.00    +0.000 A 
ATOM     20  C   UNL     1      11.342  12.002  20.340  0.00  0.00    +0.000 A 
ATOM     21  C   UNL     1      12.100  12.152  19.177  0.00  0.00    +0.000 A 
ATOM     22  C   UNL     1      11.556  11.809  17.940  0.00  0.00    +0.000 A 
ATOM     23  C   UNL     1      10.252  11.318  17.867  0.00  0.00    +0.000 A 
ATOM     24  C   UNL     1       9.492  11.168  19.029  0.00  0.00    +0.000 A 
ENDBRANCH   6  19
BRANCH   3  25
ATOM     25  O   UNL     1       6.965  15.415  21.059  0.00  0.00    +0.000 OA
ATOM     26  C   UNL     1       7.283  15.630  19.668  0.00  0.00    +0.000 C 
ENDBRANCH   3  25
TORSDOF 4
ENDMDL
MODEL 3
REMARK VINA RESULT:      -7.2      8.462      9.502
REMARK  Name = 
REMARK  7 active torsions:
REMARK  status: ('A' for Active; 'I' for Inactive)
REMARK    1  A    between atoms: C_1  and  O_2
REMARK    2  A    between atoms: O_2  and  C_3
REMARK    3  A    between atoms: C_6  and  C_7
REMARK    4  A    between atoms: C_9  and  O_10
REMARK    5  A    between atoms: O_10  and  C_11
REMARK    6  A    between atoms: C_14  and  C_15
REMARK    7  A    between atoms: N_23  and  C_24
REMARK                            x       y       z     vdW  Elec       q    Type
REMARK                         _______ _______ _______ _____ _____    ______ ____
ROOT
ATOM      1  C   UNL     1       4.825  14.242  22.568  0.00  0.00    +0.000 C 
ATOM      2  C   UNL     1       6.093  13.783  22.554  0.00  0.00    +0.000 A 
ATOM      3  C   UNL     1       7.114  14.172  21.523  0.00  0.00    +0.000 A 
ATOM      4  N   UNL     1       8.163  13.494  21.209  0.00  0.00    +0.000 NA
ATOM      5  C   UNL     1       8.375  12.336  21.911  0.00  0.00    +0.000 A 
ATOM      6  C   UNL     1       9.275  11.419  21.502  0.00  0.00    +0.000 C 
ATOM      7  C   UNL     1       7.688  12.064  23.237  0.00  0.00    +0.000 A 
ATOM      8  O   UNL     1       8.101  11.200  24.003  0.00  0.00    +0.000 OA
ATOM      9  N   UNL     1       6.550  12.844  23.495  0.00  0.00    +0.000 N 
ATOM     10  C   UNL     1       5.847  12.592  24.749  0.00  0.00    +0.000 C 
ENDROOT
BRANCH   1  14
ATOM     11  C   UNL     1       3.216  16.602  19.421  0.00  0.00    +0.000 A 
ATOM     12  C   UNL     1       3.539  17.192  20.644  0.00  0.00    +0.000 A 
ATOM     13  C   UNL     1       3.977  16.405  21.713  0.00  0.00    +0.000 A 
ATOM     14  C   UNL     1       4.071  15.016  21.573  0.00  0.00    +0.000 A 
ATOM     15  C   UNL     1       3.638  14.418  20.388  0.00  0.00    +0.000 A 
ATOM     16  C   UNL     1       3.216  15.211  19.313  0.00  0.00    +0.000 A 
BRANCH  11  18
ATOM     17  C   UNL     1       1.516  17.615  18.135  0.00  0.00    +0.000 C 
ATOM     18  O   UNL     1       2.909  17.467  18.406  0.00  0.00    +0.000 OA
ENDBRANCH  11  18
ENDBRANCH   1  14
BRANCH   6  19
ATOM     19  C   UNL     1      10.073  11.565  20.281  0.00  0.00    +0.000 A 
ATOM     20  C   UNL     1       9.526  11.204  19.045  0.00  0.00    +0.000 A 
ATOM     21  C   UNL     1      10.281  11.322  17.876  0.00  0.00    +0.000 A 
ATOM     22  C   UNL     1      11.588  11.804  17.936  0.00  0.00    +0.000 A 
ATOM     23  C   UNL     1      12.140  12.163  19.165  0.00  0.00    +0.000 A 
ATOM     24  C   UNL     1      11.387  12.045  20.335  0.00  0.00    +0.000 A 
ENDBRANCH   6  19
BRANCH   3  25
ATOM     25  O   UNL     1       6.918  15.412  21.011  0.00  0.00    +0.000 OA
ATOM     26  C   UNL     1       7.160  15.603  19.601  0.00  0.00    +0.000 C 
ENDBRANCH   3  25
TORSDOF 4
ENDMDL
MODEL 4
REMARK VINA RESULT:      -7.0      5.838      9.353
REMARK  Name = 
REMARK  7 active torsions:
REMARK  status: ('A' for Active; 'I' for Inactive)
REMARK    1  A    between atoms: C_1  and  O_2
REMARK    2  A    between atoms: O_2  and  C_3
REMARK    3  A    between atoms: C_6  and  C_7
REMARK    4  A    between atoms: C_9  and  O_10
REMARK    5  A    between atoms: O_10  and  C_11
REMARK    6  A    between atoms: C_14  and  C_15
REMARK    7  A    between atoms: N_23  and  C_24
REMARK                            x       y       z     vdW  Elec       q    Type
REMARK                         _______ _______ _______ _____ _____    ______ ____
ROOT
ATOM      1  C   UNL     1      -0.581  15.191  21.644  0.00  0.00    +0.000 C 
ATOM      2  C   UNL     1      -0.240  13.902  21.845  0.00  0.00    +0.000 A 
ATOM      3  C   UNL     1       0.892  13.214  21.137  0.00  0.00    +0.000 A 
ATOM      4  N   UNL     1       1.013  11.943  20.967  0.00  0.00    +0.000 NA
ATOM      5  C   UNL     1       0.035  11.157  21.518  0.00  0.00    +0.000 A 
ATOM      6  C   UNL     1      -0.093   9.857  21.188  0.00  0.00    +0.000 C 
ATOM      7  C   UNL     1      -0.894  11.674  22.602  0.00  0.00    +0.000 A 
ATOM      8  O   UNL     1      -1.544  10.905  23.303  0.00  0.00    +0.000 OA
ATOM      9  N   UNL     1      -0.969  13.070  22.713  0.00  0.00    +0.000 N 
ATOM     10  C   UNL     1      -1.872  13.605  23.728  0.00  0.00    +0.000 C 
ENDROOT
BRANCH   1  14
ATOM     11  C   UNL     1       1.187  17.571  18.598  0.00  0.00    +0.000 A 
ATOM     12  C   UNL     1       1.543  17.765  19.934  0.00  0.00    +0.000 A 
ATOM     13  C   UNL     1       0.895  17.054  20.947  0.00  0.00    +0.000 A 
ATOM     14  C   UNL     1      -0.134  16.158  20.632  0.00  0.00    +0.000 A 
ATOM     15  C   UNL     1      -0.565  16.051  19.309  0.00  0.00    +0.000 A 
ATOM     16  C   UNL     1       0.098  16.753  18.294  0.00  0.00    +0.000 A 
BRANCH  11  18
ATOM     17  C   UNL     1       2.529  17.399  16.665  0.00  0.00    +0.000 C 
ATOM     18  O   UNL     1       1.957  18.227  17.677  0.00  0.00    +0.000 OA
ENDBRANCH  11  18
ENDBRANCH   1  14
BRANCH   6  19
ATOM     19  C   UNL     1       0.771   9.186  20.211  0.00  0.00    +0.000 A 
ATOM     20  C   UNL     1       0.827   9.655  18.894  0.00  0.00    +0.000 A 
ATOM     21  C   UNL     1       1.634   9.016  17.950  0.00  0.00    +0.000 A 
ATOM     22  C   UNL     1       2.389   7.904  18.317  0.00  0.00    +0.000 A 
ATOM     23  C   UNL     1       2.336   7.429  19.628  0.00  0.00    +0.000 A 
ATOM     24  C   UNL     1       1.529   8.067  20.573  0.00  0.00    +0.000 A 
ENDBRANCH   6  19
BRANCH   3  25
ATOM     25  O   UNL     1       1.897  14.054  20.785  0.00  0.00    +0.000 OA
ATOM     26  C   UNL     1       2.607  13.774  19.560  0.00  0.00    +0.000 C 
ENDBRANCH   3  25
TORSDOF 4
ENDMDL
MODEL 5
REMARK VINA RESULT:      -7.0      4.611      7.935
REMARK  Name = 
REMARK  7 active torsions:
REMARK  status: ('A' for Active; 'I' for Inactive)
REMARK    1  A    between atoms: C_1  and  O_2
REMARK    2  A    between atoms: O_2  and  C_3
REMARK    3  A    between atoms: C_6  and  C_7
REMARK    4  A    between atoms: C_9  and  O_10
REMARK    5  A    between atoms: O_10  and  C_11
REMARK    6  A    between atoms: C_14  and  C_15
REMARK    7  A    between atoms: N_23  and  C_24
REMARK                            x       y       z     vdW  Elec       q    Type
REMARK                         _______ _______ _______ _____ _____    ______ ____
ROOT
ATOM      1  C   UNL     1      -1.143  12.777  19.855  0.00  0.00    +0.000 C 
ATOM      2  C   UNL     1      -0.361  11.922  19.166  0.00  0.00    +0.000 A 
ATOM      3  C   UNL     1      -0.647  10.455  19.021  0.00  0.00    +0.000 A 
ATOM      4  N   UNL     1       0.220   9.542  18.751  0.00  0.00    +0.000 NA
ATOM      5  C   UNL     1       1.507   9.963  18.543  0.00  0.00    +0.000 A 
ATOM      6  C   UNL     1       2.538   9.095  18.517  0.00  0.00    +0.000 C 
ATOM      7  C   UNL     1       1.837  11.412  18.231  0.00  0.00    +0.000 A 
ATOM      8  O   UNL     1       2.918  11.729  17.745  0.00  0.00    +0.000 OA
ATOM      9  N   UNL     1       0.838  12.340  18.562  0.00  0.00    +0.000 N 
ATOM     10  C   UNL     1       1.130  13.746  18.300  0.00  0.00    +0.000 C 
ENDROOT
BRANCH   1  14
ATOM     11  C   UNL     1      -4.341  12.665  22.654  0.00  0.00    +0.000 A 
ATOM     12  C   UNL     1      -3.070  12.220  23.023  0.00  0.00    +0.000 A 
ATOM     13  C   UNL     1      -2.041  12.164  22.080  0.00  0.00    +0.000 A 
ATOM     14  C   UNL     1      -2.281  12.531  20.751  0.00  0.00    +0.000 A 
ATOM     15  C   UNL     1      -3.579  12.865  20.359  0.00  0.00    +0.000 A 
ATOM     16  C   UNL     1      -4.605  12.936  21.310  0.00  0.00    +0.000 A 
BRANCH  11  18
ATOM     17  C   UNL     1      -4.781  12.368  24.952  0.00  0.00    +0.000 C 
ATOM     18  O   UNL     1      -5.246  12.791  23.672  0.00  0.00    +0.000 OA
ENDBRANCH  11  18
ENDBRANCH   1  14
BRANCH   6  19
ATOM     19  C   UNL     1       2.379   7.652  18.729  0.00  0.00    +0.000 A 
ATOM     20  C   UNL     1       2.156   7.159  20.019  0.00  0.00    +0.000 A 
ATOM     21  C   UNL     1       2.019   5.786  20.237  0.00  0.00    +0.000 A 
ATOM     22  C   UNL     1       2.103   4.898  19.166  0.00  0.00    +0.000 A 
ATOM     23  C   UNL     1       2.328   5.383  17.878  0.00  0.00    +0.000 A 
ATOM     24  C   UNL     1       2.466   6.756  17.658  0.00  0.00    +0.000 A 
ENDBRANCH   6  19
BRANCH   3  25
ATOM     25  O   UNL     1      -1.969  10.157  19.064  0.00  0.00    +0.000 OA
ATOM     26  C   UNL     1      -2.662   9.994  17.809  0.00  0.00    +0.000 C 
ENDBRANCH   3  25
TORSDOF 4
ENDMDL
MODEL 6
REMARK VINA RESULT:      -6.9      2.547      6.468
REMARK  Name = 
REMARK  7 active torsions:
REMARK  status: ('A' for Active; 'I' for Inactive)
REMARK    1  A    between atoms: C_1  and  O_2
REMARK    2  A    between atoms: O_2  and  C_3
REMARK    3  A    between atoms: C_6  and  C_7
REMARK    4  A    between atoms: C_9  and  O_10
REMARK    5  A    between atoms: O_10  and  C_11
REMARK    6  A    between atoms: C_14  and  C_15
REMARK    7  A    between atoms: N_23  and  C_24
REMARK                            x       y       z     vdW  Elec       q    Type
REMARK                         _______ _______ _______ _____ _____    ______ ____
ROOT
ATOM      1  C   UNL     1       7.301   6.900  16.626  0.00  0.00    +0.000 C 
ATOM      2  C   UNL     1       6.256   6.048  16.627  0.00  0.00    +0.000 A 
ATOM      3  C   UNL     1       5.067   6.179  17.534  0.00  0.00    +0.000 A 
ATOM      4  N   UNL     1       4.269   5.227  17.873  0.00  0.00    +0.000 NA
ATOM      5  C   UNL     1       4.516   3.997  17.321  0.00  0.00    +0.000 A 
ATOM      6  C   UNL     1       3.928   2.881  17.793  0.00  0.00    +0.000 C 
ATOM      7  C   UNL     1       5.384   3.832  16.086  0.00  0.00    +0.000 A 
ATOM      8  O   UNL     1       5.353   2.803  15.419  0.00  0.00    +0.000 OA
ATOM      9  N   UNL     1       6.226   4.915  15.794  0.00  0.00    +0.000 N 
ATOM     10  C   UNL     1       7.095   4.782  14.628  0.00  0.00    +0.000 C 
ENDROOT
BRANCH   1  14
ATOM     11  C   UNL     1       8.907  10.032  19.011  0.00  0.00    +0.000 A 
ATOM     12  C   UNL     1       9.000   8.706  19.440  0.00  0.00    +0.000 A 
ATOM     13  C   UNL     1       8.389   7.684  18.709  0.00  0.00    +0.000 A 
ATOM     14  C   UNL     1       7.659   7.983  17.553  0.00  0.00    +0.000 A 
ATOM     15  C   UNL     1       7.472   9.318  17.190  0.00  0.00    +0.000 A 
ATOM     16  C   UNL     1       8.099  10.340  17.916  0.00  0.00    +0.000 A 
BRANCH  11  18
ATOM     17  C   UNL     1      10.631  11.642  18.990  0.00  0.00    +0.000 C 
ATOM     18  O   UNL     1       9.633  10.941  19.730  0.00  0.00    +0.000 OA
ENDBRANCH  11  18
ENDBRANCH   1  14
BRANCH   6  19
ATOM     19  C   UNL     1       3.007   2.879  18.935  0.00  0.00    +0.000 A 
ATOM     20  C   UNL     1       1.636   3.064  18.725  0.00  0.00    +0.000 A 
ATOM     21  C   UNL     1       0.751   3.080  19.804  0.00  0.00    +0.000 A 
ATOM     22  C   UNL     1       1.231   2.909  21.102  0.00  0.00    +0.000 A 
ATOM     23  C   UNL     1       2.596   2.726  21.319  0.00  0.00    +0.000 A 
ATOM     24  C   UNL     1       3.483   2.711  20.241  0.00  0.00    +0.000 A 
ENDBRANCH   6  19
BRANCH   3  25
ATOM     25  O   UNL     1       4.797   7.461  17.886  0.00  0.00    +0.000 OA
ATOM     26  C   UNL     1       3.424   7.899  17.821  0.00  0.00    +0.000 C 
ENDBRANCH   3  25
TORSDOF 4
ENDMDL
MODEL 7
REMARK VINA RESULT:      -6.9      8.447      9.511
REMARK  Name = 
REMARK  7 active torsions:
REMARK  status: ('A' for Active; 'I' for Inactive)
REMARK    1  A    between atoms: C_1  and  O_2
REMARK    2  A    between atoms: O_2  and  C_3
REMARK    3  A    between atoms: C_6  and  C_7
REMARK    4  A    between atoms: C_9  and  O_10
REMARK    5  A    between atoms: O_10  and  C_11
REMARK    6  A    between atoms: C_14  and  C_15
REMARK    7  A    between atoms: N_23  and  C_24
REMARK                            x       y       z     vdW  Elec       q    Type
REMARK                         _______ _______ _______ _____ _____    ______ ____
ROOT
ATOM      1  C   UNL     1       4.888  14.343  22.555  0.00  0.00    +0.000 C 
ATOM      2  C   UNL     1       6.139  13.840  22.539  0.00  0.00    +0.000 A 
ATOM      3  C   UNL     1       7.180  14.213  21.523  0.00  0.00    +0.000 A 
ATOM      4  N   UNL     1       8.206  13.505  21.201  0.00  0.00    +0.000 NA
ATOM      5  C   UNL     1       8.371  12.325  21.878  0.00  0.00    +0.000 A 
ATOM      6  C   UNL     1       9.240  11.385  21.456  0.00  0.00    +0.000 C 
ATOM      7  C   UNL     1       7.665  12.049  23.194  0.00  0.00    +0.000 A 
ATOM      8  O   UNL     1       8.041  11.154  23.943  0.00  0.00    +0.000 OA
ATOM      9  N   UNL     1       6.555  12.864  23.462  0.00  0.00    +0.000 N 
ATOM     10  C   UNL     1       5.834  12.611  24.706  0.00  0.00    +0.000 C 
ENDROOT
BRANCH   1  14
ATOM     11  C   UNL     1       2.275  16.518  20.003  0.00  0.00    +0.000 A 
ATOM     12  C   UNL     1       2.702  15.238  19.642  0.00  0.00    +0.000 A 
ATOM     13  C   UNL     1       3.637  14.559  20.429  0.00  0.00    +0.000 A 
ATOM     14  C   UNL     1       4.169  15.166  21.572  0.00  0.00    +0.000 A 
ATOM     15  C   UNL     1       3.828  16.487  21.866  0.00  0.00    +0.000 A 
ATOM     16  C   UNL     1       2.879  17.159  21.085  0.00  0.00    +0.000 A 
BRANCH  11  18
ATOM     17  C   UNL     1       0.307  16.113  18.766  0.00  0.00    +0.000 C 
ATOM     18  O   UNL     1       1.276  17.049  19.233  0.00  0.00    +0.000 OA
ENDBRANCH  11  18
ENDBRANCH   1  14
BRANCH   6  19
ATOM     19  C   UNL     1      10.052  11.528  20.243  0.00  0.00    +0.000 A 
ATOM     20  C   UNL     1      11.365  12.002  20.336  0.00  0.00    +0.000 A 
ATOM     21  C   UNL     1      12.144  12.157  19.187  0.00  0.00    +0.000 A 
ATOM     22  C   UNL     1      11.615  11.838  17.938  0.00  0.00    +0.000 A 
ATOM     23  C   UNL     1      10.306  11.367  17.838  0.00  0.00    +0.000 A 
ATOM     24  C   UNL     1       9.526  11.212  18.985  0.00  0.00    +0.000 A 
ENDBRANCH   6  19
BRANCH   3  25
ATOM     25  O   UNL     1       7.032  15.471  21.038  0.00  0.00    +0.000 OA
ATOM     26  C   UNL     1       7.909  16.496  21.552  0.00  0.00    +0.000 C 
ENDBRANCH   3  25
TORSDOF 4
ENDMDL
MODEL 8
REMARK VINA RESULT:      -6.9      8.456      9.517
REMARK  Name = 
REMARK  7 active torsions:
REMARK  status: ('A' for Active; 'I' for Inactive)
REMARK    1  A    between atoms: C_1  and  O_2
REMARK    2  A    between atoms: O_2  and  C_3
REMARK    3  A    between atoms: C_6  and  C_7
REMARK    4  A    between atoms: C_9  and  O_10
REMARK    5  A    between atoms: O_10  and  C_11
REMARK    6  A    between atoms: C_14  and  C_15
REMARK    7  A    between atoms: N_23  and  C_24
REMARK                            x       y       z     vdW  Elec       q    Type
REMARK                         _______ _______ _______ _____ _____    ______ ____
ROOT
ATOM      1  C   UNL     1       4.944  14.372  22.549  0.00  0.00    +0.000 C 
ATOM      2  C   UNL     1       6.189  13.854  22.531  0.00  0.00    +0.000 A 
ATOM      3  C   UNL     1       7.237  14.223  21.521  0.00  0.00    +0.000 A 
ATOM      4  N   UNL     1       8.255  13.505  21.195  0.00  0.00    +0.000 NA
ATOM      5  C   UNL     1       8.405  12.319  21.864  0.00  0.00    +0.000 A 
ATOM      6  C   UNL     1       9.264  11.372  21.436  0.00  0.00    +0.000 C 
ATOM      7  C   UNL     1       7.693  12.041  23.176  0.00  0.00    +0.000 A 
ATOM      8  O   UNL     1       8.058  11.136  23.919  0.00  0.00    +0.000 OA
ATOM      9  N   UNL     1       6.592  12.867  23.448  0.00  0.00    +0.000 N 
ATOM     10  C   UNL     1       5.866  12.612  24.689  0.00  0.00    +0.000 C 
ENDROOT
BRANCH   1  14
ATOM     11  C   UNL     1       2.362  16.603  20.014  0.00  0.00    +0.000 A 
ATOM     12  C   UNL     1       2.760  15.315  19.650  0.00  0.00    +0.000 A 
ATOM     13  C   UNL     1       3.684  14.615  20.431  0.00  0.00    +0.000 A 
ATOM     14  C   UNL     1       4.237  15.210  21.571  0.00  0.00    +0.000 A 
ATOM     15  C   UNL     1       3.926  16.538  21.868  0.00  0.00    +0.000 A 
ATOM     16  C   UNL     1       2.986  17.231  21.093  0.00  0.00    +0.000 A 
BRANCH  11  18
ATOM     17  C   UNL     1       1.706  17.368  17.881  0.00  0.00    +0.000 C 
ATOM     18  O   UNL     1       1.370  17.156  19.251  0.00  0.00    +0.000 OA
ENDBRANCH  11  18
ENDBRANCH   1  14
BRANCH   6  19
ATOM     19  C   UNL     1      10.080  11.514  20.225  0.00  0.00    +0.000 A 
ATOM     20  C   UNL     1       9.540  11.180  18.979  0.00  0.00    +0.000 A 
ATOM     21  C   UNL     1      10.312  11.296  17.820  0.00  0.00    +0.000 A 
ATOM     22  C   UNL     1      11.628  11.749  17.902  0.00  0.00    +0.000 A 
ATOM     23  C   UNL     1      12.173  12.081  19.142  0.00  0.00    +0.000 A 
ATOM     24  C   UNL     1      11.403  11.965  20.301  0.00  0.00    +0.000 A 
ENDBRANCH   6  19
BRANCH   3  25
ATOM     25  O   UNL     1       7.105  15.486  21.044  0.00  0.00    +0.000 OA
ATOM     26  C   UNL     1       8.099  16.457  21.433  0.00  0.00    +0.000 C 
ENDBRANCH   3  25
TORSDOF 4
ENDMDL
MODEL 9
REMARK VINA RESULT:      -6.8      4.600      7.927
REMARK  Name = 
REMARK  7 active torsions:
REMARK  status: ('A' for Active; 'I' for Inactive)
REMARK    1  A    between atoms: C_1  and  O_2
REMARK    2  A    between atoms: O_2  and  C_3
REMARK    3  A    between atoms: C_6  and  C_7
REMARK    4  A    between atoms: C_9  and  O_10
REMARK    5  A    between atoms: O_10  and  C_11
REMARK    6  A    between atoms: C_14  and  C_15
REMARK    7  A    between atoms: N_23  and  C_24
REMARK                            x       y       z     vdW  Elec       q    Type
REMARK                         _______ _______ _______ _____ _____    ______ ____
ROOT
ATOM      1  C   UNL     1      -1.222  12.801  19.800  0.00  0.00    +0.000 C 
ATOM      2  C   UNL     1      -0.403  11.964  19.131  0.00  0.00    +0.000 A 
ATOM      3  C   UNL     1      -0.662  10.495  18.961  0.00  0.00    +0.000 A 
ATOM      4  N   UNL     1       0.228   9.597  18.713  0.00  0.00    +0.000 NA
ATOM      5  C   UNL     1       1.515  10.040  18.554  0.00  0.00    +0.000 A 
ATOM      6  C   UNL     1       2.559   9.187  18.556  0.00  0.00    +0.000 C 
ATOM      7  C   UNL     1       1.833  11.496  18.268  0.00  0.00    +0.000 A 
ATOM      8  O   UNL     1       2.926  11.834  17.824  0.00  0.00    +0.000 OA
ATOM      9  N   UNL     1       0.810  12.406  18.573  0.00  0.00    +0.000 N 
ATOM     10  C   UNL     1       1.089  13.819  18.336  0.00  0.00    +0.000 C 
ENDROOT
BRANCH   1  14
ATOM     11  C   UNL     1      -4.569  12.637  22.416  0.00  0.00    +0.000 A 
ATOM     12  C   UNL     1      -3.288  12.363  22.899  0.00  0.00    +0.000 A 
ATOM     13  C   UNL     1      -2.199  12.320  22.025  0.00  0.00    +0.000 A 
ATOM     14  C   UNL     1      -2.387  12.528  20.653  0.00  0.00    +0.000 A 
ATOM     15  C   UNL     1      -3.682  12.687  20.158  0.00  0.00    +0.000 A 
ATOM     16  C   UNL     1      -4.771  12.746  21.039  0.00  0.00    +0.000 A 
BRANCH  11  18
ATOM     17  C   UNL     1      -6.857  13.007  22.854  0.00  0.00    +0.000 C 
ATOM     18  O   UNL     1      -5.546  12.770  23.364  0.00  0.00    +0.000 OA
ENDBRANCH  11  18
ENDBRANCH   1  14
BRANCH   6  19
ATOM     19  C   UNL     1       2.415   7.740  18.749  0.00  0.00    +0.000 A 
ATOM     20  C   UNL     1       2.573   6.874  17.661  0.00  0.00    +0.000 A 
ATOM     21  C   UNL     1       2.423   5.496  17.827  0.00  0.00    +0.000 A 
ATOM     22  C   UNL     1       2.116   4.974  19.083  0.00  0.00    +0.000 A 
ATOM     23  C   UNL     1       1.955   5.832  20.171  0.00  0.00    +0.000 A 
ATOM     24  C   UNL     1       2.104   7.211  20.006  0.00  0.00    +0.000 A 
ENDBRANCH   6  19
BRANCH   3  25
ATOM     25  O   UNL     1      -1.980  10.177  18.956  0.00  0.00    +0.000 OA
ATOM     26  C   UNL     1      -2.621   9.996  17.675  0.00  0.00    +0.000 C 
ENDBRANCH   3  25
TORSDOF 4
ENDMDL
