MODEL 1
REMARK VINA RESULT:      -9.0      0.000      0.000
REMARK  Name = 
REMARK  8 active torsions:
REMARK  status: ('A' for Active; 'I' for Inactive)
REMARK    1  A    between atoms: C_1  and  C_2
REMARK    2  A    between atoms: C_2  and  N_3
REMARK    3  A    between atoms: C_2  and  C_27
REMARK    4  A    between atoms: C_12  and  C_13
REMARK    5  A    between atoms: N_15  and  C_16
REMARK    6  A    between atoms: C_16  and  C_17
REMARK    7  A    between atoms: C_17  and  C_18
REMARK    8  A    between atoms: C_18  and  O_19
REMARK                            x       y       z     vdW  Elec       q    Type
REMARK                         _______ _______ _______ _____ _____    ______ ____
ROOT
ATOM      1  N   UNL     1       9.632  10.435  19.050  0.00  0.00    +0.000 N 
ATOM      2  C   UNL     1       8.675   9.603  18.499  0.00  0.00    +0.000 C 
ATOM      3  O   UNL     1       7.750  10.036  17.820  0.00  0.00    +0.000 OA
ATOM      4  N   UNL     1       8.868   8.272  18.801  0.00  0.00    +0.000 N 
ATOM      5  C   UNL     1       7.943   7.287  18.397  0.00  0.00    +0.000 A 
ATOM      6  C   UNL     1       7.505   7.206  17.078  0.00  0.00    +0.000 A 
ATOM      7  C   UNL     1       6.614   6.163  16.801  0.00  0.00    +0.000 A 
ATOM      8  N   UNL     1       6.024   5.746  15.641  0.00  0.00    +0.000 N 
ATOM      9  N   UNL     1       5.189   4.700  15.783  0.00  0.00    +0.000 NA
ATOM     10  C   UNL     1       5.231   4.419  17.107  0.00  0.00    +0.000 A 
ATOM     11  C   UNL     1       6.143   5.299  17.783  0.00  0.00    +0.000 A 
ATOM     12  C   UNL     1       6.621   5.468  19.088  0.00  0.00    +0.000 A 
ATOM     13  N   UNL     1       7.559   6.422  19.363  0.00  0.00    +0.000 NA
ATOM     14  H   UNL     1      10.387  10.052  19.598  0.00  0.00    +0.000 HD
ATOM     15  H   UNL     1       9.258   8.081  19.710  0.00  0.00    +0.000 HD
ATOM     16  H   UNL     1       6.158   6.133  14.713  0.00  0.00    +0.000 HD
ENDROOT
BRANCH  10  17
ATOM     17  C   UNL     1       4.423   3.339  17.689  0.00  0.00    +0.000 C 
ATOM     18  O   UNL     1       3.375   2.942  17.182  0.00  0.00    +0.000 OA
ATOM     19  N   UNL     1       4.935   2.810  18.865  0.00  0.00    +0.000 N 
ATOM     20  H   UNL     1       5.814   3.216  19.174  0.00  0.00    +0.000 HD
BRANCH  19  21
ATOM     21  C   UNL     1       4.316   1.729  19.615  0.00  0.00    +0.000 C 
BRANCH  21  22
ATOM     22  C   UNL     1       3.875   2.182  21.011  0.00  0.00    +0.000 C 
BRANCH  22  23
ATOM     23  C   UNL     1       2.501   2.872  21.045  0.00  0.00    +0.000 C 
ATOM     24  C   UNL     1       1.566   2.376  19.932  0.00  0.00    +0.000 C 
ATOM     25  C   UNL     1       0.465   3.433  19.851  0.00  0.00    +0.000 C 
ATOM     26  C   UNL     1       1.071   4.717  20.417  0.00  0.00    +0.000 C 
ATOM     27  C   UNL     1       2.520   4.378  20.780  0.00  0.00    +0.000 C 
BRANCH  23  28
ATOM     28  O   UNL     1       1.888   2.641  22.314  0.00  0.00    +0.000 OA
ATOM     29  H   UNL     1       1.924   3.472  22.820  0.00  0.00    +0.000 HD
ENDBRANCH  23  28
ENDBRANCH  22  23
ENDBRANCH  21  22
ENDBRANCH  19  21
ENDBRANCH  10  17
BRANCH   1  31
ATOM     30  C   UNL     1      10.608  12.361  17.816  0.00  0.00    +0.000 C 
ATOM     31  C   UNL     1       9.567  11.876  18.834  0.00  0.00    +0.000 C 
BRANCH  31  32
ATOM     32  C   UNL     1       9.676  12.684  20.119  0.00  0.00    +0.000 A 
ATOM     33  C   UNL     1       8.935  12.283  21.244  0.00  0.00    +0.000 A 
ATOM     34  C   UNL     1       8.865  13.090  22.382  0.00  0.00    +0.000 A 
ATOM     35  C   UNL     1       9.547  14.303  22.420  0.00  0.00    +0.000 A 
ATOM     36  C   UNL     1      10.321  14.696  21.331  0.00  0.00    +0.000 A 
ATOM     37  C   UNL     1      10.395  13.889  20.192  0.00  0.00    +0.000 A 
ENDBRANCH  31  32
ENDBRANCH   1  31
TORSDOF 7
ENDMDL
MODEL 2
REMARK VINA RESULT:      -9.0      0.701      1.104
REMARK  Name = 
REMARK  8 active torsions:
REMARK  status: ('A' for Active; 'I' for Inactive)
REMARK    1  A    between atoms: C_1  and  C_2
REMARK    2  A    between atoms: C_2  and  N_3
REMARK    3  A    between atoms: C_2  and  C_27
REMARK    4  A    between atoms: C_12  and  C_13
REMARK    5  A    between atoms: N_15  and  C_16
REMARK    6  A    between atoms: C_16  and  C_17
REMARK    7  A    between atoms: C_17  and  C_18
REMARK    8  A    between atoms: C_18  and  O_19
REMARK                            x       y       z     vdW  Elec       q    Type
REMARK                         _______ _______ _______ _____ _____    ______ ____
ROOT
ATOM      1  N   UNL     1       9.605   9.913  19.254  0.00  0.00    +0.000 N 
ATOM      2  C   UNL     1       8.653   9.191  18.558  0.00  0.00    +0.000 C 
ATOM      3  O   UNL     1       7.891   9.721  17.757  0.00  0.00    +0.000 OA
ATOM      4  N   UNL     1       8.650   7.848  18.869  0.00  0.00    +0.000 N 
ATOM      5  C   UNL     1       7.691   6.970  18.322  0.00  0.00    +0.000 A 
ATOM      6  C   UNL     1       7.445   6.933  16.953  0.00  0.00    +0.000 A 
ATOM      7  C   UNL     1       6.494   5.995  16.536  0.00  0.00    +0.000 A 
ATOM      8  N   UNL     1       6.038   5.642  15.297  0.00  0.00    +0.000 N 
ATOM      9  N   UNL     1       5.080   4.697  15.302  0.00  0.00    +0.000 NA
ATOM     10  C   UNL     1       4.896   4.418  16.614  0.00  0.00    +0.000 A 
ATOM     11  C   UNL     1       5.791   5.194  17.427  0.00  0.00    +0.000 A 
ATOM     12  C   UNL     1       6.088   5.314  18.791  0.00  0.00    +0.000 A 
ATOM     13  N   UNL     1       7.076   6.158  19.211  0.00  0.00    +0.000 NA
ATOM     14  H   UNL     1      10.225   9.450  19.901  0.00  0.00    +0.000 HD
ATOM     15  H   UNL     1       8.880   7.618  19.823  0.00  0.00    +0.000 HD
ATOM     16  H   UNL     1       6.349   6.007  14.403  0.00  0.00    +0.000 HD
ENDROOT
BRANCH  10  17
ATOM     17  C   UNL     1       3.896   3.438  17.060  0.00  0.00    +0.000 C 
ATOM     18  O   UNL     1       2.753   3.396  16.605  0.00  0.00    +0.000 OA
ATOM     19  N   UNL     1       4.344   2.567  18.042  0.00  0.00    +0.000 N 
ATOM     20  H   UNL     1       5.312   2.697  18.325  0.00  0.00    +0.000 HD
BRANCH  19  21
ATOM     21  C   UNL     1       3.538   1.509  18.629  0.00  0.00    +0.000 C 
BRANCH  21  22
ATOM     22  C   UNL     1       3.519   1.588  20.159  0.00  0.00    +0.000 C 
BRANCH  22  23
ATOM     23  C   UNL     1       2.638   2.715  20.721  0.00  0.00    +0.000 C 
ATOM     24  C   UNL     1       1.253   2.765  20.060  0.00  0.00    +0.000 C 
ATOM     25  C   UNL     1       0.705   4.149  20.408  0.00  0.00    +0.000 C 
ATOM     26  C   UNL     1       1.925   5.025  20.692  0.00  0.00    +0.000 C 
ATOM     27  C   UNL     1       3.150   4.133  20.465  0.00  0.00    +0.000 C 
BRANCH  23  28
ATOM     28  O   UNL     1       2.481   2.536  22.130  0.00  0.00    +0.000 OA
ATOM     29  H   UNL     1       2.551   3.409  22.553  0.00  0.00    +0.000 HD
ENDBRANCH  23  28
ENDBRANCH  22  23
ENDBRANCH  21  22
ENDBRANCH  19  21
ENDBRANCH  10  17
BRANCH   1  31
ATOM     30  C   UNL     1      11.125  11.746  18.537  0.00  0.00    +0.000 C 
ATOM     31  C   UNL     1       9.733  11.351  19.048  0.00  0.00    +0.000 C 
BRANCH  31  32
ATOM     32  C   UNL     1       9.377  12.171  20.280  0.00  0.00    +0.000 A 
ATOM     33  C   UNL     1       9.696  13.539  20.306  0.00  0.00    +0.000 A 
ATOM     34  C   UNL     1       9.551  14.287  21.477  0.00  0.00    +0.000 A 
ATOM     35  C   UNL     1       9.070  13.684  22.635  0.00  0.00    +0.000 A 
ATOM     36  C   UNL     1       8.708  12.339  22.615  0.00  0.00    +0.000 A 
ATOM     37  C   UNL     1       8.849  11.588  21.445  0.00  0.00    +0.000 A 
ENDBRANCH  31  32
ENDBRANCH   1  31
TORSDOF 7
ENDMDL
MODEL 3
REMARK VINA RESULT:      -8.9      7.375      9.670
REMARK  Name = 
REMARK  8 active torsions:
REMARK  status: ('A' for Active; 'I' for Inactive)
REMARK    1  A    between atoms: C_1  and  C_2
REMARK    2  A    between atoms: C_2  and  N_3
REMARK    3  A    between atoms: C_2  and  C_27
REMARK    4  A    between atoms: C_12  and  C_13
REMARK    5  A    between atoms: N_15  and  C_16
REMARK    6  A    between atoms: C_16  and  C_17
REMARK    7  A    between atoms: C_17  and  C_18
REMARK    8  A    between atoms: C_18  and  O_19
REMARK                            x       y       z     vdW  Elec       q    Type
REMARK                         _______ _______ _______ _____ _____    ______ ____
ROOT
ATOM      1  N   UNL     1      -2.523  12.964  21.825  0.00  0.00    +0.000 N 
ATOM      2  C   UNL     1      -1.859  12.122  20.952  0.00  0.00    +0.000 C 
ATOM      3  O   UNL     1      -2.278  11.893  19.823  0.00  0.00    +0.000 OA
ATOM      4  N   UNL     1      -0.710  11.578  21.485  0.00  0.00    +0.000 N 
ATOM      5  C   UNL     1       0.052  10.630  20.772  0.00  0.00    +0.000 A 
ATOM      6  C   UNL     1       0.446  10.862  19.457  0.00  0.00    +0.000 A 
ATOM      7  C   UNL     1       1.226   9.857  18.874  0.00  0.00    +0.000 A 
ATOM      8  N   UNL     1       1.826   9.757  17.650  0.00  0.00    +0.000 N 
ATOM      9  N   UNL     1       2.483   8.602  17.442  0.00  0.00    +0.000 NA
ATOM     10  C   UNL     1       2.302   7.906  18.589  0.00  0.00    +0.000 A 
ATOM     11  C   UNL     1       1.540   8.675  19.533  0.00  0.00    +0.000 A 
ATOM     12  C   UNL     1       1.082   8.516  20.847  0.00  0.00    +0.000 A 
ATOM     13  N   UNL     1       0.396   9.522  21.466  0.00  0.00    +0.000 NA
ATOM     14  H   UNL     1      -2.151  13.142  22.745  0.00  0.00    +0.000 HD
ATOM     15  H   UNL     1      -0.734  11.384  22.473  0.00  0.00    +0.000 HD
ATOM     16  H   UNL     1       1.829  10.453  16.911  0.00  0.00    +0.000 HD
ENDROOT
BRANCH  10  17
ATOM     17  C   UNL     1       2.849   6.553  18.763  0.00  0.00    +0.000 C 
ATOM     18  O   UNL     1       3.299   6.148  19.834  0.00  0.00    +0.000 OA
ATOM     19  N   UNL     1       2.826   5.773  17.617  0.00  0.00    +0.000 N 
ATOM     20  H   UNL     1       2.418   6.219  16.800  0.00  0.00    +0.000 HD
BRANCH  19  21
ATOM     21  C   UNL     1       3.304   4.401  17.549  0.00  0.00    +0.000 C 
BRANCH  21  22
ATOM     22  C   UNL     1       2.154   3.392  17.643  0.00  0.00    +0.000 C 
BRANCH  22  23
ATOM     23  C   UNL     1       2.013   2.723  19.020  0.00  0.00    +0.000 C 
ATOM     24  C   UNL     1       1.008   3.449  19.926  0.00  0.00    +0.000 C 
ATOM     25  C   UNL     1       1.312   2.935  21.334  0.00  0.00    +0.000 C 
ATOM     26  C   UNL     1       2.764   2.458  21.303  0.00  0.00    +0.000 C 
ATOM     27  C   UNL     1       3.274   2.741  19.887  0.00  0.00    +0.000 C 
BRANCH  23  28
ATOM     28  O   UNL     1       1.600   1.367  18.848  0.00  0.00    +0.000 OA
ATOM     29  H   UNL     1       2.312   0.893  18.385  0.00  0.00    +0.000 HD
ENDBRANCH  23  28
ENDBRANCH  22  23
ENDBRANCH  21  22
ENDBRANCH  19  21
ENDBRANCH  10  17
BRANCH   1  31
ATOM     30  C   UNL     1      -3.693  15.142  21.556  0.00  0.00    +0.000 C 
ATOM     31  C   UNL     1      -3.763  13.615  21.419  0.00  0.00    +0.000 C 
BRANCH  31  32
ATOM     32  C   UNL     1      -4.990  13.081  22.143  0.00  0.00    +0.000 A 
ATOM     33  C   UNL     1      -6.107  12.679  21.391  0.00  0.00    +0.000 A 
ATOM     34  C   UNL     1      -7.313  12.352  22.016  0.00  0.00    +0.000 A 
ATOM     35  C   UNL     1      -7.418  12.407  23.403  0.00  0.00    +0.000 A 
ATOM     36  C   UNL     1      -6.308  12.761  24.167  0.00  0.00    +0.000 A 
ATOM     37  C   UNL     1      -5.099  13.086  23.544  0.00  0.00    +0.000 A 
ENDBRANCH  31  32
ENDBRANCH   1  31
TORSDOF 7
ENDMDL
MODEL 4
REMARK VINA RESULT:      -8.9      6.311      7.648
REMARK  Name = 
REMARK  8 active torsions:
REMARK  status: ('A' for Active; 'I' for Inactive)
REMARK    1  A    between atoms: C_1  and  C_2
REMARK    2  A    between atoms: C_2  and  N_3
REMARK    3  A    between atoms: C_2  and  C_27
REMARK    4  A    between atoms: C_12  and  C_13
REMARK    5  A    between atoms: N_15  and  C_16
REMARK    6  A    between atoms: C_16  and  C_17
REMARK    7  A    between atoms: C_17  and  C_18
REMARK    8  A    between atoms: C_18  and  O_19
REMARK                            x       y       z     vdW  Elec       q    Type
REMARK                         _______ _______ _______ _____ _____    ______ ____
ROOT
ATOM      1  N   UNL     1       0.290  13.231  18.670  0.00  0.00    +0.000 N 
ATOM      2  C   UNL     1       0.834  12.053  19.145  0.00  0.00    +0.000 C 
ATOM      3  O   UNL     1       1.381  11.984  20.240  0.00  0.00    +0.000 OA
ATOM      4  N   UNL     1       0.706  10.999  18.267  0.00  0.00    +0.000 N 
ATOM      5  C   UNL     1       1.277   9.739  18.544  0.00  0.00    +0.000 A 
ATOM      6  C   UNL     1       1.066   9.104  19.765  0.00  0.00    +0.000 A 
ATOM      7  C   UNL     1       1.661   7.844  19.900  0.00  0.00    +0.000 A 
ATOM      8  N   UNL     1       1.633   6.922  20.908  0.00  0.00    +0.000 N 
ATOM      9  N   UNL     1       2.367   5.818  20.677  0.00  0.00    +0.000 NA
ATOM     10  C   UNL     1       2.907   6.029  19.453  0.00  0.00    +0.000 A 
ATOM     11  C   UNL     1       2.462   7.284  18.913  0.00  0.00    +0.000 A 
ATOM     12  C   UNL     1       2.638   8.004  17.725  0.00  0.00    +0.000 A 
ATOM     13  N   UNL     1       1.994   9.193  17.536  0.00  0.00    +0.000 NA
ATOM     14  H   UNL     1      -0.162  13.259  17.769  0.00  0.00    +0.000 HD
ATOM     15  H   UNL     1       0.755  11.234  17.288  0.00  0.00    +0.000 HD
ATOM     16  H   UNL     1       1.122   6.986  21.783  0.00  0.00    +0.000 HD
ENDROOT
BRANCH  10  17
ATOM     17  C   UNL     1       3.813   5.053  18.834  0.00  0.00    +0.000 C 
ATOM     18  O   UNL     1       4.615   4.381  19.482  0.00  0.00    +0.000 OA
ATOM     19  N   UNL     1       3.697   4.956  17.455  0.00  0.00    +0.000 N 
ATOM     20  H   UNL     1       2.989   5.556  17.039  0.00  0.00    +0.000 HD
BRANCH  19  21
ATOM     21  C   UNL     1       4.480   4.053  16.628  0.00  0.00    +0.000 C 
BRANCH  21  22
ATOM     22  C   UNL     1       5.418   4.813  15.683  0.00  0.00    +0.000 C 
BRANCH  22  23
ATOM     23  C   UNL     1       6.631   5.451  16.378  0.00  0.00    +0.000 C 
ATOM     24  C   UNL     1       7.143   4.612  17.557  0.00  0.00    +0.000 C 
ATOM     25  C   UNL     1       8.024   5.567  18.361  0.00  0.00    +0.000 C 
ATOM     26  C   UNL     1       7.539   6.976  18.021  0.00  0.00    +0.000 C 
ATOM     27  C   UNL     1       6.363   6.797  17.054  0.00  0.00    +0.000 C 
BRANCH  23  28
ATOM     28  O   UNL     1       7.685   5.622  15.428  0.00  0.00    +0.000 OA
ATOM     29  H   UNL     1       7.577   6.495  15.014  0.00  0.00    +0.000 HD
ENDBRANCH  23  28
ENDBRANCH  22  23
ENDBRANCH  21  22
ENDBRANCH  19  21
ENDBRANCH  10  17
BRANCH   1  31
ATOM     30  C   UNL     1      -0.881  14.615  20.373  0.00  0.00    +0.000 C 
ATOM     31  C   UNL     1       0.351  14.447  19.474  0.00  0.00    +0.000 C 
BRANCH  31  32
ATOM     32  C   UNL     1       0.572  15.706  18.648  0.00  0.00    +0.000 A 
ATOM     33  C   UNL     1       1.885  16.116  18.363  0.00  0.00    +0.000 A 
ATOM     34  C   UNL     1       2.138  17.353  17.765  0.00  0.00    +0.000 A 
ATOM     35  C   UNL     1       1.081  18.193  17.429  0.00  0.00    +0.000 A 
ATOM     36  C   UNL     1      -0.230  17.785  17.665  0.00  0.00    +0.000 A 
ATOM     37  C   UNL     1      -0.486  16.546  18.260  0.00  0.00    +0.000 A 
ENDBRANCH  31  32
ENDBRANCH   1  31
TORSDOF 7
ENDMDL
MODEL 5
REMARK VINA RESULT:      -8.6      6.252      7.642
REMARK  Name = 
REMARK  8 active torsions:
REMARK  status: ('A' for Active; 'I' for Inactive)
REMARK    1  A    between atoms: C_1  and  C_2
REMARK    2  A    between atoms: C_2  and  N_3
REMARK    3  A    between atoms: C_2  and  C_27
REMARK    4  A    between atoms: C_12  and  C_13
REMARK    5  A    between atoms: N_15  and  C_16
REMARK    6  A    between atoms: C_16  and  C_17
REMARK    7  A    between atoms: C_17  and  C_18
REMARK    8  A    between atoms: C_18  and  O_19
REMARK                            x       y       z     vdW  Elec       q    Type
REMARK                         _______ _______ _______ _____ _____    ______ ____
ROOT
ATOM      1  N   UNL     1       0.256  13.049  18.688  0.00  0.00    +0.000 N 
ATOM      2  C   UNL     1       0.823  11.882  19.166  0.00  0.00    +0.000 C 
ATOM      3  O   UNL     1       1.326  11.812  20.282  0.00  0.00    +0.000 OA
ATOM      4  N   UNL     1       0.770  10.840  18.265  0.00  0.00    +0.000 N 
ATOM      5  C   UNL     1       1.374   9.596  18.545  0.00  0.00    +0.000 A 
ATOM      6  C   UNL     1       1.137   8.932  19.745  0.00  0.00    +0.000 A 
ATOM      7  C   UNL     1       1.770   7.692  19.884  0.00  0.00    +0.000 A 
ATOM      8  N   UNL     1       1.735   6.752  20.874  0.00  0.00    +0.000 N 
ATOM      9  N   UNL     1       2.517   5.679  20.655  0.00  0.00    +0.000 NA
ATOM     10  C   UNL     1       3.099   5.932  19.460  0.00  0.00    +0.000 A 
ATOM     11  C   UNL     1       2.632   7.179  18.922  0.00  0.00    +0.000 A 
ATOM     12  C   UNL     1       2.831   7.926  17.755  0.00  0.00    +0.000 A 
ATOM     13  N   UNL     1       2.152   9.096  17.559  0.00  0.00    +0.000 NA
ATOM     14  H   UNL     1      -0.158  13.076  17.769  0.00  0.00    +0.000 HD
ATOM     15  H   UNL     1       0.851  11.095  17.294  0.00  0.00    +0.000 HD
ATOM     16  H   UNL     1       1.185   6.781  21.727  0.00  0.00    +0.000 HD
ENDROOT
BRANCH  10  17
ATOM     17  C   UNL     1       4.065   5.000  18.862  0.00  0.00    +0.000 C 
ATOM     18  O   UNL     1       3.752   3.878  18.464  0.00  0.00    +0.000 OA
ATOM     19  N   UNL     1       5.363   5.484  18.791  0.00  0.00    +0.000 N 
ATOM     20  H   UNL     1       5.489   6.430  19.142  0.00  0.00    +0.000 HD
BRANCH  19  21
ATOM     21  C   UNL     1       6.484   4.747  18.232  0.00  0.00    +0.000 C 
BRANCH  21  22
ATOM     22  C   UNL     1       7.145   5.505  17.075  0.00  0.00    +0.000 C 
BRANCH  22  23
ATOM     23  C   UNL     1       6.480   5.276  15.709  0.00  0.00    +0.000 C 
ATOM     24  C   UNL     1       5.801   3.902  15.608  0.00  0.00    +0.000 C 
ATOM     25  C   UNL     1       5.589   3.683  14.110  0.00  0.00    +0.000 C 
ATOM     26  C   UNL     1       6.626   4.557  13.405  0.00  0.00    +0.000 C 
ATOM     27  C   UNL     1       7.436   5.233  14.516  0.00  0.00    +0.000 C 
BRANCH  23  28
ATOM     28  O   UNL     1       5.510   6.299  15.477  0.00  0.00    +0.000 OA
ATOM     29  H   UNL     1       5.984   7.141  15.365  0.00  0.00    +0.000 HD
ENDBRANCH  23  28
ENDBRANCH  22  23
ENDBRANCH  21  22
ENDBRANCH  19  21
ENDBRANCH  10  17
BRANCH   1  31
ATOM     30  C   UNL     1      -1.077  14.411  20.286  0.00  0.00    +0.000 C 
ATOM     31  C   UNL     1       0.240  14.251  19.515  0.00  0.00    +0.000 C 
BRANCH  31  32
ATOM     32  C   UNL     1       0.547  15.522  18.737  0.00  0.00    +0.000 A 
ATOM     33  C   UNL     1       1.885  15.837  18.444  0.00  0.00    +0.000 A 
ATOM     34  C   UNL     1       2.227  17.075  17.893  0.00  0.00    +0.000 A 
ATOM     35  C   UNL     1       1.236  18.010  17.611  0.00  0.00    +0.000 A 
ATOM     36  C   UNL     1      -0.100  17.697  17.854  0.00  0.00    +0.000 A 
ATOM     37  C   UNL     1      -0.445  16.459  18.403  0.00  0.00    +0.000 A 
ENDBRANCH  31  32
ENDBRANCH   1  31
TORSDOF 7
ENDMDL
MODEL 6
REMARK VINA RESULT:      -8.6      5.552      6.924
REMARK  Name = 
REMARK  8 active torsions:
REMARK  status: ('A' for Active; 'I' for Inactive)
REMARK    1  A    between atoms: C_1  and  C_2
REMARK    2  A    between atoms: C_2  and  N_3
REMARK    3  A    between atoms: C_2  and  C_27
REMARK    4  A    between atoms: C_12  and  C_13
REMARK    5  A    between atoms: N_15  and  C_16
REMARK    6  A    between atoms: C_16  and  C_17
REMARK    7  A    between atoms: C_17  and  C_18
REMARK    8  A    between atoms: C_18  and  O_19
REMARK                            x       y       z     vdW  Elec       q    Type
REMARK                         _______ _______ _______ _____ _____    ______ ____
ROOT
ATOM      1  N   UNL     1       0.712  13.645  18.592  0.00  0.00    +0.000 N 
ATOM      2  C   UNL     1       1.130  12.428  19.097  0.00  0.00    +0.000 C 
ATOM      3  O   UNL     1       1.619  12.322  20.217  0.00  0.00    +0.000 OA
ATOM      4  N   UNL     1       0.951  11.381  18.219  0.00  0.00    +0.000 N 
ATOM      5  C   UNL     1       1.398  10.079  18.529  0.00  0.00    +0.000 A 
ATOM      6  C   UNL     1       1.079   9.476  19.742  0.00  0.00    +0.000 A 
ATOM      7  C   UNL     1       1.556   8.171  19.911  0.00  0.00    +0.000 A 
ATOM      8  N   UNL     1       1.404   7.264  20.921  0.00  0.00    +0.000 N 
ATOM      9  N   UNL     1       2.049   6.099  20.729  0.00  0.00    +0.000 NA
ATOM     10  C   UNL     1       2.660   6.252  19.530  0.00  0.00    +0.000 A 
ATOM     11  C   UNL     1       2.350   7.535  18.964  0.00  0.00    +0.000 A 
ATOM     12  C   UNL     1       2.640   8.226  17.781  0.00  0.00    +0.000 A 
ATOM     13  N   UNL     1       2.110   9.465  17.557  0.00  0.00    +0.000 NA
ATOM     14  H   UNL     1       0.305  13.703  17.670  0.00  0.00    +0.000 HD
ATOM     15  H   UNL     1       1.064  11.602  17.243  0.00  0.00    +0.000 HD
ATOM     16  H   UNL     1       0.861   7.380  21.771  0.00  0.00    +0.000 HD
ENDROOT
BRANCH  10  17
ATOM     17  C   UNL     1       3.505   5.196  18.957  0.00  0.00    +0.000 C 
ATOM     18  O   UNL     1       4.130   4.392  19.649  0.00  0.00    +0.000 OA
ATOM     19  N   UNL     1       3.549   5.184  17.571  0.00  0.00    +0.000 N 
ATOM     20  H   UNL     1       2.980   5.892  17.116  0.00  0.00    +0.000 HD
BRANCH  19  21
ATOM     21  C   UNL     1       4.309   4.227  16.783  0.00  0.00    +0.000 C 
BRANCH  21  22
ATOM     22  C   UNL     1       5.289   4.921  15.832  0.00  0.00    +0.000 C 
BRANCH  22  23
ATOM     23  C   UNL     1       6.561   5.451  16.513  0.00  0.00    +0.000 C 
ATOM     24  C   UNL     1       6.985   4.593  17.715  0.00  0.00    +0.000 C 
ATOM     25  C   UNL     1       7.959   5.475  18.497  0.00  0.00    +0.000 C 
ATOM     26  C   UNL     1       7.619   6.916  18.120  0.00  0.00    +0.000 C 
ATOM     27  C   UNL     1       6.431   6.833  17.155  0.00  0.00    +0.000 C 
BRANCH  23  28
ATOM     28  O   UNL     1       7.626   5.489  15.562  0.00  0.00    +0.000 OA
ATOM     29  H   UNL     1       8.138   6.302  15.718  0.00  0.00    +0.000 HD
ENDBRANCH  23  28
ENDBRANCH  22  23
ENDBRANCH  21  22
ENDBRANCH  19  21
ENDBRANCH  10  17
BRANCH   1  31
ATOM     30  C   UNL     1      -0.212  15.913  19.027  0.00  0.00    +0.000 C 
ATOM     31  C   UNL     1       0.841  14.858  19.391  0.00  0.00    +0.000 C 
BRANCH  31  32
ATOM     32  C   UNL     1       2.233  15.470  19.338  0.00  0.00    +0.000 A 
ATOM     33  C   UNL     1       2.777  16.034  20.505  0.00  0.00    +0.000 A 
ATOM     34  C   UNL     1       3.969  16.761  20.463  0.00  0.00    +0.000 A 
ATOM     35  C   UNL     1       4.645  16.923  19.257  0.00  0.00    +0.000 A 
ATOM     36  C   UNL     1       4.143  16.334  18.098  0.00  0.00    +0.000 A 
ATOM     37  C   UNL     1       2.952  15.603  18.138  0.00  0.00    +0.000 A 
ENDBRANCH  31  32
ENDBRANCH   1  31
TORSDOF 7
ENDMDL
MODEL 7
REMARK VINA RESULT:      -8.4      7.448      9.696
REMARK  Name = 
REMARK  8 active torsions:
REMARK  status: ('A' for Active; 'I' for Inactive)
REMARK    1  A    between atoms: C_1  and  C_2
REMARK    2  A    between atoms: C_2  and  N_3
REMARK    3  A    between atoms: C_2  and  C_27
REMARK    4  A    between atoms: C_12  and  C_13
REMARK    5  A    between atoms: N_15  and  C_16
REMARK    6  A    between atoms: C_16  and  C_17
REMARK    7  A    between atoms: C_17  and  C_18
REMARK    8  A    between atoms: C_18  and  O_19
REMARK                            x       y       z     vdW  Elec       q    Type
REMARK                         _______ _______ _______ _____ _____    ______ ____
ROOT
ATOM      1  N   UNL     1      -2.310  13.506  21.906  0.00  0.00    +0.000 N 
ATOM      2  C   UNL     1      -1.751  12.463  21.192  0.00  0.00    +0.000 C 
ATOM      3  O   UNL     1      -2.295  11.986  20.201  0.00  0.00    +0.000 OA
ATOM      4  N   UNL     1      -0.552  12.024  21.712  0.00  0.00    +0.000 N 
ATOM      5  C   UNL     1       0.122  10.912  21.166  0.00  0.00    +0.000 A 
ATOM      6  C   UNL     1       0.367  10.816  19.799  0.00  0.00    +0.000 A 
ATOM      7  C   UNL     1       1.073   9.679  19.390  0.00  0.00    +0.000 A 
ATOM      8  N   UNL     1       1.531   9.275  18.168  0.00  0.00    +0.000 N 
ATOM      9  N   UNL     1       2.157   8.084  18.171  0.00  0.00    +0.000 NA
ATOM     10  C   UNL     1       2.102   7.684  19.463  0.00  0.00    +0.000 A 
ATOM     11  C   UNL     1       1.454   8.676  20.274  0.00  0.00    +0.000 A 
ATOM     12  C   UNL     1       1.146   8.845  21.629  0.00  0.00    +0.000 A 
ATOM     13  N   UNL     1       0.537   9.989  22.062  0.00  0.00    +0.000 NA
ATOM     14  H   UNL     1      -1.836  13.884  22.712  0.00  0.00    +0.000 HD
ATOM     15  H   UNL     1      -0.466  12.069  22.714  0.00  0.00    +0.000 HD
ATOM     16  H   UNL     1       1.454   9.776  17.289  0.00  0.00    +0.000 HD
ENDROOT
BRANCH  10  17
ATOM     17  C   UNL     1       2.661   6.394  19.893  0.00  0.00    +0.000 C 
ATOM     18  O   UNL     1       3.783   6.010  19.564  0.00  0.00    +0.000 OA
ATOM     19  N   UNL     1       1.815   5.640  20.692  0.00  0.00    +0.000 N 
ATOM     20  H   UNL     1       0.920   6.074  20.901  0.00  0.00    +0.000 HD
BRANCH  19  21
ATOM     21  C   UNL     1       2.153   4.338  21.244  0.00  0.00    +0.000 C 
BRANCH  21  22
ATOM     22  C   UNL     1       1.315   3.218  20.619  0.00  0.00    +0.000 C 
BRANCH  22  23
ATOM     23  C   UNL     1       1.868   2.684  19.288  0.00  0.00    +0.000 C 
ATOM     24  C   UNL     1       3.399   2.566  19.293  0.00  0.00    +0.000 C 
ATOM     25  C   UNL     1       3.784   2.448  17.818  0.00  0.00    +0.000 C 
ATOM     26  C   UNL     1       2.638   3.084  17.032  0.00  0.00    +0.000 C 
ATOM     27  C   UNL     1       1.635   3.586  18.076  0.00  0.00    +0.000 C 
BRANCH  23  28
ATOM     28  O   UNL     1       1.296   1.403  19.019  0.00  0.00    +0.000 OA
ATOM     29  H   UNL     1       0.962   1.410  18.105  0.00  0.00    +0.000 HD
ENDBRANCH  23  28
ENDBRANCH  22  23
ENDBRANCH  21  22
ENDBRANCH  19  21
ENDBRANCH  10  17
BRANCH   1  31
ATOM     30  C   UNL     1      -3.658  15.590  21.757  0.00  0.00    +0.000 C 
ATOM     31  C   UNL     1      -3.585  14.080  21.494  0.00  0.00    +0.000 C 
BRANCH  31  32
ATOM     32  C   UNL     1      -4.789  13.383  22.111  0.00  0.00    +0.000 A 
ATOM     33  C   UNL     1      -5.786  12.865  21.268  0.00  0.00    +0.000 A 
ATOM     34  C   UNL     1      -6.987  12.378  21.790  0.00  0.00    +0.000 A 
ATOM     35  C   UNL     1      -7.204  12.388  23.165  0.00  0.00    +0.000 A 
ATOM     36  C   UNL     1      -6.209  12.858  24.019  0.00  0.00    +0.000 A 
ATOM     37  C   UNL     1      -5.005  13.343  23.499  0.00  0.00    +0.000 A 
ENDBRANCH  31  32
ENDBRANCH   1  31
TORSDOF 7
ENDMDL
MODEL 8
REMARK VINA RESULT:      -8.4      7.718     10.089
REMARK  Name = 
REMARK  8 active torsions:
REMARK  status: ('A' for Active; 'I' for Inactive)
REMARK    1  A    between atoms: C_1  and  C_2
REMARK    2  A    between atoms: C_2  and  N_3
REMARK    3  A    between atoms: C_2  and  C_27
REMARK    4  A    between atoms: C_12  and  C_13
REMARK    5  A    between atoms: N_15  and  C_16
REMARK    6  A    between atoms: C_16  and  C_17
REMARK    7  A    between atoms: C_17  and  C_18
REMARK    8  A    between atoms: C_18  and  O_19
REMARK                            x       y       z     vdW  Elec       q    Type
REMARK                         _______ _______ _______ _____ _____    ______ ____
ROOT
ATOM      1  N   UNL     1      -3.048  13.482  21.644  0.00  0.00    +0.000 N 
ATOM      2  C   UNL     1      -2.360  12.538  20.906  0.00  0.00    +0.000 C 
ATOM      3  O   UNL     1      -2.774  12.127  19.827  0.00  0.00    +0.000 OA
ATOM      4  N   UNL     1      -1.195  12.116  21.508  0.00  0.00    +0.000 N 
ATOM      5  C   UNL     1      -0.404  11.094  20.943  0.00  0.00    +0.000 A 
ATOM      6  C   UNL     1      -0.020  11.135  19.606  0.00  0.00    +0.000 A 
ATOM      7  C   UNL     1       0.791  10.077  19.178  0.00  0.00    +0.000 A 
ATOM      8  N   UNL     1       1.391   9.810  17.980  0.00  0.00    +0.000 N 
ATOM      9  N   UNL     1       2.083   8.656  17.946  0.00  0.00    +0.000 NA
ATOM     10  C   UNL     1       1.925   8.138  19.187  0.00  0.00    +0.000 A 
ATOM     11  C   UNL     1       1.141   9.019  20.008  0.00  0.00    +0.000 A 
ATOM     12  C   UNL     1       0.691   9.048  21.333  0.00  0.00    +0.000 A 
ATOM     13  N   UNL     1      -0.025  10.115  21.796  0.00  0.00    +0.000 NA
ATOM     14  H   UNL     1      -2.681  13.809  22.524  0.00  0.00    +0.000 HD
ATOM     15  H   UNL     1      -1.211  12.074  22.515  0.00  0.00    +0.000 HD
ATOM     16  H   UNL     1       1.371  10.384  17.144  0.00  0.00    +0.000 HD
ENDROOT
BRANCH  10  17
ATOM     17  C   UNL     1       2.515   6.846  19.562  0.00  0.00    +0.000 C 
ATOM     18  O   UNL     1       3.562   6.422  19.072  0.00  0.00    +0.000 OA
ATOM     19  N   UNL     1       1.789   6.135  20.506  0.00  0.00    +0.000 N 
ATOM     20  H   UNL     1       0.948   6.599  20.840  0.00  0.00    +0.000 HD
BRANCH  19  21
ATOM     21  C   UNL     1       2.180   4.839  21.036  0.00  0.00    +0.000 C 
BRANCH  21  22
ATOM     22  C   UNL     1       1.316   3.707  20.469  0.00  0.00    +0.000 C 
BRANCH  22  23
ATOM     23  C   UNL     1       1.913   3.019  19.230  0.00  0.00    +0.000 C 
ATOM     24  C   UNL     1       3.446   2.962  19.270  0.00  0.00    +0.000 C 
ATOM     25  C   UNL     1       3.862   2.661  17.830  0.00  0.00    +0.000 C 
ATOM     26  C   UNL     1       2.708   3.139  16.950  0.00  0.00    +0.000 C 
ATOM     27  C   UNL     1       1.668   3.738  17.903  0.00  0.00    +0.000 C 
BRANCH  23  28
ATOM     28  O   UNL     1       1.394   1.692  19.130  0.00  0.00    +0.000 OA
ATOM     29  H   UNL     1       1.904   1.221  18.450  0.00  0.00    +0.000 HD
ENDBRANCH  23  28
ENDBRANCH  22  23
ENDBRANCH  21  22
ENDBRANCH  19  21
ENDBRANCH  10  17
BRANCH   1  31
ATOM     30  C   UNL     1      -4.343  15.559  21.202  0.00  0.00    +0.000 C 
ATOM     31  C   UNL     1      -4.309  14.026  21.151  0.00  0.00    +0.000 C 
BRANCH  31  32
ATOM     32  C   UNL     1      -5.530  13.452  21.856  0.00  0.00    +0.000 A 
ATOM     33  C   UNL     1      -5.638  13.582  23.251  0.00  0.00    +0.000 A 
ATOM     34  C   UNL     1      -6.646  12.920  23.957  0.00  0.00    +0.000 A 
ATOM     35  C   UNL     1      -7.569  12.130  23.279  0.00  0.00    +0.000 A 
ATOM     36  C   UNL     1      -7.503  12.024  21.892  0.00  0.00    +0.000 A 
ATOM     37  C   UNL     1      -6.498  12.688  21.182  0.00  0.00    +0.000 A 
ENDBRANCH  31  32
ENDBRANCH   1  31
TORSDOF 7
ENDMDL
MODEL 9
REMARK VINA RESULT:      -8.2      7.153      9.580
REMARK  Name = 
REMARK  8 active torsions:
REMARK  status: ('A' for Active; 'I' for Inactive)
REMARK    1  A    between atoms: C_1  and  C_2
REMARK    2  A    between atoms: C_2  and  N_3
REMARK    3  A    between atoms: C_2  and  C_27
REMARK    4  A    between atoms: C_12  and  C_13
REMARK    5  A    between atoms: N_15  and  C_16
REMARK    6  A    between atoms: C_16  and  C_17
REMARK    7  A    between atoms: C_17  and  C_18
REMARK    8  A    between atoms: C_18  and  O_19
REMARK                            x       y       z     vdW  Elec       q    Type
REMARK                         _______ _______ _______ _____ _____    ______ ____
ROOT
ATOM      1  N   UNL     1      -1.661  13.046  22.222  0.00  0.00    +0.000 N 
ATOM      2  C   UNL     1      -1.176  12.175  21.265  0.00  0.00    +0.000 C 
ATOM      3  O   UNL     1      -1.724  12.032  20.177  0.00  0.00    +0.000 OA
ATOM      4  N   UNL     1      -0.045  11.497  21.666  0.00  0.00    +0.000 N 
ATOM      5  C   UNL     1       0.542  10.503  20.854  0.00  0.00    +0.000 A 
ATOM      6  C   UNL     1       0.829  10.743  19.513  0.00  0.00    +0.000 A 
ATOM      7  C   UNL     1       1.440   9.687  18.829  0.00  0.00    +0.000 A 
ATOM      8  N   UNL     1       1.905   9.572  17.549  0.00  0.00    +0.000 N 
ATOM      9  N   UNL     1       2.414   8.364  17.245  0.00  0.00    +0.000 NA
ATOM     10  C   UNL     1       2.273   7.648  18.386  0.00  0.00    +0.000 A 
ATOM     11  C   UNL     1       1.690   8.455  19.421  0.00  0.00    +0.000 A 
ATOM     12  C   UNL     1       1.347   8.294  20.770  0.00  0.00    +0.000 A 
ATOM     13  N   UNL     1       0.833   9.341  21.481  0.00  0.00    +0.000 NA
ATOM     14  H   UNL     1      -1.185  13.151  23.105  0.00  0.00    +0.000 HD
ATOM     15  H   UNL     1       0.006  11.270  22.646  0.00  0.00    +0.000 HD
ATOM     16  H   UNL     1       1.910  10.290  16.832  0.00  0.00    +0.000 HD
ENDROOT
BRANCH  10  17
ATOM     17  C   UNL     1       2.689   6.241  18.467  0.00  0.00    +0.000 C 
ATOM     18  O   UNL     1       2.137   5.423  19.202  0.00  0.00    +0.000 OA
ATOM     19  N   UNL     1       3.764   5.912  17.655  0.00  0.00    +0.000 N 
ATOM     20  H   UNL     1       4.124   6.675  17.087  0.00  0.00    +0.000 HD
BRANCH  19  21
ATOM     21  C   UNL     1       4.344   4.582  17.561  0.00  0.00    +0.000 C 
BRANCH  21  22
ATOM     22  C   UNL     1       5.625   4.577  16.720  0.00  0.00    +0.000 C 
BRANCH  22  23
ATOM     23  C   UNL     1       6.867   5.100  17.460  0.00  0.00    +0.000 C 
ATOM     24  C   UNL     1       6.728   5.001  18.986  0.00  0.00    +0.000 C 
ATOM     25  C   UNL     1       7.813   5.926  19.537  0.00  0.00    +0.000 C 
ATOM     26  C   UNL     1       8.106   6.937  18.428  0.00  0.00    +0.000 C 
ATOM     27  C   UNL     1       7.157   6.591  17.276  0.00  0.00    +0.000 C 
BRANCH  23  28
ATOM     28  O   UNL     1       8.014   4.359  17.042  0.00  0.00    +0.000 OA
ATOM     29  H   UNL     1       8.805   4.810  17.385  0.00  0.00    +0.000 HD
ENDBRANCH  23  28
ENDBRANCH  22  23
ENDBRANCH  21  22
ENDBRANCH  19  21
ENDBRANCH  10  17
BRANCH   1  31
ATOM     30  C   UNL     1      -2.598  15.344  22.053  0.00  0.00    +0.000 C 
ATOM     31  C   UNL     1      -2.859  13.835  21.959  0.00  0.00    +0.000 C 
BRANCH  31  32
ATOM     32  C   UNL     1      -4.038  13.453  22.842  0.00  0.00    +0.000 A 
ATOM     33  C   UNL     1      -3.800  12.742  24.031  0.00  0.00    +0.000 A 
ATOM     34  C   UNL     1      -4.858  12.218  24.778  0.00  0.00    +0.000 A 
ATOM     35  C   UNL     1      -6.170  12.407  24.356  0.00  0.00    +0.000 A 
ATOM     36  C   UNL     1      -6.427  13.146  23.203  0.00  0.00    +0.000 A 
ATOM     37  C   UNL     1      -5.371  13.674  22.455  0.00  0.00    +0.000 A 
ENDBRANCH  31  32
ENDBRANCH   1  31
TORSDOF 7
ENDMDL
