MODEL 1
REMARK VINA RESULT:      -8.4      0.000      0.000
REMARK  Name = 
REMARK  9 active torsions:
REMARK  status: ('A' for Active; 'I' for Inactive)
REMARK    1  A    between atoms: C_1  and  C_2
REMARK    2  A    between atoms: N_4  and  C_5
REMARK    3  A    between atoms: C_8  and  C_9
REMARK    4  A    between atoms: C_12  and  C_13
REMARK    5  A    between atoms: N_15  and  C_16
REMARK    6  A    between atoms: C_16  and  C_17
REMARK    7  A    between atoms: C_17  and  N_18
REMARK    8  A    between atoms: N_18  and  C_19
REMARK    9  A    between atoms: N_18  and  C_20
REMARK                            x       y       z     vdW  Elec       q    Type
REMARK                         _______ _______ _______ _____ _____    ______ ____
ROOT
ATOM      1  C   UNL     1       2.169   6.500  19.942  0.00  0.00    +0.000 A 
ATOM      2  N   UNL     1       3.146   5.822  19.323  0.00  0.00    +0.000 NA
ATOM      3  C   UNL     1       3.189   4.642  19.912  0.00  0.00    +0.000 A 
ATOM      4  C   UNL     1       4.039   3.596  19.561  0.00  0.00    +0.000 A 
ATOM      5  C   UNL     1       3.906   2.417  20.329  0.00  0.00    +0.000 A 
ATOM      6  C   UNL     1       2.963   2.348  21.388  0.00  0.00    +0.000 A 
ATOM      7  C   UNL     1       2.121   3.447  21.690  0.00  0.00    +0.000 A 
ATOM      8  C   UNL     1       2.260   4.594  20.908  0.00  0.00    +0.000 A 
ATOM      9  N   UNL     1       1.585   5.771  20.938  0.00  0.00    +0.000 N 
ATOM     10  H   UNL     1       0.805   6.049  21.574  0.00  0.00    +0.000 HD
ENDROOT
BRANCH   1  14
ATOM     11  C   UNL     1       1.335  10.537  18.787  0.00  0.00    +0.000 A 
ATOM     12  C   UNL     1       1.944   9.692  17.838  0.00  0.00    +0.000 A 
ATOM     13  C   UNL     1       2.177   8.331  18.141  0.00  0.00    +0.000 A 
ATOM     14  C   UNL     1       1.849   7.844  19.420  0.00  0.00    +0.000 A 
ATOM     15  C   UNL     1       1.250   8.718  20.347  0.00  0.00    +0.000 A 
ATOM     16  C   UNL     1       0.993  10.029  20.035  0.00  0.00    +0.000 A 
BRANCH  11  20
ATOM     17  C   UNL     1      -1.365  11.622  18.231  0.00  0.00    +0.000 C 
ATOM     18  C   UNL     1      -0.122  12.467  18.393  0.00  0.00    +0.000 C 
ATOM     19  O   UNL     1      -0.233  13.678  18.303  0.00  0.00    +0.000 OA
ATOM     20  N   UNL     1       1.121  11.919  18.535  0.00  0.00    +0.000 N 
ATOM     21  H   UNL     1       1.949  12.531  18.469  0.00  0.00    +0.000 HD
ENDBRANCH  11  20
ENDBRANCH   1  14
BRANCH   4  22
ATOM     22  C   UNL     1       4.999   3.794  18.418  0.00  0.00    +0.000 C 
ATOM     23  O   UNL     1       4.658   3.459  17.292  0.00  0.00    +0.000 OA
ATOM     24  N   UNL     1       6.237   4.333  18.597  0.00  0.00    +0.000 N 
ATOM     25  H   UNL     1       6.543   4.618  19.530  0.00  0.00    +0.000 HD
BRANCH  24  26
ATOM     26  C   UNL     1       7.165   4.534  17.498  0.00  0.00    +0.000 C 
BRANCH  26  27
ATOM     27  C   UNL     1       7.133   6.003  17.071  0.00  0.00    +0.000 C 
BRANCH  27  28
ATOM     28  N   UNL     1       6.510   6.214  15.746  0.00  0.00    +0.000 NA
ATOM     29  C   UNL     1       6.577   5.002  14.908  0.00  0.00    +0.000 C 
ATOM     30  C   UNL     1       5.099   6.589  15.937  0.00  0.00    +0.000 C 
ENDBRANCH  27  28
ENDBRANCH  26  27
ENDBRANCH  24  26
ENDBRANCH   4  22
TORSDOF 6
ENDMDL
MODEL 2
REMARK VINA RESULT:      -8.0      0.902      1.136
REMARK  Name = 
REMARK  9 active torsions:
REMARK  status: ('A' for Active; 'I' for Inactive)
REMARK    1  A    between atoms: C_1  and  C_2
REMARK    2  A    between atoms: N_4  and  C_5
REMARK    3  A    between atoms: C_8  and  C_9
REMARK    4  A    between atoms: C_12  and  C_13
REMARK    5  A    between atoms: N_15  and  C_16
REMARK    6  A    between atoms: C_16  and  C_17
REMARK    7  A    between atoms: C_17  and  N_18
REMARK    8  A    between atoms: N_18  and  C_19
REMARK    9  A    between atoms: N_18  and  C_20
REMARK                            x       y       z     vdW  Elec       q    Type
REMARK                         _______ _______ _______ _____ _____    ______ ____
ROOT
ATOM      1  C   UNL     1       2.042   6.608  19.939  0.00  0.00    +0.000 A 
ATOM      2  N   UNL     1       3.134   6.013  19.440  0.00  0.00    +0.000 NA
ATOM      3  C   UNL     1       3.152   4.802  19.966  0.00  0.00    +0.000 A 
ATOM      4  C   UNL     1       4.099   3.818  19.693  0.00  0.00    +0.000 A 
ATOM      5  C   UNL     1       3.917   2.591  20.370  0.00  0.00    +0.000 A 
ATOM      6  C   UNL     1       2.832   2.417  21.269  0.00  0.00    +0.000 A 
ATOM      7  C   UNL     1       1.898   3.457  21.498  0.00  0.00    +0.000 A 
ATOM      8  C   UNL     1       2.090   4.654  20.807  0.00  0.00    +0.000 A 
ATOM      9  N   UNL     1       1.356   5.796  20.796  0.00  0.00    +0.000 N 
ATOM     10  H   UNL     1       0.477   6.000  21.321  0.00  0.00    +0.000 HD
ENDROOT
BRANCH   1  14
ATOM     11  C   UNL     1       1.233  10.675  18.871  0.00  0.00    +0.000 A 
ATOM     12  C   UNL     1       1.849   9.849  17.909  0.00  0.00    +0.000 A 
ATOM     13  C   UNL     1       2.075   8.482  18.182  0.00  0.00    +0.000 A 
ATOM     14  C   UNL     1       1.732   7.965  19.446  0.00  0.00    +0.000 A 
ATOM     15  C   UNL     1       1.126   8.819  20.387  0.00  0.00    +0.000 A 
ATOM     16  C   UNL     1       0.876  10.137  20.103  0.00  0.00    +0.000 A 
BRANCH  11  20
ATOM     17  C   UNL     1      -1.420  11.756  18.118  0.00  0.00    +0.000 C 
ATOM     18  C   UNL     1      -0.206  12.605  18.418  0.00  0.00    +0.000 C 
ATOM     19  O   UNL     1      -0.323  13.817  18.361  0.00  0.00    +0.000 OA
ATOM     20  N   UNL     1       1.026  12.062  18.651  0.00  0.00    +0.000 N 
ATOM     21  H   UNL     1       1.850  12.683  18.679  0.00  0.00    +0.000 HD
ENDBRANCH  11  20
ENDBRANCH   1  14
BRANCH   4  22
ATOM     22  C   UNL     1       5.206   4.127  18.719  0.00  0.00    +0.000 C 
ATOM     23  O   UNL     1       5.044   3.864  17.536  0.00  0.00    +0.000 OA
ATOM     24  N   UNL     1       6.382   4.689  19.115  0.00  0.00    +0.000 N 
ATOM     25  H   UNL     1       6.538   4.914  20.100  0.00  0.00    +0.000 HD
BRANCH  24  26
ATOM     26  C   UNL     1       7.450   4.995  18.180  0.00  0.00    +0.000 C 
BRANCH  26  27
ATOM     27  C   UNL     1       7.908   6.440  18.392  0.00  0.00    +0.000 C 
BRANCH  27  28
ATOM     28  N   UNL     1       7.521   7.344  17.287  0.00  0.00    +0.000 NA
ATOM     29  C   UNL     1       6.075   7.277  17.002  0.00  0.00    +0.000 C 
ATOM     30  C   UNL     1       7.875   8.725  17.656  0.00  0.00    +0.000 C 
ENDBRANCH  27  28
ENDBRANCH  26  27
ENDBRANCH  24  26
ENDBRANCH   4  22
TORSDOF 6
ENDMDL
MODEL 3
REMARK VINA RESULT:      -7.9      0.947      1.520
REMARK  Name = 
REMARK  9 active torsions:
REMARK  status: ('A' for Active; 'I' for Inactive)
REMARK    1  A    between atoms: C_1  and  C_2
REMARK    2  A    between atoms: N_4  and  C_5
REMARK    3  A    between atoms: C_8  and  C_9
REMARK    4  A    between atoms: C_12  and  C_13
REMARK    5  A    between atoms: N_15  and  C_16
REMARK    6  A    between atoms: C_16  and  C_17
REMARK    7  A    between atoms: C_17  and  N_18
REMARK    8  A    between atoms: N_18  and  C_19
REMARK    9  A    between atoms: N_18  and  C_20
REMARK                            x       y       z     vdW  Elec       q    Type
REMARK                         _______ _______ _______ _____ _____    ______ ____
ROOT
ATOM      1  C   UNL     1       2.138   6.319  20.058  0.00  0.00    +0.000 A 
ATOM      2  N   UNL     1       3.355   5.887  19.698  0.00  0.00    +0.000 NA
ATOM      3  C   UNL     1       3.360   4.590  19.945  0.00  0.00    +0.000 A 
ATOM      4  C   UNL     1       4.419   3.724  19.684  0.00  0.00    +0.000 A 
ATOM      5  C   UNL     1       4.199   2.371  20.026  0.00  0.00    +0.000 A 
ATOM      6  C   UNL     1       2.967   1.963  20.604  0.00  0.00    +0.000 A 
ATOM      7  C   UNL     1       1.925   2.894  20.836  0.00  0.00    +0.000 A 
ATOM      8  C   UNL     1       2.161   4.222  20.477  0.00  0.00    +0.000 A 
ATOM      9  N   UNL     1       1.356   5.312  20.548  0.00  0.00    +0.000 N 
ATOM     10  H   UNL     1       0.373   5.365  20.896  0.00  0.00    +0.000 HD
ENDROOT
BRANCH   1  14
ATOM     11  C   UNL     1       1.118  10.335  18.979  0.00  0.00    +0.000 A 
ATOM     12  C   UNL     1       0.882   9.928  20.308  0.00  0.00    +0.000 A 
ATOM     13  C   UNL     1       1.264   8.637  20.737  0.00  0.00    +0.000 A 
ATOM     14  C   UNL     1       1.830   7.742  19.810  0.00  0.00    +0.000 A 
ATOM     15  C   UNL     1       2.044   8.178  18.488  0.00  0.00    +0.000 A 
ATOM     16  C   UNL     1       1.704   9.444  18.086  0.00  0.00    +0.000 A 
BRANCH  11  20
ATOM     17  C   UNL     1      -1.697  10.903  18.254  0.00  0.00    +0.000 C 
ATOM     18  C   UNL     1      -0.594  11.936  18.268  0.00  0.00    +0.000 C 
ATOM     19  O   UNL     1      -0.878  13.085  17.975  0.00  0.00    +0.000 OA
ATOM     20  N   UNL     1       0.712  11.608  18.499  0.00  0.00    +0.000 N 
ATOM     21  H   UNL     1       1.444  12.315  18.328  0.00  0.00    +0.000 HD
ENDBRANCH  11  20
ENDBRANCH   1  14
BRANCH   4  22
ATOM     22  C   UNL     1       5.676   4.279  19.070  0.00  0.00    +0.000 C 
ATOM     23  O   UNL     1       6.399   4.998  19.746  0.00  0.00    +0.000 OA
ATOM     24  N   UNL     1       6.035   4.007  17.784  0.00  0.00    +0.000 N 
ATOM     25  H   UNL     1       5.445   3.410  17.201  0.00  0.00    +0.000 HD
BRANCH  24  26
ATOM     26  C   UNL     1       7.251   4.534  17.188  0.00  0.00    +0.000 C 
BRANCH  26  27
ATOM     27  C   UNL     1       6.889   5.382  15.967  0.00  0.00    +0.000 C 
BRANCH  27  28
ATOM     28  N   UNL     1       6.548   6.780  16.307  0.00  0.00    +0.000 NA
ATOM     29  C   UNL     1       5.131   6.923  16.691  0.00  0.00    +0.000 C 
ATOM     30  C   UNL     1       7.397   7.219  17.427  0.00  0.00    +0.000 C 
ENDBRANCH  27  28
ENDBRANCH  26  27
ENDBRANCH  24  26
ENDBRANCH   4  22
TORSDOF 6
ENDMDL
MODEL 4
REMARK VINA RESULT:      -7.8      1.272      1.843
REMARK  Name = 
REMARK  9 active torsions:
REMARK  status: ('A' for Active; 'I' for Inactive)
REMARK    1  A    between atoms: C_1  and  C_2
REMARK    2  A    between atoms: N_4  and  C_5
REMARK    3  A    between atoms: C_8  and  C_9
REMARK    4  A    between atoms: C_12  and  C_13
REMARK    5  A    between atoms: N_15  and  C_16
REMARK    6  A    between atoms: C_16  and  C_17
REMARK    7  A    between atoms: C_17  and  N_18
REMARK    8  A    between atoms: N_18  and  C_19
REMARK    9  A    between atoms: N_18  and  C_20
REMARK                            x       y       z     vdW  Elec       q    Type
REMARK                         _______ _______ _______ _____ _____    ______ ____
ROOT
ATOM      1  C   UNL     1       2.358   6.339  20.122  0.00  0.00    +0.000 A 
ATOM      2  N   UNL     1       3.415   5.878  19.440  0.00  0.00    +0.000 NA
ATOM      3  C   UNL     1       3.551   4.616  19.803  0.00  0.00    +0.000 A 
ATOM      4  C   UNL     1       4.507   3.733  19.308  0.00  0.00    +0.000 A 
ATOM      5  C   UNL     1       4.462   2.424  19.838  0.00  0.00    +0.000 A 
ATOM      6  C   UNL     1       3.493   2.074  20.816  0.00  0.00    +0.000 A 
ATOM      7  C   UNL     1       2.541   3.018  21.271  0.00  0.00    +0.000 A 
ATOM      8  C   UNL     1       2.597   4.300  20.723  0.00  0.00    +0.000 A 
ATOM      9  N   UNL     1       1.812   5.387  20.935  0.00  0.00    +0.000 N 
ATOM     10  H   UNL     1       0.988   5.470  21.571  0.00  0.00    +0.000 HD
ENDROOT
BRANCH   1  14
ATOM     11  C   UNL     1       0.979  10.222  18.962  0.00  0.00    +0.000 A 
ATOM     12  C   UNL     1       0.845   9.851  20.315  0.00  0.00    +0.000 A 
ATOM     13  C   UNL     1       1.347   8.610  20.767  0.00  0.00    +0.000 A 
ATOM     14  C   UNL     1       1.930   7.724  19.842  0.00  0.00    +0.000 A 
ATOM     15  C   UNL     1       2.040   8.123  18.496  0.00  0.00    +0.000 A 
ATOM     16  C   UNL     1       1.584   9.343  18.069  0.00  0.00    +0.000 A 
BRANCH  11  20
ATOM     17  C   UNL     1      -1.854  10.475  18.135  0.00  0.00    +0.000 C 
ATOM     18  C   UNL     1      -0.872  11.624  18.182  0.00  0.00    +0.000 C 
ATOM     19  O   UNL     1      -1.270  12.734  17.873  0.00  0.00    +0.000 OA
ATOM     20  N   UNL     1       0.452  11.442  18.460  0.00  0.00    +0.000 N 
ATOM     21  H   UNL     1       1.108  12.225  18.312  0.00  0.00    +0.000 HD
ENDBRANCH  11  20
ENDBRANCH   1  14
BRANCH   4  22
ATOM     22  C   UNL     1       5.483   4.226  18.273  0.00  0.00    +0.000 C 
ATOM     23  O   UNL     1       6.651   4.397  18.593  0.00  0.00    +0.000 OA
ATOM     24  N   UNL     1       5.107   4.487  16.989  0.00  0.00    +0.000 N 
ATOM     25  H   UNL     1       4.136   4.352  16.701  0.00  0.00    +0.000 HD
BRANCH  24  26
ATOM     26  C   UNL     1       6.046   4.955  15.984  0.00  0.00    +0.000 C 
BRANCH  26  27
ATOM     27  C   UNL     1       5.510   4.609  14.593  0.00  0.00    +0.000 C 
BRANCH  27  28
ATOM     28  N   UNL     1       6.518   3.965  13.722  0.00  0.00    +0.000 NA
ATOM     29  C   UNL     1       5.908   3.381  12.513  0.00  0.00    +0.000 C 
ATOM     30  C   UNL     1       7.513   4.973  13.320  0.00  0.00    +0.000 C 
ENDBRANCH  27  28
ENDBRANCH  26  27
ENDBRANCH  24  26
ENDBRANCH   4  22
TORSDOF 6
ENDMDL
MODEL 5
REMARK VINA RESULT:      -7.8      0.751      1.004
REMARK  Name = 
REMARK  9 active torsions:
REMARK  status: ('A' for Active; 'I' for Inactive)
REMARK    1  A    between atoms: C_1  and  C_2
REMARK    2  A    between atoms: N_4  and  C_5
REMARK    3  A    between atoms: C_8  and  C_9
REMARK    4  A    between atoms: C_12  and  C_13
REMARK    5  A    between atoms: N_15  and  C_16
REMARK    6  A    between atoms: C_16  and  C_17
REMARK    7  A    between atoms: C_17  and  N_18
REMARK    8  A    between atoms: N_18  and  C_19
REMARK    9  A    between atoms: N_18  and  C_20
REMARK                            x       y       z     vdW  Elec       q    Type
REMARK                         _______ _______ _______ _____ _____    ______ ____
ROOT
ATOM      1  C   UNL     1       2.074   6.671  19.874  0.00  0.00    +0.000 A 
ATOM      2  N   UNL     1       2.705   5.850  19.023  0.00  0.00    +0.000 NA
ATOM      3  C   UNL     1       2.804   4.693  19.653  0.00  0.00    +0.000 A 
ATOM      4  C   UNL     1       3.361   3.533  19.122  0.00  0.00    +0.000 A 
ATOM      5  C   UNL     1       3.356   2.407  19.977  0.00  0.00    +0.000 A 
ATOM      6  C   UNL     1       2.815   2.498  21.287  0.00  0.00    +0.000 A 
ATOM      7  C   UNL     1       2.254   3.708  21.763  0.00  0.00    +0.000 A 
ATOM      8  C   UNL     1       2.258   4.802  20.896  0.00  0.00    +0.000 A 
ATOM      9  N   UNL     1       1.773   6.059  21.057  0.00  0.00    +0.000 N 
ATOM     10  H   UNL     1       1.285   6.458  21.890  0.00  0.00    +0.000 HD
ENDROOT
BRANCH   1  14
ATOM     11  C   UNL     1       1.236  10.737  18.826  0.00  0.00    +0.000 A 
ATOM     12  C   UNL     1       1.883   9.928  17.869  0.00  0.00    +0.000 A 
ATOM     13  C   UNL     1       2.120   8.561  18.135  0.00  0.00    +0.000 A 
ATOM     14  C   UNL     1       1.757   8.029  19.386  0.00  0.00    +0.000 A 
ATOM     15  C   UNL     1       1.121   8.866  20.322  0.00  0.00    +0.000 A 
ATOM     16  C   UNL     1       0.861  10.184  20.045  0.00  0.00    +0.000 A 
BRANCH  11  20
ATOM     17  C   UNL     1      -1.433  11.801  18.106  0.00  0.00    +0.000 C 
ATOM     18  C   UNL     1      -0.222  12.658  18.396  0.00  0.00    +0.000 C 
ATOM     19  O   UNL     1      -0.349  13.869  18.345  0.00  0.00    +0.000 OA
ATOM     20  N   UNL     1       1.016  12.124  18.613  0.00  0.00    +0.000 N 
ATOM     21  H   UNL     1       1.836  12.751  18.635  0.00  0.00    +0.000 HD
ENDBRANCH  11  20
ENDBRANCH   1  14
BRANCH   4  22
ATOM     22  C   UNL     1       3.905   3.564  17.719  0.00  0.00    +0.000 C 
ATOM     23  O   UNL     1       3.151   3.323  16.786  0.00  0.00    +0.000 OA
ATOM     24  N   UNL     1       5.210   3.852  17.453  0.00  0.00    +0.000 N 
ATOM     25  H   UNL     1       5.857   4.055  18.218  0.00  0.00    +0.000 HD
BRANCH  24  26
ATOM     26  C   UNL     1       5.738   3.891  16.100  0.00  0.00    +0.000 C 
BRANCH  26  27
ATOM     27  C   UNL     1       7.013   4.738  16.080  0.00  0.00    +0.000 C 
BRANCH  27  28
ATOM     28  N   UNL     1       6.748   6.192  16.030  0.00  0.00    +0.000 NA
ATOM     29  C   UNL     1       5.320   6.484  15.803  0.00  0.00    +0.000 C 
ATOM     30  C   UNL     1       7.165   6.797  17.306  0.00  0.00    +0.000 C 
ENDBRANCH  27  28
ENDBRANCH  26  27
ENDBRANCH  24  26
ENDBRANCH   4  22
TORSDOF 6
ENDMDL
MODEL 6
REMARK VINA RESULT:      -7.8      2.576      8.063
REMARK  Name = 
REMARK  9 active torsions:
REMARK  status: ('A' for Active; 'I' for Inactive)
REMARK    1  A    between atoms: C_1  and  C_2
REMARK    2  A    between atoms: N_4  and  C_5
REMARK    3  A    between atoms: C_8  and  C_9
REMARK    4  A    between atoms: C_12  and  C_13
REMARK    5  A    between atoms: N_15  and  C_16
REMARK    6  A    between atoms: C_16  and  C_17
REMARK    7  A    between atoms: C_17  and  N_18
REMARK    8  A    between atoms: N_18  and  C_19
REMARK    9  A    between atoms: N_18  and  C_20
REMARK                            x       y       z     vdW  Elec       q    Type
REMARK                         _______ _______ _______ _____ _____    ______ ____
ROOT
ATOM      1  C   UNL     1       1.661   8.072  20.281  0.00  0.00    +0.000 A 
ATOM      2  N   UNL     1       0.879   9.040  19.785  0.00  0.00    +0.000 NA
ATOM      3  C   UNL     1       0.303   9.604  20.830  0.00  0.00    +0.000 A 
ATOM      4  C   UNL     1      -0.569  10.689  20.783  0.00  0.00    +0.000 A 
ATOM      5  C   UNL     1      -1.062  11.131  22.031  0.00  0.00    +0.000 A 
ATOM      6  C   UNL     1      -0.675  10.479  23.232  0.00  0.00    +0.000 A 
ATOM      7  C   UNL     1       0.223   9.384  23.212  0.00  0.00    +0.000 A 
ATOM      8  C   UNL     1       0.708   8.975  21.969  0.00  0.00    +0.000 A 
ATOM      9  N   UNL     1       1.589   7.996  21.643  0.00  0.00    +0.000 N 
ATOM     10  H   UNL     1       2.090   7.341  22.285  0.00  0.00    +0.000 HD
ENDROOT
BRANCH   1  14
ATOM     11  C   UNL     1       4.247   6.245  17.400  0.00  0.00    +0.000 A 
ATOM     12  C   UNL     1       3.974   5.534  18.586  0.00  0.00    +0.000 A 
ATOM     13  C   UNL     1       3.072   6.058  19.539  0.00  0.00    +0.000 A 
ATOM     14  C   UNL     1       2.494   7.322  19.319  0.00  0.00    +0.000 A 
ATOM     15  C   UNL     1       2.796   8.009  18.128  0.00  0.00    +0.000 A 
ATOM     16  C   UNL     1       3.644   7.480  17.190  0.00  0.00    +0.000 A 
BRANCH  11  20
ATOM     17  C   UNL     1       7.105   7.019  17.480  0.00  0.00    +0.000 C 
ATOM     18  C   UNL     1       6.520   6.015  16.515  0.00  0.00    +0.000 C 
ATOM     19  O   UNL     1       7.271   5.473  15.722  0.00  0.00    +0.000 OA
ATOM     20  N   UNL     1       5.178   5.772  16.437  0.00  0.00    +0.000 N 
ATOM     21  H   UNL     1       4.815   5.210  15.651  0.00  0.00    +0.000 HD
ENDBRANCH  11  20
ENDBRANCH   1  14
BRANCH   4  22
ATOM     22  C   UNL     1      -0.904  11.293  19.445  0.00  0.00    +0.000 C 
ATOM     23  O   UNL     1      -0.481  12.409  19.176  0.00  0.00    +0.000 OA
ATOM     24  N   UNL     1      -1.662  10.636  18.523  0.00  0.00    +0.000 N 
ATOM     25  H   UNL     1      -2.027   9.703  18.728  0.00  0.00    +0.000 HD
BRANCH  24  26
ATOM     26  C   UNL     1      -1.982  11.211  17.227  0.00  0.00    +0.000 C 
BRANCH  26  27
ATOM     27  C   UNL     1      -2.308  10.086  16.243  0.00  0.00    +0.000 C 
BRANCH  27  28
ATOM     28  N   UNL     1      -3.700  10.131  15.743  0.00  0.00    +0.000 NA
ATOM     29  C   UNL     1      -4.424  11.316  16.240  0.00  0.00    +0.000 C 
ATOM     30  C   UNL     1      -3.677  10.164  14.271  0.00  0.00    +0.000 C 
ENDBRANCH  27  28
ENDBRANCH  26  27
ENDBRANCH  24  26
ENDBRANCH   4  22
TORSDOF 6
ENDMDL
MODEL 7
REMARK VINA RESULT:      -7.8      0.772      1.331
REMARK  Name = 
REMARK  9 active torsions:
REMARK  status: ('A' for Active; 'I' for Inactive)
REMARK    1  A    between atoms: C_1  and  C_2
REMARK    2  A    between atoms: N_4  and  C_5
REMARK    3  A    between atoms: C_8  and  C_9
REMARK    4  A    between atoms: C_12  and  C_13
REMARK    5  A    between atoms: N_15  and  C_16
REMARK    6  A    between atoms: C_16  and  C_17
REMARK    7  A    between atoms: C_17  and  N_18
REMARK    8  A    between atoms: N_18  and  C_19
REMARK    9  A    between atoms: N_18  and  C_20
REMARK                            x       y       z     vdW  Elec       q    Type
REMARK                         _______ _______ _______ _____ _____    ______ ____
ROOT
ATOM      1  C   UNL     1       2.098   6.490  20.187  0.00  0.00    +0.000 A 
ATOM      2  N   UNL     1       3.115   5.872  19.571  0.00  0.00    +0.000 NA
ATOM      3  C   UNL     1       3.096   4.628  20.012  0.00  0.00    +0.000 A 
ATOM      4  C   UNL     1       3.960   3.615  19.605  0.00  0.00    +0.000 A 
ATOM      5  C   UNL     1       3.750   2.354  20.209  0.00  0.00    +0.000 A 
ATOM      6  C   UNL     1       2.720   2.177  21.171  0.00  0.00    +0.000 A 
ATOM      7  C   UNL     1       1.869   3.249  21.536  0.00  0.00    +0.000 A 
ATOM      8  C   UNL     1       2.086   4.480  20.915  0.00  0.00    +0.000 A 
ATOM      9  N   UNL     1       1.424   5.658  21.035  0.00  0.00    +0.000 N 
ATOM     10  H   UNL     1       0.597   5.874  21.635  0.00  0.00    +0.000 HD
ENDROOT
BRANCH   1  14
ATOM     11  C   UNL     1       1.276  10.430  18.726  0.00  0.00    +0.000 A 
ATOM     12  C   UNL     1       0.833  10.101  20.023  0.00  0.00    +0.000 A 
ATOM     13  C   UNL     1       1.138   8.840  20.582  0.00  0.00    +0.000 A 
ATOM     14  C   UNL     1       1.839   7.895  19.810  0.00  0.00    +0.000 A 
ATOM     15  C   UNL     1       2.259   8.253  18.515  0.00  0.00    +0.000 A 
ATOM     16  C   UNL     1       1.991   9.492  17.990  0.00  0.00    +0.000 A 
BRANCH  11  20
ATOM     17  C   UNL     1       2.179  13.012  19.864  0.00  0.00    +0.000 C 
ATOM     18  C   UNL     1       1.453  12.867  18.546  0.00  0.00    +0.000 C 
ATOM     19  O   UNL     1       1.233  13.875  17.897  0.00  0.00    +0.000 OA
ATOM     20  N   UNL     1       0.955  11.671  18.114  0.00  0.00    +0.000 N 
ATOM     21  H   UNL     1       0.322  11.656  17.299  0.00  0.00    +0.000 HD
ENDBRANCH  11  20
ENDBRANCH   1  14
BRANCH   4  22
ATOM     22  C   UNL     1       5.014   3.929  18.577  0.00  0.00    +0.000 C 
ATOM     23  O   UNL     1       4.823   3.605  17.413  0.00  0.00    +0.000 OA
ATOM     24  N   UNL     1       6.176   4.564  18.901  0.00  0.00    +0.000 N 
ATOM     25  H   UNL     1       6.356   4.842  19.869  0.00  0.00    +0.000 HD
BRANCH  24  26
ATOM     26  C   UNL     1       7.193   4.877  17.913  0.00  0.00    +0.000 C 
BRANCH  26  27
ATOM     27  C   UNL     1       6.990   6.310  17.415  0.00  0.00    +0.000 C 
BRANCH  27  28
ATOM     28  N   UNL     1       6.564   6.382  16.001  0.00  0.00    +0.000 NA
ATOM     29  C   UNL     1       6.876   5.141  15.268  0.00  0.00    +0.000 C 
ATOM     30  C   UNL     1       5.111   6.616  15.952  0.00  0.00    +0.000 C 
ENDBRANCH  27  28
ENDBRANCH  26  27
ENDBRANCH  24  26
ENDBRANCH   4  22
TORSDOF 6
ENDMDL
MODEL 8
REMARK VINA RESULT:      -7.7      1.895      4.578
REMARK  Name = 
REMARK  9 active torsions:
REMARK  status: ('A' for Active; 'I' for Inactive)
REMARK    1  A    between atoms: C_1  and  C_2
REMARK    2  A    between atoms: N_4  and  C_5
REMARK    3  A    between atoms: C_8  and  C_9
REMARK    4  A    between atoms: C_12  and  C_13
REMARK    5  A    between atoms: N_15  and  C_16
REMARK    6  A    between atoms: C_16  and  C_17
REMARK    7  A    between atoms: C_17  and  N_18
REMARK    8  A    between atoms: N_18  and  C_19
REMARK    9  A    between atoms: N_18  and  C_20
REMARK                            x       y       z     vdW  Elec       q    Type
REMARK                         _______ _______ _______ _____ _____    ______ ____
ROOT
ATOM      1  C   UNL     1       3.281   7.246  17.735  0.00  0.00    +0.000 A 
ATOM      2  N   UNL     1       3.282   5.938  18.027  0.00  0.00    +0.000 NA
ATOM      3  C   UNL     1       4.216   5.403  17.262  0.00  0.00    +0.000 A 
ATOM      4  C   UNL     1       4.588   4.061  17.264  0.00  0.00    +0.000 A 
ATOM      5  C   UNL     1       5.619   3.712  16.362  0.00  0.00    +0.000 A 
ATOM      6  C   UNL     1       6.204   4.695  15.520  0.00  0.00    +0.000 A 
ATOM      7  C   UNL     1       5.785   6.046  15.573  0.00  0.00    +0.000 A 
ATOM      8  C   UNL     1       4.776   6.369  16.482  0.00  0.00    +0.000 A 
ATOM      9  N   UNL     1       4.201   7.562  16.776  0.00  0.00    +0.000 N 
ATOM     10  H   UNL     1       4.413   8.498  16.364  0.00  0.00    +0.000 HD
ENDROOT
BRANCH   1  14
ATOM     11  C   UNL     1       0.411   9.755  19.683  0.00  0.00    +0.000 A 
ATOM     12  C   UNL     1       1.040   8.753  20.449  0.00  0.00    +0.000 A 
ATOM     13  C   UNL     1       2.045   7.943  19.876  0.00  0.00    +0.000 A 
ATOM     14  C   UNL     1       2.372   8.108  18.517  0.00  0.00    +0.000 A 
ATOM     15  C   UNL     1       1.718   9.112  17.779  0.00  0.00    +0.000 A 
ATOM     16  C   UNL     1       0.768   9.920  18.349  0.00  0.00    +0.000 A 
BRANCH  11  20
ATOM     17  C   UNL     1       0.939  12.433  20.833  0.00  0.00    +0.000 C 
ATOM     18  C   UNL     1      -0.439  11.844  20.639  0.00  0.00    +0.000 C 
ATOM     19  O   UNL     1      -1.403  12.517  20.963  0.00  0.00    +0.000 OA
ATOM     20  N   UNL     1      -0.632  10.562  20.210  0.00  0.00    +0.000 N 
ATOM     21  H   UNL     1      -1.579  10.154  20.259  0.00  0.00    +0.000 HD
ENDBRANCH  11  20
ENDBRANCH   1  14
BRANCH   4  22
ATOM     22  C   UNL     1       3.889   3.115  18.204  0.00  0.00    +0.000 C 
ATOM     23  O   UNL     1       4.503   2.673  19.165  0.00  0.00    +0.000 OA
ATOM     24  N   UNL     1       2.594   2.734  18.019  0.00  0.00    +0.000 N 
ATOM     25  H   UNL     1       2.063   3.090  17.221  0.00  0.00    +0.000 HD
BRANCH  24  26
ATOM     26  C   UNL     1       1.912   1.828  18.926  0.00  0.00    +0.000 C 
BRANCH  26  27
ATOM     27  C   UNL     1       0.676   2.524  19.500  0.00  0.00    +0.000 C 
BRANCH  27  28
ATOM     28  N   UNL     1       0.915   3.146  20.821  0.00  0.00    +0.000 NA
ATOM     29  C   UNL     1       1.995   2.467  21.561  0.00  0.00    +0.000 C 
ATOM     30  C   UNL     1       1.281   4.558  20.623  0.00  0.00    +0.000 C 
ENDBRANCH  27  28
ENDBRANCH  26  27
ENDBRANCH  24  26
ENDBRANCH   4  22
TORSDOF 6
ENDMDL
MODEL 9
REMARK VINA RESULT:      -7.7      1.125      1.464
REMARK  Name = 
REMARK  9 active torsions:
REMARK  status: ('A' for Active; 'I' for Inactive)
REMARK    1  A    between atoms: C_1  and  C_2
REMARK    2  A    between atoms: N_4  and  C_5
REMARK    3  A    between atoms: C_8  and  C_9
REMARK    4  A    between atoms: C_12  and  C_13
REMARK    5  A    between atoms: N_15  and  C_16
REMARK    6  A    between atoms: C_16  and  C_17
REMARK    7  A    between atoms: C_17  and  N_18
REMARK    8  A    between atoms: N_18  and  C_19
REMARK    9  A    between atoms: N_18  and  C_20
REMARK                            x       y       z     vdW  Elec       q    Type
REMARK                         _______ _______ _______ _____ _____    ______ ____
ROOT
ATOM      1  C   UNL     1       2.226   6.658  19.765  0.00  0.00    +0.000 A 
ATOM      2  N   UNL     1       3.318   6.112  19.213  0.00  0.00    +0.000 NA
ATOM      3  C   UNL     1       3.393   4.890  19.707  0.00  0.00    +0.000 A 
ATOM      4  C   UNL     1       4.360   3.944  19.376  0.00  0.00    +0.000 A 
ATOM      5  C   UNL     1       4.241   2.695  20.026  0.00  0.00    +0.000 A 
ATOM      6  C   UNL     1       3.194   2.463  20.957  0.00  0.00    +0.000 A 
ATOM      7  C   UNL     1       2.236   3.466  21.244  0.00  0.00    +0.000 A 
ATOM      8  C   UNL     1       2.366   4.686  20.579  0.00  0.00    +0.000 A 
ATOM      9  N   UNL     1       1.596   5.803  20.623  0.00  0.00    +0.000 N 
ATOM     10  H   UNL     1       0.730   5.965  21.183  0.00  0.00    +0.000 HD
ENDROOT
BRANCH   1  14
ATOM     11  C   UNL     1       1.242  10.720  18.836  0.00  0.00    +0.000 A 
ATOM     12  C   UNL     1       1.882   9.952  17.843  0.00  0.00    +0.000 A 
ATOM     13  C   UNL     1       2.166   8.587  18.069  0.00  0.00    +0.000 A 
ATOM     14  C   UNL     1       1.856   8.017  19.318  0.00  0.00    +0.000 A 
ATOM     15  C   UNL     1       1.226   8.815  20.292  0.00  0.00    +0.000 A 
ATOM     16  C   UNL     1       0.920  10.130  20.053  0.00  0.00    +0.000 A 
BRANCH  11  20
ATOM     17  C   UNL     1      -1.440  11.710  18.063  0.00  0.00    +0.000 C 
ATOM     18  C   UNL     1      -0.273  12.600  18.422  0.00  0.00    +0.000 C 
ATOM     19  O   UNL     1      -0.444  13.807  18.407  0.00  0.00    +0.000 OA
ATOM     20  N   UNL     1       0.977  12.105  18.662  0.00  0.00    +0.000 N 
ATOM     21  H   UNL     1       1.771  12.760  18.732  0.00  0.00    +0.000 HD
ENDBRANCH  11  20
ENDBRANCH   1  14
BRANCH   4  22
ATOM     22  C   UNL     1       5.422   4.313  18.374  0.00  0.00    +0.000 C 
ATOM     23  O   UNL     1       6.593   4.321  18.728  0.00  0.00    +0.000 OA
ATOM     24  N   UNL     1       5.122   4.637  17.085  0.00  0.00    +0.000 N 
ATOM     25  H   UNL     1       4.150   4.637  16.769  0.00  0.00    +0.000 HD
BRANCH  24  26
ATOM     26  C   UNL     1       6.143   4.985  16.113  0.00  0.00    +0.000 C 
BRANCH  26  27
ATOM     27  C   UNL     1       6.187   3.914  15.021  0.00  0.00    +0.000 C 
BRANCH  27  28
ATOM     28  N   UNL     1       6.304   4.474  13.657  0.00  0.00    +0.000 NA
ATOM     29  C   UNL     1       7.628   5.080  13.422  0.00  0.00    +0.000 C 
ATOM     30  C   UNL     1       6.090   3.394  12.679  0.00  0.00    +0.000 C 
ENDBRANCH  27  28
ENDBRANCH  26  27
ENDBRANCH  24  26
ENDBRANCH   4  22
TORSDOF 6
ENDMDL
