MODEL 1
REMARK VINA RESULT:      -7.1      0.000      0.000
REMARK  Name = 
REMARK  4 active torsions:
REMARK  status: ('A' for Active; 'I' for Inactive)
REMARK    1  A    between atoms: C_1  and  N_2
REMARK    2  A    between atoms: C_5  and  C_6
REMARK    3  A    between atoms: C_7  and  C_8
REMARK    4  A    between atoms: C_8  and  C_10
REMARK                            x       y       z     vdW  Elec       q    Type
REMARK                         _______ _______ _______ _____ _____    ______ ____
ROOT
ATOM      1  C   UNL     1       4.897   6.300  17.060  0.00  0.00    +0.000 C 
ATOM      2  C   UNL     1       5.962   6.480  16.260  0.00  0.00    +0.000 C 
ENDROOT
BRANCH   1   7
ATOM      3  C   UNL     1       2.354   1.727  19.318  0.00  0.00    +0.000 C 
ATOM      4  N   UNL     1       3.076   2.853  18.760  0.00  0.00    +0.000 N 
ATOM      5  N   UNL     1       2.507   3.477  17.678  0.00  0.00    +0.000 NA
ATOM      6  C   UNL     1       3.147   4.483  17.181  0.00  0.00    +0.000 A 
ATOM      7  C   UNL     1       4.413   5.070  17.676  0.00  0.00    +0.000 A 
ATOM      8  C   UNL     1       4.950   4.425  18.721  0.00  0.00    +0.000 A 
ATOM      9 CL   UNL     1       6.367   4.998  19.546  0.00  0.00    +0.000 Cl
ATOM     10  C   UNL     1       4.315   3.198  19.295  0.00  0.00    +0.000 A 
ATOM     11  O   UNL     1       4.842   2.568  20.213  0.00  0.00    +0.000 OA
ENDBRANCH   1   7
BRANCH   2  12
ATOM     12  C   UNL     1       6.813   5.362  15.772  0.00  0.00    +0.000 C 
ATOM     13  O   UNL     1       7.668   4.862  16.504  0.00  0.00    +0.000 OA
BRANCH  12  14
ATOM     14  C   UNL     1       6.639   4.810  14.399  0.00  0.00    +0.000 A 
ATOM     15  C   UNL     1       7.605   5.181  13.450  0.00  0.00    +0.000 A 
ATOM     16  C   UNL     1       7.591   4.637  12.167  0.00  0.00    +0.000 A 
ATOM     17  C   UNL     1       6.610   3.715  11.817  0.00  0.00    +0.000 A 
ATOM     18  C   UNL     1       5.629   3.358  12.744  0.00  0.00    +0.000 A 
ATOM     19  C   UNL     1       5.636   3.905  14.035  0.00  0.00    +0.000 A 
ENDBRANCH  12  14
ENDBRANCH   2  12
TORSDOF 3
ENDMDL
MODEL 2
REMARK VINA RESULT:      -7.1      0.144      1.115
REMARK  Name = 
REMARK  4 active torsions:
REMARK  status: ('A' for Active; 'I' for Inactive)
REMARK    1  A    between atoms: C_1  and  N_2
REMARK    2  A    between atoms: C_5  and  C_6
REMARK    3  A    between atoms: C_7  and  C_8
REMARK    4  A    between atoms: C_8  and  C_10
REMARK                            x       y       z     vdW  Elec       q    Type
REMARK                         _______ _______ _______ _____ _____    ______ ____
ROOT
ATOM      1  C   UNL     1       4.853   6.248  16.918  0.00  0.00    +0.000 C 
ATOM      2  C   UNL     1       5.943   6.442  16.156  0.00  0.00    +0.000 C 
ENDROOT
BRANCH   1   7
ATOM      3  C   UNL     1       2.411   1.660  19.256  0.00  0.00    +0.000 C 
ATOM      4  N   UNL     1       3.108   2.794  18.683  0.00  0.00    +0.000 N 
ATOM      5  N   UNL     1       2.563   3.346  17.550  0.00  0.00    +0.000 NA
ATOM      6  C   UNL     1       3.180   4.359  17.039  0.00  0.00    +0.000 A 
ATOM      7  C   UNL     1       4.395   5.024  17.564  0.00  0.00    +0.000 A 
ATOM      8  C   UNL     1       4.911   4.447  18.659  0.00  0.00    +0.000 A 
ATOM      9 CL   UNL     1       6.262   5.118  19.521  0.00  0.00    +0.000 Cl
ATOM     10  C   UNL     1       4.305   3.217  19.257  0.00  0.00    +0.000 A 
ATOM     11  O   UNL     1       4.816   2.650  20.224  0.00  0.00    +0.000 OA
ENDBRANCH   1   7
BRANCH   2  12
ATOM     12  C   UNL     1       6.860   5.343  15.750  0.00  0.00    +0.000 C 
ATOM     13  O   UNL     1       7.684   4.893  16.547  0.00  0.00    +0.000 OA
BRANCH  12  14
ATOM     14  C   UNL     1       6.792   4.754  14.384  0.00  0.00    +0.000 A 
ATOM     15  C   UNL     1       5.733   3.866  14.139  0.00  0.00    +0.000 A 
ATOM     16  C   UNL     1       5.520   3.341  12.866  0.00  0.00    +0.000 A 
ATOM     17  C   UNL     1       6.366   3.698  11.820  0.00  0.00    +0.000 A 
ATOM     18  C   UNL     1       7.438   4.561  12.058  0.00  0.00    +0.000 A 
ATOM     19  C   UNL     1       7.658   5.088  13.338  0.00  0.00    +0.000 A 
ENDBRANCH  12  14
ENDBRANCH   2  12
TORSDOF 3
ENDMDL
MODEL 3
REMARK VINA RESULT:      -7.1      3.164      6.361
REMARK  Name = 
REMARK  4 active torsions:
REMARK  status: ('A' for Active; 'I' for Inactive)
REMARK    1  A    between atoms: C_1  and  N_2
REMARK    2  A    between atoms: C_5  and  C_6
REMARK    3  A    between atoms: C_7  and  C_8
REMARK    4  A    between atoms: C_8  and  C_10
REMARK                            x       y       z     vdW  Elec       q    Type
REMARK                         _______ _______ _______ _____ _____    ______ ____
ROOT
ATOM      1  C   UNL     1       3.922   3.630  16.559  0.00  0.00    +0.000 C 
ATOM      2  C   UNL     1       2.621   3.471  16.855  0.00  0.00    +0.000 C 
ENDROOT
BRANCH   1   7
ATOM      3  C   UNL     1       7.921   7.371  18.141  0.00  0.00    +0.000 C 
ATOM      4  N   UNL     1       6.877   6.419  17.820  0.00  0.00    +0.000 N 
ATOM      5  N   UNL     1       6.283   6.544  16.588  0.00  0.00    +0.000 NA
ATOM      6  C   UNL     1       5.355   5.694  16.298  0.00  0.00    +0.000 A 
ATOM      7  C   UNL     1       4.883   4.566  17.132  0.00  0.00    +0.000 A 
ATOM      8  C   UNL     1       5.470   4.485  18.335  0.00  0.00    +0.000 A 
ATOM      9 CL   UNL     1       5.167   3.176  19.437  0.00  0.00    +0.000 Cl
ATOM     10  C   UNL     1       6.489   5.486  18.779  0.00  0.00    +0.000 A 
ATOM     11  O   UNL     1       6.981   5.449  19.908  0.00  0.00    +0.000 OA
ENDBRANCH   1   7
BRANCH   2  12
ATOM     12  C   UNL     1       1.890   4.347  17.810  0.00  0.00    +0.000 C 
ATOM     13  O   UNL     1       1.287   5.342  17.407  0.00  0.00    +0.000 OA
BRANCH  12  14
ATOM     14  C   UNL     1       1.854   4.032  19.266  0.00  0.00    +0.000 A 
ATOM     15  C   UNL     1       1.472   2.727  19.613  0.00  0.00    +0.000 A 
ATOM     16  C   UNL     1       1.507   2.301  20.940  0.00  0.00    +0.000 A 
ATOM     17  C   UNL     1       1.925   3.177  21.937  0.00  0.00    +0.000 A 
ATOM     18  C   UNL     1       2.284   4.486  21.606  0.00  0.00    +0.000 A 
ATOM     19  C   UNL     1       2.246   4.920  20.273  0.00  0.00    +0.000 A 
ENDBRANCH  12  14
ENDBRANCH   2  12
TORSDOF 3
ENDMDL
MODEL 4
REMARK VINA RESULT:      -7.0      3.175      4.334
REMARK  Name = 
REMARK  4 active torsions:
REMARK  status: ('A' for Active; 'I' for Inactive)
REMARK    1  A    between atoms: C_1  and  N_2
REMARK    2  A    between atoms: C_5  and  C_6
REMARK    3  A    between atoms: C_7  and  C_8
REMARK    4  A    between atoms: C_8  and  C_10
REMARK                            x       y       z     vdW  Elec       q    Type
REMARK                         _______ _______ _______ _____ _____    ______ ____
ROOT
ATOM      1  C   UNL     1       4.190   3.425  16.874  0.00  0.00    +0.000 C 
ATOM      2  C   UNL     1       4.755   4.470  16.247  0.00  0.00    +0.000 C 
ENDROOT
BRANCH   1   7
ATOM      3  C   UNL     1       2.038   2.634  22.092  0.00  0.00    +0.000 C 
ATOM      4  N   UNL     1       2.546   2.911  20.764  0.00  0.00    +0.000 N 
ATOM      5  N   UNL     1       3.811   2.460  20.478  0.00  0.00    +0.000 NA
ATOM      6  C   UNL     1       4.265   2.702  19.293  0.00  0.00    +0.000 A 
ATOM      7  C   UNL     1       3.554   3.379  18.185  0.00  0.00    +0.000 A 
ATOM      8  C   UNL     1       2.329   3.823  18.504  0.00  0.00    +0.000 A 
ATOM      9 CL   UNL     1       1.261   4.541  17.336  0.00  0.00    +0.000 Cl
ATOM     10  C   UNL     1       1.770   3.661  19.882  0.00  0.00    +0.000 A 
ATOM     11  O   UNL     1       0.672   4.125  20.192  0.00  0.00    +0.000 OA
ENDBRANCH   1   7
BRANCH   2  12
ATOM     12  C   UNL     1       4.911   5.810  16.874  0.00  0.00    +0.000 C 
ATOM     13  O   UNL     1       3.987   6.624  16.844  0.00  0.00    +0.000 OA
BRANCH  12  14
ATOM     14  C   UNL     1       6.174   6.190  17.566  0.00  0.00    +0.000 A 
ATOM     15  C   UNL     1       6.741   7.420  17.199  0.00  0.00    +0.000 A 
ATOM     16  C   UNL     1       7.865   7.914  17.860  0.00  0.00    +0.000 A 
ATOM     17  C   UNL     1       8.435   7.183  18.897  0.00  0.00    +0.000 A 
ATOM     18  C   UNL     1       7.894   5.946  19.254  0.00  0.00    +0.000 A 
ATOM     19  C   UNL     1       6.767   5.443  18.589  0.00  0.00    +0.000 A 
ENDBRANCH  12  14
ENDBRANCH   2  12
TORSDOF 3
ENDMDL
MODEL 5
REMARK VINA RESULT:      -7.0      2.494      6.126
REMARK  Name = 
REMARK  4 active torsions:
REMARK  status: ('A' for Active; 'I' for Inactive)
REMARK    1  A    between atoms: C_1  and  N_2
REMARK    2  A    between atoms: C_5  and  C_6
REMARK    3  A    between atoms: C_7  and  C_8
REMARK    4  A    between atoms: C_8  and  C_10
REMARK                            x       y       z     vdW  Elec       q    Type
REMARK                         _______ _______ _______ _____ _____    ______ ____
ROOT
ATOM      1  C   UNL     1       3.698   7.056  18.047  0.00  0.00    +0.000 C 
ATOM      2  C   UNL     1       2.567   6.477  18.484  0.00  0.00    +0.000 C 
ENDROOT
BRANCH   1   7
ATOM      3  C   UNL     1       7.425   4.694  14.440  0.00  0.00    +0.000 C 
ATOM      4  N   UNL     1       6.542   5.307  15.411  0.00  0.00    +0.000 N 
ATOM      5  N   UNL     1       5.514   6.072  14.917  0.00  0.00    +0.000 NA
ATOM      6  C   UNL     1       4.723   6.617  15.781  0.00  0.00    +0.000 A 
ATOM      7  C   UNL     1       4.775   6.476  17.254  0.00  0.00    +0.000 A 
ATOM      8  C   UNL     1       5.802   5.739  17.703  0.00  0.00    +0.000 A 
ATOM      9 CL   UNL     1       6.000   5.336  19.381  0.00  0.00    +0.000 Cl
ATOM     10  C   UNL     1       6.811   5.150  16.769  0.00  0.00    +0.000 A 
ATOM     11  O   UNL     1       7.790   4.528  17.185  0.00  0.00    +0.000 OA
ENDBRANCH   1   7
BRANCH   2  12
ATOM     12  C   UNL     1       2.263   5.033  18.292  0.00  0.00    +0.000 C 
ATOM     13  O   UNL     1       2.035   4.589  17.167  0.00  0.00    +0.000 OA
BRANCH  12  14
ATOM     14  C   UNL     1       2.247   4.094  19.448  0.00  0.00    +0.000 A 
ATOM     15  C   UNL     1       3.344   3.226  19.564  0.00  0.00    +0.000 A 
ATOM     16  C   UNL     1       3.474   2.381  20.665  0.00  0.00    +0.000 A 
ATOM     17  C   UNL     1       2.507   2.394  21.664  0.00  0.00    +0.000 A 
ATOM     18  C   UNL     1       1.398   3.235  21.548  0.00  0.00    +0.000 A 
ATOM     19  C   UNL     1       1.261   4.083  20.440  0.00  0.00    +0.000 A 
ENDBRANCH  12  14
ENDBRANCH   2  12
TORSDOF 3
ENDMDL
MODEL 6
REMARK VINA RESULT:      -7.0      2.503      6.117
REMARK  Name = 
REMARK  4 active torsions:
REMARK  status: ('A' for Active; 'I' for Inactive)
REMARK    1  A    between atoms: C_1  and  N_2
REMARK    2  A    between atoms: C_5  and  C_6
REMARK    3  A    between atoms: C_7  and  C_8
REMARK    4  A    between atoms: C_8  and  C_10
REMARK                            x       y       z     vdW  Elec       q    Type
REMARK                         _______ _______ _______ _____ _____    ______ ____
ROOT
ATOM      1  C   UNL     1       3.772   7.223  18.107  0.00  0.00    +0.000 C 
ATOM      2  C   UNL     1       2.629   6.702  18.584  0.00  0.00    +0.000 C 
ENDROOT
BRANCH   1   7
ATOM      3  C   UNL     1       7.291   4.636  14.445  0.00  0.00    +0.000 C 
ATOM      4  N   UNL     1       6.463   5.305  15.428  0.00  0.00    +0.000 N 
ATOM      5  N   UNL     1       5.449   6.097  14.947  0.00  0.00    +0.000 NA
ATOM      6  C   UNL     1       4.707   6.692  15.822  0.00  0.00    +0.000 A 
ATOM      7  C   UNL     1       4.801   6.584  17.295  0.00  0.00    +0.000 A 
ATOM      8  C   UNL     1       5.813   5.820  17.730  0.00  0.00    +0.000 A 
ATOM      9 CL   UNL     1       6.049   5.449  19.411  0.00  0.00    +0.000 Cl
ATOM     10  C   UNL     1       6.769   5.170  16.781  0.00  0.00    +0.000 A 
ATOM     11  O   UNL     1       7.737   4.521  17.181  0.00  0.00    +0.000 OA
ENDBRANCH   1   7
BRANCH   2  12
ATOM     12  C   UNL     1       2.258   5.270  18.425  0.00  0.00    +0.000 C 
ATOM     13  O   UNL     1       1.730   4.875  17.384  0.00  0.00    +0.000 OA
BRANCH  12  14
ATOM     14  C   UNL     1       2.530   4.283  19.506  0.00  0.00    +0.000 A 
ATOM     15  C   UNL     1       1.664   4.311  20.610  0.00  0.00    +0.000 A 
ATOM     16  C   UNL     1       1.770   3.362  21.626  0.00  0.00    +0.000 A 
ATOM     17  C   UNL     1       2.745   2.373  21.549  0.00  0.00    +0.000 A 
ATOM     18  C   UNL     1       3.629   2.350  20.468  0.00  0.00    +0.000 A 
ATOM     19  C   UNL     1       3.529   3.305  19.446  0.00  0.00    +0.000 A 
ENDBRANCH  12  14
ENDBRANCH   2  12
TORSDOF 3
ENDMDL
MODEL 7
REMARK VINA RESULT:      -6.9      3.271      6.229
REMARK  Name = 
REMARK  4 active torsions:
REMARK  status: ('A' for Active; 'I' for Inactive)
REMARK    1  A    between atoms: C_1  and  N_2
REMARK    2  A    between atoms: C_5  and  C_6
REMARK    3  A    between atoms: C_7  and  C_8
REMARK    4  A    between atoms: C_8  and  C_10
REMARK                            x       y       z     vdW  Elec       q    Type
REMARK                         _______ _______ _______ _____ _____    ______ ____
ROOT
ATOM      1  C   UNL     1       4.786   3.017  18.699  0.00  0.00    +0.000 C 
ATOM      2  C   UNL     1       3.450   2.885  18.626  0.00  0.00    +0.000 C 
ENDROOT
BRANCH   1   7
ATOM      3  C   UNL     1       7.725   7.761  17.544  0.00  0.00    +0.000 C 
ATOM      4  N   UNL     1       7.024   6.515  17.778  0.00  0.00    +0.000 N 
ATOM      5  N   UNL     1       6.656   6.246  19.073  0.00  0.00    +0.000 NA
ATOM      6  C   UNL     1       6.028   5.137  19.284  0.00  0.00    +0.000 A 
ATOM      7  C   UNL     1       5.619   4.135  18.273  0.00  0.00    +0.000 A 
ATOM      8  C   UNL     1       6.011   4.420  17.023  0.00  0.00    +0.000 A 
ATOM      9 CL   UNL     1       5.546   3.456  15.655  0.00  0.00    +0.000 Cl
ATOM     10  C   UNL     1       6.820   5.640  16.714  0.00  0.00    +0.000 A 
ATOM     11  O   UNL     1       7.235   5.868  15.576  0.00  0.00    +0.000 OA
ENDBRANCH   1   7
BRANCH   2  12
ATOM     12  C   UNL     1       2.566   3.888  17.973  0.00  0.00    +0.000 C 
ATOM     13  O   UNL     1       2.011   3.628  16.905  0.00  0.00    +0.000 OA
BRANCH  12  14
ATOM     14  C   UNL     1       2.319   5.216  18.601  0.00  0.00    +0.000 A 
ATOM     15  C   UNL     1       1.881   5.205  19.934  0.00  0.00    +0.000 A 
ATOM     16  C   UNL     1       1.720   6.394  20.644  0.00  0.00    +0.000 A 
ATOM     17  C   UNL     1       1.997   7.610  20.028  0.00  0.00    +0.000 A 
ATOM     18  C   UNL     1       2.410   7.635  18.694  0.00  0.00    +0.000 A 
ATOM     19  C   UNL     1       2.568   6.442  17.974  0.00  0.00    +0.000 A 
ENDBRANCH  12  14
ENDBRANCH   2  12
TORSDOF 3
ENDMDL
MODEL 8
REMARK VINA RESULT:      -6.9      3.244      4.444
REMARK  Name = 
REMARK  4 active torsions:
REMARK  status: ('A' for Active; 'I' for Inactive)
REMARK    1  A    between atoms: C_1  and  N_2
REMARK    2  A    between atoms: C_5  and  C_6
REMARK    3  A    between atoms: C_7  and  C_8
REMARK    4  A    between atoms: C_8  and  C_10
REMARK                            x       y       z     vdW  Elec       q    Type
REMARK                         _______ _______ _______ _____ _____    ______ ____
ROOT
ATOM      1  C   UNL     1       4.215   3.309  17.010  0.00  0.00    +0.000 C 
ATOM      2  C   UNL     1       4.728   4.368  16.361  0.00  0.00    +0.000 C 
ENDROOT
BRANCH   1   7
ATOM      3  C   UNL     1       1.875   2.548  22.151  0.00  0.00    +0.000 C 
ATOM      4  N   UNL     1       2.429   2.817  20.840  0.00  0.00    +0.000 N 
ATOM      5  N   UNL     1       3.714   2.389  20.612  0.00  0.00    +0.000 NA
ATOM      6  C   UNL     1       4.209   2.624  19.441  0.00  0.00    +0.000 A 
ATOM      7  C   UNL     1       3.528   3.269  18.296  0.00  0.00    +0.000 A 
ATOM      8  C   UNL     1       2.283   3.691  18.560  0.00  0.00    +0.000 A 
ATOM      9 CL   UNL     1       1.248   4.369  17.340  0.00  0.00    +0.000 Cl
ATOM     10  C   UNL     1       1.674   3.537  19.917  0.00  0.00    +0.000 A 
ATOM     11  O   UNL     1       0.555   3.982  20.177  0.00  0.00    +0.000 OA
ENDBRANCH   1   7
BRANCH   2  12
ATOM     12  C   UNL     1       4.760   5.740  16.936  0.00  0.00    +0.000 C 
ATOM     13  O   UNL     1       3.764   6.462  16.880  0.00  0.00    +0.000 OA
BRANCH  12  14
ATOM     14  C   UNL     1       5.983   6.262  17.606  0.00  0.00    +0.000 A 
ATOM     15  C   UNL     1       6.503   5.484  18.653  0.00  0.00    +0.000 A 
ATOM     16  C   UNL     1       7.701   5.832  19.275  0.00  0.00    +0.000 A 
ATOM     17  C   UNL     1       8.394   6.963  18.857  0.00  0.00    +0.000 A 
ATOM     18  C   UNL     1       7.874   7.758  17.834  0.00  0.00    +0.000 A 
ATOM     19  C   UNL     1       6.667   7.415  17.208  0.00  0.00    +0.000 A 
ENDBRANCH  12  14
ENDBRANCH   2  12
TORSDOF 3
ENDMDL
MODEL 9
REMARK VINA RESULT:      -6.8      2.780      6.043
REMARK  Name = 
REMARK  4 active torsions:
REMARK  status: ('A' for Active; 'I' for Inactive)
REMARK    1  A    between atoms: C_1  and  N_2
REMARK    2  A    between atoms: C_5  and  C_6
REMARK    3  A    between atoms: C_7  and  C_8
REMARK    4  A    between atoms: C_8  and  C_10
REMARK                            x       y       z     vdW  Elec       q    Type
REMARK                         _______ _______ _______ _____ _____    ______ ____
ROOT
ATOM      1  C   UNL     1       4.716   3.537  19.328  0.00  0.00    +0.000 C 
ATOM      2  C   UNL     1       3.478   3.698  19.827  0.00  0.00    +0.000 C 
ENDROOT
BRANCH   1   7
ATOM      3  C   UNL     1       6.842   5.032  14.256  0.00  0.00    +0.000 C 
ATOM      4  N   UNL     1       6.312   4.733  15.571  0.00  0.00    +0.000 N 
ATOM      5  N   UNL     1       5.295   3.812  15.633  0.00  0.00    +0.000 NA
ATOM      6  C   UNL     1       4.823   3.541  16.804  0.00  0.00    +0.000 A 
ATOM      7  C   UNL     1       5.286   4.083  18.102  0.00  0.00    +0.000 A 
ATOM      8  C   UNL     1       6.266   4.993  18.003  0.00  0.00    +0.000 A 
ATOM      9 CL   UNL     1       7.050   5.678  19.394  0.00  0.00    +0.000 Cl
ATOM     10  C   UNL     1       6.802   5.426  16.675  0.00  0.00    +0.000 A 
ATOM     11  O   UNL     1       7.657   6.308  16.581  0.00  0.00    +0.000 OA
ENDBRANCH   1   7
BRANCH   2  12
ATOM     12  C   UNL     1       2.400   4.431  19.111  0.00  0.00    +0.000 C 
ATOM     13  O   UNL     1       1.589   3.821  18.413  0.00  0.00    +0.000 OA
BRANCH  12  14
ATOM     14  C   UNL     1       2.265   5.909  19.235  0.00  0.00    +0.000 A 
ATOM     15  C   UNL     1       2.532   6.659  18.079  0.00  0.00    +0.000 A 
ATOM     16  C   UNL     1       2.335   8.039  18.062  0.00  0.00    +0.000 A 
ATOM     17  C   UNL     1       1.867   8.686  19.201  0.00  0.00    +0.000 A 
ATOM     18  C   UNL     1       1.621   7.953  20.364  0.00  0.00    +0.000 A 
ATOM     19  C   UNL     1       1.823   6.565  20.388  0.00  0.00    +0.000 A 
ENDBRANCH  12  14
ENDBRANCH   2  12
TORSDOF 3
ENDMDL
