MODEL 1
REMARK VINA RESULT:      -8.7      0.000      0.000
REMARK  Name = 
REMARK  3 active torsions:
REMARK  status: ('A' for Active; 'I' for Inactive)
REMARK    1  A    between atoms: C_3  and  N_4
REMARK    2  A    between atoms: C_9  and  C_10
REMARK    3  A    between atoms: C_21  and  C_22
REMARK                            x       y       z     vdW  Elec       q    Type
REMARK                         _______ _______ _______ _____ _____    ______ ____
ROOT
ATOM      1  N   UNL     1       1.777   8.791  17.930  0.00  0.00    +0.000 N 
ATOM      2  C   UNL     1       2.308   7.676  18.580  0.00  0.00    +0.000 A 
ATOM      3  N   UNL     1       1.611   7.113  19.583  0.00  0.00    +0.000 NA
ATOM      4  C   UNL     1       2.128   6.036  20.186  0.00  0.00    +0.000 A 
ATOM      5  C   UNL     1       3.332   5.497  19.834  0.00  0.00    +0.000 A 
ATOM      6  C   UNL     1       3.987   6.130  18.799  0.00  0.00    +0.000 A 
ATOM      7  N   UNL     1       3.487   7.209  18.153  0.00  0.00    +0.000 NA
ATOM      8  H   UNL     1       2.383   9.126  17.197  0.00  0.00    +0.000 HD
ENDROOT
BRANCH   6   9
ATOM      9  C   UNL     1       5.288   5.651  18.370  0.00  0.00    +0.000 A 
ATOM     10  C   UNL     1       6.420   5.301  19.147  0.00  0.00    +0.000 A 
ATOM     11  N   UNL     1       7.437   4.846  18.417  0.00  0.00    +0.000 NA
ATOM     12  N   UNL     1       6.979   4.907  17.155  0.00  0.00    +0.000 N 
ATOM     13  N   UNL     1       7.763   4.474  16.144  0.00  0.00    +0.000 NA
ATOM     14  C   UNL     1       7.191   4.579  14.990  0.00  0.00    +0.000 A 
ATOM     15  C   UNL     1       5.835   5.114  14.723  0.00  0.00    +0.000 A 
ATOM     16  C   UNL     1       5.120   5.510  15.782  0.00  0.00    +0.000 A 
ATOM     17  C   UNL     1       5.693   5.403  17.072  0.00  0.00    +0.000 A 
ENDBRANCH   6   9
BRANCH   1  20
ATOM     18  C   UNL     1       0.309  11.511  19.972  0.00  0.00    +0.000 A 
ATOM     19  C   UNL     1       1.186  10.514  19.537  0.00  0.00    +0.000 A 
ATOM     20  C   UNL     1       0.848   9.706  18.451  0.00  0.00    +0.000 A 
ATOM     21  C   UNL     1      -0.407   9.884  17.852  0.00  0.00    +0.000 A 
ATOM     22  C   UNL     1      -1.297  10.884  18.261  0.00  0.00    +0.000 A 
ATOM     23  C   UNL     1      -0.921  11.700  19.333  0.00  0.00    +0.000 A 
BRANCH  22  24
ATOM     24  C   UNL     1      -2.546  11.066  17.535  0.00  0.00    +0.000 A 
ATOM     25  C   UNL     1      -3.832  11.433  17.880  0.00  0.00    +0.000 A 
ATOM     26  N   UNL     1      -4.647  11.418  16.777  0.00  0.00    +0.000 NA
ATOM     27  C   UNL     1      -3.836  11.044  15.815  0.00  0.00    +0.000 A 
ATOM     28  O   UNL     1      -2.549  10.813  16.188  0.00  0.00    +0.000 OA
ENDBRANCH  22  24
ENDBRANCH   1  20
TORSDOF 3
ENDMDL
MODEL 2
REMARK VINA RESULT:      -8.7      1.096      1.120
REMARK  Name = 
REMARK  3 active torsions:
REMARK  status: ('A' for Active; 'I' for Inactive)
REMARK    1  A    between atoms: C_3  and  N_4
REMARK    2  A    between atoms: C_9  and  C_10
REMARK    3  A    between atoms: C_21  and  C_22
REMARK                            x       y       z     vdW  Elec       q    Type
REMARK                         _______ _______ _______ _____ _____    ______ ____
ROOT
ATOM      1  N   UNL     1       1.515   9.220  17.757  0.00  0.00    +0.000 N 
ATOM      2  C   UNL     1       2.289   8.130  18.156  0.00  0.00    +0.000 A 
ATOM      3  N   UNL     1       1.851   7.354  19.163  0.00  0.00    +0.000 NA
ATOM      4  C   UNL     1       2.599   6.304  19.524  0.00  0.00    +0.000 A 
ATOM      5  C   UNL     1       3.786   5.998  18.922  0.00  0.00    +0.000 A 
ATOM      6  C   UNL     1       4.168   6.841  17.899  0.00  0.00    +0.000 A 
ATOM      7  N   UNL     1       3.430   7.900  17.495  0.00  0.00    +0.000 NA
ATOM      8  H   UNL     1       1.939   9.728  16.995  0.00  0.00    +0.000 HD
ENDROOT
BRANCH   6   9
ATOM      9  C   UNL     1       5.429   6.618  17.216  0.00  0.00    +0.000 A 
ATOM     10  C   UNL     1       6.705   7.174  17.476  0.00  0.00    +0.000 A 
ATOM     11  N   UNL     1       7.657   6.701  16.675  0.00  0.00    +0.000 NA
ATOM     12  N   UNL     1       7.006   5.837  15.877  0.00  0.00    +0.000 N 
ATOM     13  N   UNL     1       7.698   5.139  14.951  0.00  0.00    +0.000 NA
ATOM     14  C   UNL     1       6.948   4.340  14.266  0.00  0.00    +0.000 A 
ATOM     15  C   UNL     1       5.484   4.163  14.412  0.00  0.00    +0.000 A 
ATOM     16  C   UNL     1       4.877   4.885  15.361  0.00  0.00    +0.000 A 
ATOM     17  C   UNL     1       5.655   5.766  16.152  0.00  0.00    +0.000 A 
ENDBRANCH   6   9
BRANCH   1  20
ATOM     18  C   UNL     1       0.043  11.240  20.491  0.00  0.00    +0.000 A 
ATOM     19  C   UNL     1       0.939  10.440  19.777  0.00  0.00    +0.000 A 
ATOM     20  C   UNL     1       0.577   9.916  18.535  0.00  0.00    +0.000 A 
ATOM     21  C   UNL     1      -0.718  10.167  18.058  0.00  0.00    +0.000 A 
ATOM     22  C   UNL     1      -1.628  10.976  18.748  0.00  0.00    +0.000 A 
ATOM     23  C   UNL     1      -1.229  11.513  19.977  0.00  0.00    +0.000 A 
BRANCH  22  24
ATOM     24  C   UNL     1      -2.923  11.262  18.148  0.00  0.00    +0.000 A 
ATOM     25  C   UNL     1      -4.133  11.737  18.616  0.00  0.00    +0.000 A 
ATOM     26  N   UNL     1      -5.052  11.791  17.600  0.00  0.00    +0.000 NA
ATOM     27  C   UNL     1      -4.376  11.350  16.565  0.00  0.00    +0.000 A 
ATOM     28  O   UNL     1      -3.081  11.011  16.811  0.00  0.00    +0.000 OA
ENDBRANCH  22  24
ENDBRANCH   1  20
TORSDOF 3
ENDMDL
MODEL 3
REMARK VINA RESULT:      -8.6      2.211      3.115
REMARK  Name = 
REMARK  3 active torsions:
REMARK  status: ('A' for Active; 'I' for Inactive)
REMARK    1  A    between atoms: C_3  and  N_4
REMARK    2  A    between atoms: C_9  and  C_10
REMARK    3  A    between atoms: C_21  and  C_22
REMARK                            x       y       z     vdW  Elec       q    Type
REMARK                         _______ _______ _______ _____ _____    ______ ____
ROOT
ATOM      1  N   UNL     1       0.771   9.118  20.545  0.00  0.00    +0.000 N 
ATOM      2  C   UNL     1       1.607   8.609  19.551  0.00  0.00    +0.000 A 
ATOM      3  N   UNL     1       1.852   9.357  18.460  0.00  0.00    +0.000 NA
ATOM      4  C   UNL     1       2.668   8.860  17.523  0.00  0.00    +0.000 A 
ATOM      5  C   UNL     1       3.249   7.628  17.623  0.00  0.00    +0.000 A 
ATOM      6  C   UNL     1       2.948   6.921  18.769  0.00  0.00    +0.000 A 
ATOM      7  N   UNL     1       2.143   7.399  19.746  0.00  0.00    +0.000 NA
ATOM      8  H   UNL     1       0.660   8.475  21.313  0.00  0.00    +0.000 HD
ENDROOT
BRANCH   6   9
ATOM      9  C   UNL     1       3.492   5.589  18.957  0.00  0.00    +0.000 A 
ATOM     10  C   UNL     1       4.806   5.194  19.307  0.00  0.00    +0.000 A 
ATOM     11  N   UNL     1       4.939   3.876  19.444  0.00  0.00    +0.000 NA
ATOM     12  N   UNL     1       3.712   3.399  19.171  0.00  0.00    +0.000 N 
ATOM     13  N   UNL     1       3.483   2.071  19.257  0.00  0.00    +0.000 NA
ATOM     14  C   UNL     1       2.260   1.757  18.982  0.00  0.00    +0.000 A 
ATOM     15  C   UNL     1       1.176   2.691  18.596  0.00  0.00    +0.000 A 
ATOM     16  C   UNL     1       1.485   3.992  18.546  0.00  0.00    +0.000 A 
ATOM     17  C   UNL     1       2.808   4.393  18.853  0.00  0.00    +0.000 A 
ENDBRANCH   6   9
BRANCH   1  20
ATOM     18  C   UNL     1      -1.280  12.153  21.100  0.00  0.00    +0.000 A 
ATOM     19  C   UNL     1      -0.371  11.116  21.324  0.00  0.00    +0.000 A 
ATOM     20  C   UNL     1      -0.228  10.092  20.387  0.00  0.00    +0.000 A 
ATOM     21  C   UNL     1      -1.055  10.105  19.254  0.00  0.00    +0.000 A 
ATOM     22  C   UNL     1      -1.963  11.140  19.000  0.00  0.00    +0.000 A 
ATOM     23  C   UNL     1      -2.065  12.170  19.941  0.00  0.00    +0.000 A 
BRANCH  22  24
ATOM     24  C   UNL     1      -2.724  11.130  17.760  0.00  0.00    +0.000 A 
ATOM     25  C   UNL     1      -4.012  11.477  17.401  0.00  0.00    +0.000 A 
ATOM     26  N   UNL     1      -4.220  11.236  16.068  0.00  0.00    +0.000 NA
ATOM     27  C   UNL     1      -3.066  10.755  15.670  0.00  0.00    +0.000 A 
ATOM     28  O   UNL     1      -2.107  10.660  16.630  0.00  0.00    +0.000 OA
ENDBRANCH  22  24
ENDBRANCH   1  20
TORSDOF 3
ENDMDL
MODEL 4
REMARK VINA RESULT:      -8.3      3.441      9.276
REMARK  Name = 
REMARK  3 active torsions:
REMARK  status: ('A' for Active; 'I' for Inactive)
REMARK    1  A    between atoms: C_3  and  N_4
REMARK    2  A    between atoms: C_9  and  C_10
REMARK    3  A    between atoms: C_21  and  C_22
REMARK                            x       y       z     vdW  Elec       q    Type
REMARK                         _______ _______ _______ _____ _____    ______ ____
ROOT
ATOM      1  N   UNL     1       1.939   6.434  20.499  0.00  0.00    +0.000 N 
ATOM      2  C   UNL     1       1.868   7.578  19.703  0.00  0.00    +0.000 A 
ATOM      3  N   UNL     1       2.204   7.489  18.404  0.00  0.00    +0.000 NA
ATOM      4  C   UNL     1       2.116   8.592  17.650  0.00  0.00    +0.000 A 
ATOM      5  C   UNL     1       1.712   9.798  18.147  0.00  0.00    +0.000 A 
ATOM      6  C   UNL     1       1.387   9.809  19.487  0.00  0.00    +0.000 A 
ATOM      7  N   UNL     1       1.445   8.711  20.275  0.00  0.00    +0.000 NA
ATOM      8  H   UNL     1       1.664   6.618  21.452  0.00  0.00    +0.000 HD
ENDROOT
BRANCH   6   9
ATOM      9  C   UNL     1       0.975  11.050  20.117  0.00  0.00    +0.000 A 
ATOM     10  C   UNL     1       1.260  12.387  19.745  0.00  0.00    +0.000 A 
ATOM     11  N   UNL     1       0.670  13.287  20.529  0.00  0.00    +0.000 NA
ATOM     12  N   UNL     1       0.002  12.543  21.427  0.00  0.00    +0.000 N 
ATOM     13  N   UNL     1      -0.751  13.155  22.366  0.00  0.00    +0.000 NA
ATOM     14  C   UNL     1      -1.345  12.318  23.152  0.00  0.00    +0.000 A 
ATOM     15  C   UNL     1      -1.250  10.840  23.100  0.00  0.00    +0.000 A 
ATOM     16  C   UNL     1      -0.492  10.314  22.131  0.00  0.00    +0.000 A 
ATOM     17  C   UNL     1       0.169  11.186  21.232  0.00  0.00    +0.000 A 
ENDBRANCH   6   9
BRANCH   1  20
ATOM     18  C   UNL     1       3.097   2.916  20.447  0.00  0.00    +0.000 A 
ATOM     19  C   UNL     1       2.361   4.058  20.773  0.00  0.00    +0.000 A 
ATOM     20  C   UNL     1       2.745   5.306  20.281  0.00  0.00    +0.000 A 
ATOM     21  C   UNL     1       3.910   5.386  19.504  0.00  0.00    +0.000 A 
ATOM     22  C   UNL     1       4.656   4.255  19.152  0.00  0.00    +0.000 A 
ATOM     23  C   UNL     1       4.232   3.012  19.635  0.00  0.00    +0.000 A 
BRANCH  22  24
ATOM     24  C   UNL     1       5.804   4.406  18.271  0.00  0.00    +0.000 A 
ATOM     25  C   UNL     1       5.984   4.477  16.903  0.00  0.00    +0.000 A 
ATOM     26  N   UNL     1       7.315   4.596  16.599  0.00  0.00    +0.000 NA
ATOM     27  C   UNL     1       7.890   4.589  17.779  0.00  0.00    +0.000 A 
ATOM     28  O   UNL     1       7.048   4.479  18.842  0.00  0.00    +0.000 OA
ENDBRANCH  22  24
ENDBRANCH   1  20
TORSDOF 3
ENDMDL
MODEL 5
REMARK VINA RESULT:      -8.1      3.279      8.779
REMARK  Name = 
REMARK  3 active torsions:
REMARK  status: ('A' for Active; 'I' for Inactive)
REMARK    1  A    between atoms: C_3  and  N_4
REMARK    2  A    between atoms: C_9  and  C_10
REMARK    3  A    between atoms: C_21  and  C_22
REMARK                            x       y       z     vdW  Elec       q    Type
REMARK                         _______ _______ _______ _____ _____    ______ ____
ROOT
ATOM      1  N   UNL     1       2.609   8.379  17.633  0.00  0.00    +0.000 N 
ATOM      2  C   UNL     1       1.759   8.706  18.690  0.00  0.00    +0.000 A 
ATOM      3  N   UNL     1       2.027   8.221  19.915  0.00  0.00    +0.000 NA
ATOM      4  C   UNL     1       1.210   8.556  20.921  0.00  0.00    +0.000 A 
ATOM      5  C   UNL     1       0.116   9.355  20.751  0.00  0.00    +0.000 A 
ATOM      6  C   UNL     1      -0.093   9.812  19.467  0.00  0.00    +0.000 A 
ATOM      7  N   UNL     1       0.721   9.510  18.429  0.00  0.00    +0.000 NA
ATOM      8  H   UNL     1       2.313   8.798  16.764  0.00  0.00    +0.000 HD
ENDROOT
BRANCH   6   9
ATOM      9  C   UNL     1      -1.247  10.644  19.178  0.00  0.00    +0.000 A 
ATOM     10  C   UNL     1      -1.758  11.754  19.893  0.00  0.00    +0.000 A 
ATOM     11  N   UNL     1      -2.812  12.317  19.305  0.00  0.00    +0.000 NA
ATOM     12  N   UNL     1      -3.004  11.569  18.205  0.00  0.00    +0.000 N 
ATOM     13  N   UNL     1      -3.993  11.896  17.345  0.00  0.00    +0.000 NA
ATOM     14  C   UNL     1      -4.052  11.101  16.328  0.00  0.00    +0.000 A 
ATOM     15  C   UNL     1      -3.178   9.932  16.070  0.00  0.00    +0.000 A 
ATOM     16  C   UNL     1      -2.215   9.685  16.966  0.00  0.00    +0.000 A 
ATOM     17  C   UNL     1      -2.096  10.535  18.092  0.00  0.00    +0.000 A 
ENDBRANCH   6   9
BRANCH   1  20
ATOM     18  C   UNL     1       5.643   6.289  17.243  0.00  0.00    +0.000 A 
ATOM     19  C   UNL     1       4.790   7.395  17.211  0.00  0.00    +0.000 A 
ATOM     20  C   UNL     1       3.441   7.253  17.539  0.00  0.00    +0.000 A 
ATOM     21  C   UNL     1       2.961   5.970  17.844  0.00  0.00    +0.000 A 
ATOM     22  C   UNL     1       3.798   4.850  17.896  0.00  0.00    +0.000 A 
ATOM     23  C   UNL     1       5.152   5.026  17.592  0.00  0.00    +0.000 A 
BRANCH  22  24
ATOM     24  C   UNL     1       3.245   3.567  18.304  0.00  0.00    +0.000 A 
ATOM     25  C   UNL     1       2.093   3.160  18.949  0.00  0.00    +0.000 A 
ATOM     26  N   UNL     1       2.088   1.799  19.108  0.00  0.00    +0.000 NA
ATOM     27  C   UNL     1       3.224   1.432  18.563  0.00  0.00    +0.000 A 
ATOM     28  O   UNL     1       3.982   2.439  18.052  0.00  0.00    +0.000 OA
ENDBRANCH  22  24
ENDBRANCH   1  20
TORSDOF 3
ENDMDL
MODEL 6
REMARK VINA RESULT:      -8.0      2.388      2.658
REMARK  Name = 
REMARK  3 active torsions:
REMARK  status: ('A' for Active; 'I' for Inactive)
REMARK    1  A    between atoms: C_3  and  N_4
REMARK    2  A    between atoms: C_9  and  C_10
REMARK    3  A    between atoms: C_21  and  C_22
REMARK                            x       y       z     vdW  Elec       q    Type
REMARK                         _______ _______ _______ _____ _____    ______ ____
ROOT
ATOM      1  N   UNL     1       1.867   8.344  19.603  0.00  0.00    +0.000 N 
ATOM      2  C   UNL     1       2.389   7.056  19.734  0.00  0.00    +0.000 A 
ATOM      3  N   UNL     1       1.693   6.139  20.429  0.00  0.00    +0.000 NA
ATOM      4  C   UNL     1       2.201   4.905  20.533  0.00  0.00    +0.000 A 
ATOM      5  C   UNL     1       3.395   4.546  19.976  0.00  0.00    +0.000 A 
ATOM      6  C   UNL     1       4.049   5.541  19.281  0.00  0.00    +0.000 A 
ATOM      7  N   UNL     1       3.558   6.794  19.138  0.00  0.00    +0.000 NA
ATOM      8  H   UNL     1       2.471   8.944  19.063  0.00  0.00    +0.000 HD
ENDROOT
BRANCH   6   9
ATOM      9  C   UNL     1       5.340   5.267  18.676  0.00  0.00    +0.000 A 
ATOM     10  C   UNL     1       6.593   5.036  19.295  0.00  0.00    +0.000 A 
ATOM     11  N   UNL     1       7.564   4.763  18.426  0.00  0.00    +0.000 NA
ATOM     12  N   UNL     1       6.954   4.827  17.230  0.00  0.00    +0.000 N 
ATOM     13  N   UNL     1       7.659   4.559  16.110  0.00  0.00    +0.000 NA
ATOM     14  C   UNL     1       6.943   4.645  15.038  0.00  0.00    +0.000 A 
ATOM     15  C   UNL     1       5.507   5.003  14.962  0.00  0.00    +0.000 A 
ATOM     16  C   UNL     1       4.880   5.241  16.120  0.00  0.00    +0.000 A 
ATOM     17  C   UNL     1       5.614   5.146  17.327  0.00  0.00    +0.000 A 
ENDBRANCH   6   9
BRANCH   1  20
ATOM     18  C   UNL     1      -0.180   9.086  22.600  0.00  0.00    +0.000 A 
ATOM     19  C   UNL     1       0.628   8.397  21.691  0.00  0.00    +0.000 A 
ATOM     20  C   UNL     1       0.955   8.974  20.464  0.00  0.00    +0.000 A 
ATOM     21  C   UNL     1       0.410  10.228  20.151  0.00  0.00    +0.000 A 
ATOM     22  C   UNL     1      -0.389  10.944  21.050  0.00  0.00    +0.000 A 
ATOM     23  C   UNL     1      -0.678  10.354  22.285  0.00  0.00    +0.000 A 
BRANCH  22  24
ATOM     24  C   UNL     1      -0.847  12.277  20.688  0.00  0.00    +0.000 A 
ATOM     25  C   UNL     1      -0.269  13.380  20.091  0.00  0.00    +0.000 A 
ATOM     26  N   UNL     1      -1.170  14.411  20.014  0.00  0.00    +0.000 NA
ATOM     27  C   UNL     1      -2.248  13.904  20.563  0.00  0.00    +0.000 A 
ATOM     28  O   UNL     1      -2.138  12.618  20.996  0.00  0.00    +0.000 OA
ENDBRANCH  22  24
ENDBRANCH   1  20
TORSDOF 3
ENDMDL
MODEL 7
REMARK VINA RESULT:      -7.9      2.592      9.114
REMARK  Name = 
REMARK  3 active torsions:
REMARK  status: ('A' for Active; 'I' for Inactive)
REMARK    1  A    between atoms: C_3  and  N_4
REMARK    2  A    between atoms: C_9  and  C_10
REMARK    3  A    between atoms: C_21  and  C_22
REMARK                            x       y       z     vdW  Elec       q    Type
REMARK                         _______ _______ _______ _____ _____    ______ ____
ROOT
ATOM      1  N   UNL     1       2.287   7.990  18.158  0.00  0.00    +0.000 N 
ATOM      2  C   UNL     1       1.574   8.503  19.242  0.00  0.00    +0.000 A 
ATOM      3  N   UNL     1       1.881   8.081  20.482  0.00  0.00    +0.000 NA
ATOM      4  C   UNL     1       1.198   8.594  21.512  0.00  0.00    +0.000 A 
ATOM      5  C   UNL     1       0.200   9.513  21.355  0.00  0.00    +0.000 A 
ATOM      6  C   UNL     1      -0.057   9.894  20.055  0.00  0.00    +0.000 A 
ATOM      7  N   UNL     1       0.625   9.412  18.991  0.00  0.00    +0.000 NA
ATOM      8  H   UNL     1       1.973   8.377  17.281  0.00  0.00    +0.000 HD
ENDROOT
BRANCH   6   9
ATOM      9  C   UNL     1      -1.119  10.844  19.781  0.00  0.00    +0.000 A 
ATOM     10  C   UNL     1      -1.394  12.090  20.396  0.00  0.00    +0.000 A 
ATOM     11  N   UNL     1      -2.429  12.727  19.852  0.00  0.00    +0.000 NA
ATOM     12  N   UNL     1      -2.845  11.895  18.883  0.00  0.00    +0.000 N 
ATOM     13  N   UNL     1      -3.879  12.260  18.094  0.00  0.00    +0.000 NA
ATOM     14  C   UNL     1      -4.161  11.371  17.199  0.00  0.00    +0.000 A 
ATOM     15  C   UNL     1      -3.482  10.068  17.006  0.00  0.00    +0.000 A 
ATOM     16  C   UNL     1      -2.460   9.789  17.823  0.00  0.00    +0.000 A 
ATOM     17  C   UNL     1      -2.098  10.735  18.812  0.00  0.00    +0.000 A 
ENDBRANCH   6   9
BRANCH   1  20
ATOM     18  C   UNL     1       3.093   4.410  18.663  0.00  0.00    +0.000 A 
ATOM     19  C   UNL     1       2.494   5.663  18.822  0.00  0.00    +0.000 A 
ATOM     20  C   UNL     1       2.963   6.761  18.100  0.00  0.00    +0.000 A 
ATOM     21  C   UNL     1       4.075   6.585  17.264  0.00  0.00    +0.000 A 
ATOM     22  C   UNL     1       4.683   5.338  17.079  0.00  0.00    +0.000 A 
ATOM     23  C   UNL     1       4.175   4.246  17.792  0.00  0.00    +0.000 A 
BRANCH  22  24
ATOM     24  C   UNL     1       5.779   5.214  16.128  0.00  0.00    +0.000 A 
ATOM     25  C   UNL     1       7.104   5.601  16.110  0.00  0.00    +0.000 A 
ATOM     26  N   UNL     1       7.691   5.246  14.923  0.00  0.00    +0.000 NA
ATOM     27  C   UNL     1       6.712   4.666  14.270  0.00  0.00    +0.000 A 
ATOM     28  O   UNL     1       5.523   4.603  14.929  0.00  0.00    +0.000 OA
ENDBRANCH  22  24
ENDBRANCH   1  20
TORSDOF 3
ENDMDL
MODEL 8
REMARK VINA RESULT:      -7.9      3.126      9.479
REMARK  Name = 
REMARK  3 active torsions:
REMARK  status: ('A' for Active; 'I' for Inactive)
REMARK    1  A    between atoms: C_3  and  N_4
REMARK    2  A    between atoms: C_9  and  C_10
REMARK    3  A    between atoms: C_21  and  C_22
REMARK                            x       y       z     vdW  Elec       q    Type
REMARK                         _______ _______ _______ _____ _____    ______ ____
ROOT
ATOM      1  N   UNL     1       2.402   8.021  18.230  0.00  0.00    +0.000 N 
ATOM      2  C   UNL     1       1.660   8.436  19.337  0.00  0.00    +0.000 A 
ATOM      3  N   UNL     1       1.765   7.746  20.487  0.00  0.00    +0.000 NA
ATOM      4  C   UNL     1       1.058   8.167  21.543  0.00  0.00    +0.000 A 
ATOM      5  C   UNL     1       0.231   9.253  21.497  0.00  0.00    +0.000 A 
ATOM      6  C   UNL     1       0.176   9.906  20.283  0.00  0.00    +0.000 A 
ATOM      7  N   UNL     1       0.890   9.522  19.200  0.00  0.00    +0.000 NA
ATOM      8  H   UNL     1       2.246   8.611  17.427  0.00  0.00    +0.000 HD
ENDROOT
BRANCH   6   9
ATOM      9  C   UNL     1      -0.696  11.055  20.123  0.00  0.00    +0.000 A 
ATOM     10  C   UNL     1      -1.386  11.509  18.973  0.00  0.00    +0.000 A 
ATOM     11  N   UNL     1      -2.145  12.578  19.204  0.00  0.00    +0.000 NA
ATOM     12  N   UNL     1      -1.947  12.837  20.508  0.00  0.00    +0.000 N 
ATOM     13  N   UNL     1      -2.612  13.859  21.089  0.00  0.00    +0.000 NA
ATOM     14  C   UNL     1      -2.335  13.983  22.345  0.00  0.00    +0.000 A 
ATOM     15  C   UNL     1      -1.395  13.146  23.128  0.00  0.00    +0.000 A 
ATOM     16  C   UNL     1      -0.787  12.147  22.479  0.00  0.00    +0.000 A 
ATOM     17  C   UNL     1      -1.066  11.956  21.103  0.00  0.00    +0.000 A 
ENDBRANCH   6   9
BRANCH   1  20
ATOM     18  C   UNL     1       2.595   4.326  18.047  0.00  0.00    +0.000 A 
ATOM     19  C   UNL     1       2.174   5.609  18.407  0.00  0.00    +0.000 A 
ATOM     20  C   UNL     1       2.889   6.728  17.981  0.00  0.00    +0.000 A 
ATOM     21  C   UNL     1       4.060   6.527  17.236  0.00  0.00    +0.000 A 
ATOM     22  C   UNL     1       4.494   5.253  16.851  0.00  0.00    +0.000 A 
ATOM     23  C   UNL     1       3.742   4.149  17.267  0.00  0.00    +0.000 A 
BRANCH  22  24
ATOM     24  C   UNL     1       5.672   5.128  16.004  0.00  0.00    +0.000 A 
ATOM     25  C   UNL     1       6.997   5.502  16.112  0.00  0.00    +0.000 A 
ATOM     26  N   UNL     1       7.687   5.153  14.980  0.00  0.00    +0.000 NA
ATOM     27  C   UNL     1       6.767   4.587  14.235  0.00  0.00    +0.000 A 
ATOM     28  O   UNL     1       5.522   4.530  14.780  0.00  0.00    +0.000 OA
ENDBRANCH  22  24
ENDBRANCH   1  20
TORSDOF 3
ENDMDL
MODEL 9
REMARK VINA RESULT:      -7.9      3.306      8.977
REMARK  Name = 
REMARK  3 active torsions:
REMARK  status: ('A' for Active; 'I' for Inactive)
REMARK    1  A    between atoms: C_3  and  N_4
REMARK    2  A    between atoms: C_9  and  C_10
REMARK    3  A    between atoms: C_21  and  C_22
REMARK                            x       y       z     vdW  Elec       q    Type
REMARK                         _______ _______ _______ _____ _____    ______ ____
ROOT
ATOM      1  N   UNL     1       2.038   6.192  20.584  0.00  0.00    +0.000 N 
ATOM      2  C   UNL     1       1.882   7.359  19.836  0.00  0.00    +0.000 A 
ATOM      3  N   UNL     1       2.144   7.327  18.517  0.00  0.00    +0.000 NA
ATOM      4  C   UNL     1       1.975   8.452  17.811  0.00  0.00    +0.000 A 
ATOM      5  C   UNL     1       1.561   9.625  18.374  0.00  0.00    +0.000 A 
ATOM      6  C   UNL     1       1.314   9.578  19.730  0.00  0.00    +0.000 A 
ATOM      7  N   UNL     1       1.456   8.456  20.473  0.00  0.00    +0.000 NA
ATOM      8  H   UNL     1       1.813   6.333  21.557  0.00  0.00    +0.000 HD
ENDROOT
BRANCH   6   9
ATOM      9  C   UNL     1       0.899  10.781  20.427  0.00  0.00    +0.000 A 
ATOM     10  C   UNL     1       0.083  10.920  21.577  0.00  0.00    +0.000 A 
ATOM     11  N   UNL     1      -0.050  12.183  21.977  0.00  0.00    +0.000 NA
ATOM     12  N   UNL     1       0.671  12.881  21.083  0.00  0.00    +0.000 N 
ATOM     13  N   UNL     1       0.782  14.220  21.221  0.00  0.00    +0.000 NA
ATOM     14  C   UNL     1       1.512  14.757  20.300  0.00  0.00    +0.000 A 
ATOM     15  C   UNL     1       2.178  14.052  19.179  0.00  0.00    +0.000 A 
ATOM     16  C   UNL     1       2.027  12.724  19.123  0.00  0.00    +0.000 A 
ATOM     17  C   UNL     1       1.248  12.082  20.116  0.00  0.00    +0.000 A 
ENDBRANCH   6   9
BRANCH   1  20
ATOM     18  C   UNL     1       3.322   2.724  20.363  0.00  0.00    +0.000 A 
ATOM     19  C   UNL     1       2.570   3.829  20.770  0.00  0.00    +0.000 A 
ATOM     20  C   UNL     1       2.867   5.101  20.279  0.00  0.00    +0.000 A 
ATOM     21  C   UNL     1       3.964   5.243  19.417  0.00  0.00    +0.000 A 
ATOM     22  C   UNL     1       4.724   4.150  18.984  0.00  0.00    +0.000 A 
ATOM     23  C   UNL     1       4.386   2.882  19.469  0.00  0.00    +0.000 A 
BRANCH  22  24
ATOM     24  C   UNL     1       5.794   4.364  18.021  0.00  0.00    +0.000 A 
ATOM     25  C   UNL     1       7.105   4.791  18.096  0.00  0.00    +0.000 A 
ATOM     26  N   UNL     1       7.668   4.836  16.847  0.00  0.00    +0.000 NA
ATOM     27  C   UNL     1       6.688   4.443  16.067  0.00  0.00    +0.000 A 
ATOM     28  O   UNL     1       5.522   4.137  16.697  0.00  0.00    +0.000 OA
ENDBRANCH  22  24
ENDBRANCH   1  20
TORSDOF 3
ENDMDL
