MODEL 1
REMARK VINA RESULT:      -7.9      0.000      0.000
REMARK  Name = 
REMARK  11 active torsions:
REMARK  status: ('A' for Active; 'I' for Inactive)
REMARK    1  A    between atoms: C_1  and  O_2
REMARK    2  A    between atoms: O_2  and  C_3
REMARK    3  A    between atoms: C_6  and  O_7
REMARK    4  A    between atoms: O_7  and  C_8
REMARK    5  A    between atoms: C_9  and  N_10
REMARK    6  A    between atoms: C_11  and  C_13
REMARK    7  A    between atoms: C_13  and  C_14
REMARK    8  A    between atoms: C_14  and  N_15
REMARK    9  A    between atoms: N_15  and  S_16
REMARK   10  A    between atoms: S_16  and  C_19
REMARK   11  A    between atoms: C_24  and  O_25
REMARK                            x       y       z     vdW  Elec       q    Type
REMARK                         _______ _______ _______ _____ _____    ______ ____
ROOT
ATOM      1  C   UNL     1       3.381   2.727  20.819  0.00  0.00    +0.000 C 
ENDROOT
BRANCH   1   2
ATOM      2  N   UNL     1       3.690   3.513  19.607  0.00  0.00    +0.000 NA
ATOM      3  H   UNL     1       4.512   4.112  19.697  0.00  0.00    +0.000 HD
BRANCH   2   4
ATOM      4  S   UNL     1       3.529   2.856  18.073  0.00  0.00    +0.000 S 
ATOM      5  O   UNL     1       3.765   1.433  18.129  0.00  0.00    +0.000 OA
ATOM      6  O   UNL     1       2.302   3.389  17.525  0.00  0.00    +0.000 OA
BRANCH   4   7
ATOM      7  C   UNL     1       4.874   3.612  17.192  0.00  0.00    +0.000 A 
ATOM      8  C   UNL     1       5.842   4.319  17.927  0.00  0.00    +0.000 A 
ATOM      9  C   UNL     1       6.884   4.995  17.277  0.00  0.00    +0.000 A 
ATOM     10  C   UNL     1       6.927   4.947  15.879  0.00  0.00    +0.000 A 
ATOM     11  N   UNL     1       7.810   5.507  14.991  0.00  0.00    +0.000 NA
ATOM     12  C   UNL     1       7.325   5.116  13.842  0.00  0.00    +0.000 A 
ATOM     13  O   UNL     1       6.211   4.346  13.859  0.00  0.00    +0.000 OA
ATOM     14  C   UNL     1       5.946   4.237  15.195  0.00  0.00    +0.000 A 
ATOM     15  C   UNL     1       4.893   3.554  15.792  0.00  0.00    +0.000 A 
BRANCH  12  16
ATOM     16  O   UNL     1       7.838   5.408  12.671  0.00  0.00    +0.000 OA
ATOM     17  H   UNL     1       8.164   4.539  12.384  0.00  0.00    +0.000 HD
ENDBRANCH  12  16
ENDBRANCH   4   7
ENDBRANCH   2   4
ENDBRANCH   1   2
BRANCH   1  18
ATOM     18  C   UNL     1       2.124   3.216  21.532  0.00  0.00    +0.000 C 
BRANCH  18  20
ATOM     19  N   UNL     1       2.201   5.568  20.936  0.00  0.00    +0.000 N 
ATOM     20  C   UNL     1       1.518   4.374  20.758  0.00  0.00    +0.000 C 
ATOM     21  O   UNL     1       0.486   4.183  20.125  0.00  0.00    +0.000 OA
ATOM     22  H   UNL     1       2.864   5.578  21.705  0.00  0.00    +0.000 HD
BRANCH  19  27
ATOM     23  C   UNL     1       0.741   8.964  20.745  0.00  0.00    +0.000 A 
ATOM     24  C   UNL     1       1.149   9.405  19.492  0.00  0.00    +0.000 A 
ATOM     25  C   UNL     1       1.931   8.588  18.684  0.00  0.00    +0.000 A 
ATOM     26  C   UNL     1       2.313   7.308  19.110  0.00  0.00    +0.000 A 
ATOM     27  C   UNL     1       1.899   6.840  20.376  0.00  0.00    +0.000 A 
ATOM     28  C   UNL     1       1.128   7.697  21.192  0.00  0.00    +0.000 A 
BRANCH  23  30
ATOM     29  C   UNL     1       0.057   9.747  22.870  0.00  0.00    +0.000 C 
ATOM     30  O   UNL     1       0.012   9.877  21.455  0.00  0.00    +0.000 OA
ENDBRANCH  23  30
BRANCH  26  31
ATOM     31  O   UNL     1       3.205   6.579  18.371  0.00  0.00    +0.000 OA
ATOM     32  C   UNL     1       3.900   7.318  17.369  0.00  0.00    +0.000 C 
ENDBRANCH  26  31
ENDBRANCH  19  27
ENDBRANCH  18  20
ENDBRANCH   1  18
TORSDOF 9
ENDMDL
MODEL 2
REMARK VINA RESULT:      -7.3      2.265      3.715
REMARK  Name = 
REMARK  11 active torsions:
REMARK  status: ('A' for Active; 'I' for Inactive)
REMARK    1  A    between atoms: C_1  and  O_2
REMARK    2  A    between atoms: O_2  and  C_3
REMARK    3  A    between atoms: C_6  and  O_7
REMARK    4  A    between atoms: O_7  and  C_8
REMARK    5  A    between atoms: C_9  and  N_10
REMARK    6  A    between atoms: C_11  and  C_13
REMARK    7  A    between atoms: C_13  and  C_14
REMARK    8  A    between atoms: C_14  and  N_15
REMARK    9  A    between atoms: N_15  and  S_16
REMARK   10  A    between atoms: S_16  and  C_19
REMARK   11  A    between atoms: C_24  and  O_25
REMARK                            x       y       z     vdW  Elec       q    Type
REMARK                         _______ _______ _______ _____ _____    ______ ____
ROOT
ATOM      1  C   UNL     1       2.368   6.706  19.656  0.00  0.00    +0.000 C 
ENDROOT
BRANCH   1   2
ATOM      2  N   UNL     1       3.351   5.659  19.997  0.00  0.00    +0.000 NA
ATOM      3  H   UNL     1       3.525   5.560  20.998  0.00  0.00    +0.000 HD
BRANCH   2   4
ATOM      4  S   UNL     1       3.385   4.192  19.185  0.00  0.00    +0.000 S 
ATOM      5  O   UNL     1       3.765   3.142  20.100  0.00  0.00    +0.000 OA
ATOM      6  O   UNL     1       2.157   4.114  18.427  0.00  0.00    +0.000 OA
BRANCH   4   7
ATOM      7  C   UNL     1       4.709   4.429  18.024  0.00  0.00    +0.000 A 
ATOM      8  C   UNL     1       5.928   4.947  18.496  0.00  0.00    +0.000 A 
ATOM      9  C   UNL     1       6.981   5.221  17.612  0.00  0.00    +0.000 A 
ATOM     10  C   UNL     1       6.780   4.968  16.251  0.00  0.00    +0.000 A 
ATOM     11  N   UNL     1       7.612   5.142  15.175  0.00  0.00    +0.000 NA
ATOM     12  C   UNL     1       6.864   4.738  14.183  0.00  0.00    +0.000 A 
ATOM     13  O   UNL     1       5.614   4.305  14.474  0.00  0.00    +0.000 OA
ATOM     14  C   UNL     1       5.556   4.458  15.831  0.00  0.00    +0.000 A 
ATOM     15  C   UNL     1       4.481   4.173  16.665  0.00  0.00    +0.000 A 
BRANCH  12  16
ATOM     16  O   UNL     1       7.232   4.715  12.925  0.00  0.00    +0.000 OA
ATOM     17  H   UNL     1       8.161   4.991  12.993  0.00  0.00    +0.000 HD
ENDBRANCH  12  16
ENDBRANCH   4   7
ENDBRANCH   2   4
ENDBRANCH   1   2
BRANCH   1  18
ATOM     18  C   UNL     1       2.794   7.543  18.454  0.00  0.00    +0.000 C 
BRANCH  18  20
ATOM     19  N   UNL     1       1.104   8.953  19.479  0.00  0.00    +0.000 N 
ATOM     20  C   UNL     1       1.966   8.815  18.401  0.00  0.00    +0.000 C 
ATOM     21  O   UNL     1       2.072   9.546  17.424  0.00  0.00    +0.000 OA
ATOM     22  H   UNL     1       0.971   8.115  20.038  0.00  0.00    +0.000 HD
BRANCH  19  27
ATOM     23  C   UNL     1      -1.654  11.327  18.802  0.00  0.00    +0.000 A 
ATOM     24  C   UNL     1      -1.726  12.060  19.981  0.00  0.00    +0.000 A 
ATOM     25  C   UNL     1      -0.865  11.775  21.035  0.00  0.00    +0.000 A 
ATOM     26  C   UNL     1       0.090  10.755  20.927  0.00  0.00    +0.000 A 
ATOM     27  C   UNL     1       0.183  10.007  19.734  0.00  0.00    +0.000 A 
ATOM     28  C   UNL     1      -0.718  10.295  18.686  0.00  0.00    +0.000 A 
BRANCH  23  30
ATOM     29  C   UNL     1      -3.943  11.535  18.241  0.00  0.00    +0.000 C 
ATOM     30  O   UNL     1      -2.580  11.680  17.861  0.00  0.00    +0.000 OA
ENDBRANCH  23  30
BRANCH  26  31
ATOM     31  O   UNL     1       0.824  10.387  22.023  0.00  0.00    +0.000 OA
ATOM     32  C   UNL     1       0.126   9.581  22.970  0.00  0.00    +0.000 C 
ENDBRANCH  26  31
ENDBRANCH  19  27
ENDBRANCH  18  20
ENDBRANCH   1  18
TORSDOF 9
ENDMDL
MODEL 3
REMARK VINA RESULT:      -7.3      1.930      2.262
REMARK  Name = 
REMARK  11 active torsions:
REMARK  status: ('A' for Active; 'I' for Inactive)
REMARK    1  A    between atoms: C_1  and  O_2
REMARK    2  A    between atoms: O_2  and  C_3
REMARK    3  A    between atoms: C_6  and  O_7
REMARK    4  A    between atoms: O_7  and  C_8
REMARK    5  A    between atoms: C_9  and  N_10
REMARK    6  A    between atoms: C_11  and  C_13
REMARK    7  A    between atoms: C_13  and  C_14
REMARK    8  A    between atoms: C_14  and  N_15
REMARK    9  A    between atoms: N_15  and  S_16
REMARK   10  A    between atoms: S_16  and  C_19
REMARK   11  A    between atoms: C_24  and  O_25
REMARK                            x       y       z     vdW  Elec       q    Type
REMARK                         _______ _______ _______ _____ _____    ______ ____
ROOT
ATOM      1  C   UNL     1       2.136   2.999  21.110  0.00  0.00    +0.000 C 
ENDROOT
BRANCH   1   2
ATOM      2  N   UNL     1       2.438   2.613  19.717  0.00  0.00    +0.000 NA
ATOM      3  H   UNL     1       2.008   3.216  19.014  0.00  0.00    +0.000 HD
BRANCH   2   4
ATOM      4  S   UNL     1       3.961   2.077  19.267  0.00  0.00    +0.000 S 
ATOM      5  O   UNL     1       4.786   1.922  20.443  0.00  0.00    +0.000 OA
ATOM      6  O   UNL     1       3.756   0.979  18.350  0.00  0.00    +0.000 OA
BRANCH   4   7
ATOM      7  C   UNL     1       4.585   3.447  18.323  0.00  0.00    +0.000 A 
ATOM      8  C   UNL     1       4.226   3.543  16.967  0.00  0.00    +0.000 A 
ATOM      9  C   UNL     1       4.746   4.562  16.158  0.00  0.00    +0.000 A 
ATOM     10  C   UNL     1       5.635   5.474  16.738  0.00  0.00    +0.000 A 
ATOM     11  N   UNL     1       6.294   6.549  16.199  0.00  0.00    +0.000 NA
ATOM     12  C   UNL     1       6.971   6.995  17.224  0.00  0.00    +0.000 A 
ATOM     13  O   UNL     1       6.837   6.338  18.401  0.00  0.00    +0.000 OA
ATOM     14  C   UNL     1       5.962   5.337  18.083  0.00  0.00    +0.000 A 
ATOM     15  C   UNL     1       5.477   4.344  18.926  0.00  0.00    +0.000 A 
BRANCH  12  16
ATOM     16  O   UNL     1       7.769   8.035  17.203  0.00  0.00    +0.000 OA
ATOM     17  H   UNL     1       8.476   7.744  17.802  0.00  0.00    +0.000 HD
ENDBRANCH  12  16
ENDBRANCH   4   7
ENDBRANCH   2   4
ENDBRANCH   1   2
BRANCH   1  18
ATOM     18  C   UNL     1       2.601   4.413  21.442  0.00  0.00    +0.000 C 
BRANCH  18  20
ATOM     19  N   UNL     1       2.135   6.727  20.872  0.00  0.00    +0.000 N 
ATOM     20  C   UNL     1       1.676   5.421  20.782  0.00  0.00    +0.000 C 
ATOM     21  O   UNL     1       0.618   5.025  20.307  0.00  0.00    +0.000 OA
ATOM     22  H   UNL     1       2.890   6.877  21.534  0.00  0.00    +0.000 HD
BRANCH  19  27
ATOM     23  C   UNL     1       0.282   9.929  21.003  0.00  0.00    +0.000 A 
ATOM     24  C   UNL     1       0.209  10.297  19.665  0.00  0.00    +0.000 A 
ATOM     25  C   UNL     1       0.784   9.495  18.686  0.00  0.00    +0.000 A 
ATOM     26  C   UNL     1       1.438   8.303  19.027  0.00  0.00    +0.000 A 
ATOM     27  C   UNL     1       1.513   7.908  20.379  0.00  0.00    +0.000 A 
ATOM     28  C   UNL     1       0.946   8.751  21.360  0.00  0.00    +0.000 A 
BRANCH  23  30
ATOM     29  C   UNL     1      -0.825  10.277  23.064  0.00  0.00    +0.000 C 
ATOM     30  O   UNL     1      -0.288  10.823  21.866  0.00  0.00    +0.000 OA
ENDBRANCH  23  30
BRANCH  26  31
ATOM     31  O   UNL     1       2.128   7.605  18.072  0.00  0.00    +0.000 OA
ATOM     32  C   UNL     1       3.390   8.165  17.714  0.00  0.00    +0.000 C 
ENDBRANCH  26  31
ENDBRANCH  19  27
ENDBRANCH  18  20
ENDBRANCH   1  18
TORSDOF 9
ENDMDL
MODEL 4
REMARK VINA RESULT:      -7.2      1.938      7.829
REMARK  Name = 
REMARK  11 active torsions:
REMARK  status: ('A' for Active; 'I' for Inactive)
REMARK    1  A    between atoms: C_1  and  O_2
REMARK    2  A    between atoms: O_2  and  C_3
REMARK    3  A    between atoms: C_6  and  O_7
REMARK    4  A    between atoms: O_7  and  C_8
REMARK    5  A    between atoms: C_9  and  N_10
REMARK    6  A    between atoms: C_11  and  C_13
REMARK    7  A    between atoms: C_13  and  C_14
REMARK    8  A    between atoms: C_14  and  N_15
REMARK    9  A    between atoms: N_15  and  S_16
REMARK   10  A    between atoms: S_16  and  C_19
REMARK   11  A    between atoms: C_24  and  O_25
REMARK                            x       y       z     vdW  Elec       q    Type
REMARK                         _______ _______ _______ _____ _____    ______ ____
ROOT
ATOM      1  C   UNL     1       1.500   3.753  19.599  0.00  0.00    +0.000 C 
ENDROOT
BRANCH   1   2
ATOM      2  N   UNL     1       1.769   5.095  20.152  0.00  0.00    +0.000 NA
ATOM      3  H   UNL     1       2.043   5.094  21.136  0.00  0.00    +0.000 HD
BRANCH   2   4
ATOM      4  S   UNL     1       2.569   6.266  19.258  0.00  0.00    +0.000 S 
ATOM      5  O   UNL     1       3.946   6.345  19.687  0.00  0.00    +0.000 OA
ATOM      6  O   UNL     1       2.231   6.027  17.873  0.00  0.00    +0.000 OA
BRANCH   4   7
ATOM      7  C   UNL     1       1.742   7.758  19.755  0.00  0.00    +0.000 A 
ATOM      8  C   UNL     1       1.650   8.812  18.829  0.00  0.00    +0.000 A 
ATOM      9  C   UNL     1       1.072  10.036  19.191  0.00  0.00    +0.000 A 
ATOM     10  C   UNL     1       0.594  10.177  20.499  0.00  0.00    +0.000 A 
ATOM     11  N   UNL     1      -0.003  11.241  21.125  0.00  0.00    +0.000 NA
ATOM     12  C   UNL     1      -0.212  10.768  22.326  0.00  0.00    +0.000 A 
ATOM     13  O   UNL     1       0.176   9.496  22.577  0.00  0.00    +0.000 OA
ATOM     14  C   UNL     1       0.709   9.106  21.381  0.00  0.00    +0.000 A 
ATOM     15  C   UNL     1       1.276   7.875  21.072  0.00  0.00    +0.000 A 
BRANCH  12  16
ATOM     16  O   UNL     1      -0.774  11.432  23.307  0.00  0.00    +0.000 OA
ATOM     17  H   UNL     1      -1.140  10.708  23.841  0.00  0.00    +0.000 HD
ENDBRANCH  12  16
ENDBRANCH   4   7
ENDBRANCH   2   4
ENDBRANCH   1   2
BRANCH   1  18
ATOM     18  C   UNL     1       2.573   2.736  19.975  0.00  0.00    +0.000 C 
BRANCH  18  20
ATOM     19  N   UNL     1       4.218   3.806  18.545  0.00  0.00    +0.000 N 
ATOM     20  C   UNL     1       3.576   2.612  18.841  0.00  0.00    +0.000 C 
ATOM     21  O   UNL     1       3.682   1.537  18.264  0.00  0.00    +0.000 OA
ATOM     22  H   UNL     1       3.799   4.637  18.953  0.00  0.00    +0.000 HD
BRANCH  19  27
ATOM     23  C   UNL     1       5.600   4.163  15.130  0.00  0.00    +0.000 A 
ATOM     24  C   UNL     1       6.935   4.467  15.368  0.00  0.00    +0.000 A 
ATOM     25  C   UNL     1       7.406   4.573  16.671  0.00  0.00    +0.000 A 
ATOM     26  C   UNL     1       6.552   4.367  17.764  0.00  0.00    +0.000 A 
ATOM     27  C   UNL     1       5.196   4.048  17.540  0.00  0.00    +0.000 A 
ATOM     28  C   UNL     1       4.732   3.973  16.209  0.00  0.00    +0.000 A 
BRANCH  23  30
ATOM     29  C   UNL     1       6.263   3.672  12.913  0.00  0.00    +0.000 C 
ATOM     30  O   UNL     1       5.256   4.128  13.807  0.00  0.00    +0.000 OA
ENDBRANCH  23  30
BRANCH  26  31
ATOM     31  O   UNL     1       6.993   4.623  19.034  0.00  0.00    +0.000 OA
ATOM     32  C   UNL     1       7.694   5.855  19.189  0.00  0.00    +0.000 C 
ENDBRANCH  26  31
ENDBRANCH  19  27
ENDBRANCH  18  20
ENDBRANCH   1  18
TORSDOF 9
ENDMDL
MODEL 5
REMARK VINA RESULT:      -7.0      4.381      8.728
REMARK  Name = 
REMARK  11 active torsions:
REMARK  status: ('A' for Active; 'I' for Inactive)
REMARK    1  A    between atoms: C_1  and  O_2
REMARK    2  A    between atoms: O_2  and  C_3
REMARK    3  A    between atoms: C_6  and  O_7
REMARK    4  A    between atoms: O_7  and  C_8
REMARK    5  A    between atoms: C_9  and  N_10
REMARK    6  A    between atoms: C_11  and  C_13
REMARK    7  A    between atoms: C_13  and  C_14
REMARK    8  A    between atoms: C_14  and  N_15
REMARK    9  A    between atoms: N_15  and  S_16
REMARK   10  A    between atoms: S_16  and  C_19
REMARK   11  A    between atoms: C_24  and  O_25
REMARK                            x       y       z     vdW  Elec       q    Type
REMARK                         _______ _______ _______ _____ _____    ______ ____
ROOT
ATOM      1  C   UNL     1       1.178   9.242  21.212  0.00  0.00    +0.000 C 
ENDROOT
BRANCH   1   2
ATOM      2  N   UNL     1      -0.118   9.699  20.673  0.00  0.00    +0.000 NA
ATOM      3  H   UNL     1      -0.917   9.141  20.979  0.00  0.00    +0.000 HD
BRANCH   2   4
ATOM      4  S   UNL     1      -0.482  11.329  20.529  0.00  0.00    +0.000 S 
ATOM      5  O   UNL     1      -1.148  11.783  21.727  0.00  0.00    +0.000 OA
ATOM      6  O   UNL     1       0.719  11.977  20.051  0.00  0.00    +0.000 OA
BRANCH   4   7
ATOM      7  C   UNL     1      -1.657  11.343  19.196  0.00  0.00    +0.000 A 
ATOM      8  C   UNL     1      -2.921  11.914  19.425  0.00  0.00    +0.000 A 
ATOM      9  C   UNL     1      -3.910  11.888  18.433  0.00  0.00    +0.000 A 
ATOM     10  C   UNL     1      -3.602  11.273  17.214  0.00  0.00    +0.000 A 
ATOM     11  N   UNL     1      -4.360  11.095  16.084  0.00  0.00    +0.000 NA
ATOM     12  C   UNL     1      -3.532  10.456  15.299  0.00  0.00    +0.000 A 
ATOM     13  O   UNL     1      -2.294  10.186  15.777  0.00  0.00    +0.000 OA
ATOM     14  C   UNL     1      -2.339  10.719  17.035  0.00  0.00    +0.000 A 
ATOM     15  C   UNL     1      -1.326  10.717  17.987  0.00  0.00    +0.000 A 
BRANCH  12  16
ATOM     16  O   UNL     1      -3.808  10.058  14.081  0.00  0.00    +0.000 OA
ATOM     17  H   UNL     1      -3.439   9.159  14.086  0.00  0.00    +0.000 HD
ENDBRANCH  12  16
ENDBRANCH   4   7
ENDBRANCH   2   4
ENDBRANCH   1   2
BRANCH   1  18
ATOM     18  C   UNL     1       1.312   7.723  21.212  0.00  0.00    +0.000 C 
BRANCH  18  20
ATOM     19  N   UNL     1       2.676   6.048  20.104  0.00  0.00    +0.000 N 
ATOM     20  C   UNL     1       2.050   7.277  19.962  0.00  0.00    +0.000 C 
ATOM     21  O   UNL     1       2.087   8.034  18.999  0.00  0.00    +0.000 OA
ATOM     22  H   UNL     1       2.753   5.708  21.059  0.00  0.00    +0.000 HD
BRANCH  19  27
ATOM     23  C   UNL     1       5.735   4.748  18.473  0.00  0.00    +0.000 A 
ATOM     24  C   UNL     1       5.230   4.057  17.378  0.00  0.00    +0.000 A 
ATOM     25  C   UNL     1       3.858   3.996  17.161  0.00  0.00    +0.000 A 
ATOM     26  C   UNL     1       2.964   4.634  18.033  0.00  0.00    +0.000 A 
ATOM     27  C   UNL     1       3.460   5.348  19.144  0.00  0.00    +0.000 A 
ATOM     28  C   UNL     1       4.855   5.374  19.361  0.00  0.00    +0.000 A 
BRANCH  23  30
ATOM     29  C   UNL     1       7.722   5.874  19.089  0.00  0.00    +0.000 C 
ATOM     30  O   UNL     1       7.095   4.697  18.594  0.00  0.00    +0.000 OA
ENDBRANCH  23  30
BRANCH  26  31
ATOM     31  O   UNL     1       1.616   4.438  17.892  0.00  0.00    +0.000 OA
ATOM     32  C   UNL     1       1.143   3.172  18.346  0.00  0.00    +0.000 C 
ENDBRANCH  26  31
ENDBRANCH  19  27
ENDBRANCH  18  20
ENDBRANCH   1  18
TORSDOF 9
ENDMDL
MODEL 6
REMARK VINA RESULT:      -7.0      2.312      3.547
REMARK  Name = 
REMARK  11 active torsions:
REMARK  status: ('A' for Active; 'I' for Inactive)
REMARK    1  A    between atoms: C_1  and  O_2
REMARK    2  A    between atoms: O_2  and  C_3
REMARK    3  A    between atoms: C_6  and  O_7
REMARK    4  A    between atoms: O_7  and  C_8
REMARK    5  A    between atoms: C_9  and  N_10
REMARK    6  A    between atoms: C_11  and  C_13
REMARK    7  A    between atoms: C_13  and  C_14
REMARK    8  A    between atoms: C_14  and  N_15
REMARK    9  A    between atoms: N_15  and  S_16
REMARK   10  A    between atoms: S_16  and  C_19
REMARK   11  A    between atoms: C_24  and  O_25
REMARK                            x       y       z     vdW  Elec       q    Type
REMARK                         _______ _______ _______ _____ _____    ______ ____
ROOT
ATOM      1  C   UNL     1       2.351   6.762  18.660  0.00  0.00    +0.000 C 
ENDROOT
BRANCH   1   2
ATOM      2  N   UNL     1       3.369   5.920  19.318  0.00  0.00    +0.000 NA
ATOM      3  H   UNL     1       3.393   6.012  20.335  0.00  0.00    +0.000 HD
BRANCH   2   4
ATOM      4  S   UNL     1       3.680   4.356  18.801  0.00  0.00    +0.000 S 
ATOM      5  O   UNL     1       4.267   3.598  19.880  0.00  0.00    +0.000 OA
ATOM      6  O   UNL     1       2.483   3.900  18.132  0.00  0.00    +0.000 OA
BRANCH   4   7
ATOM      7  C   UNL     1       4.921   4.606  17.554  0.00  0.00    +0.000 A 
ATOM      8  C   UNL     1       6.043   5.390  17.875  0.00  0.00    +0.000 A 
ATOM      9  C   UNL     1       7.016   5.679  16.908  0.00  0.00    +0.000 A 
ATOM     10  C   UNL     1       6.834   5.168  15.618  0.00  0.00    +0.000 A 
ATOM     11  N   UNL     1       7.604   5.290  14.490  0.00  0.00    +0.000 NA
ATOM     12  C   UNL     1       6.916   4.604  13.615  0.00  0.00    +0.000 A 
ATOM     13  O   UNL     1       5.764   4.028  14.034  0.00  0.00    +0.000 OA
ATOM     14  C   UNL     1       5.707   4.399  15.348  0.00  0.00    +0.000 A 
ATOM     15  C   UNL     1       4.713   4.088  16.269  0.00  0.00    +0.000 A 
BRANCH  12  16
ATOM     16  O   UNL     1       7.257   4.428  12.362  0.00  0.00    +0.000 OA
ATOM     17  H   UNL     1       6.405   4.557  11.913  0.00  0.00    +0.000 HD
ENDBRANCH  12  16
ENDBRANCH   4   7
ENDBRANCH   2   4
ENDBRANCH   1   2
BRANCH   1  18
ATOM     18  C   UNL     1       2.964   7.871  17.810  0.00  0.00    +0.000 C 
BRANCH  18  20
ATOM     19  N   UNL     1       1.161   9.036  18.945  0.00  0.00    +0.000 N 
ATOM     20  C   UNL     1       2.200   9.164  18.034  0.00  0.00    +0.000 C 
ATOM     21  O   UNL     1       2.506  10.150  17.374  0.00  0.00    +0.000 OA
ATOM     22  H   UNL     1       0.902   8.081  19.176  0.00  0.00    +0.000 HD
BRANCH  19  27
ATOM     23  C   UNL     1      -0.255  11.681  21.114  0.00  0.00    +0.000 A 
ATOM     24  C   UNL     1      -1.416  12.042  20.441  0.00  0.00    +0.000 A 
ATOM     25  C   UNL     1      -1.751  11.424  19.242  0.00  0.00    +0.000 A 
ATOM     26  C   UNL     1      -0.934  10.423  18.697  0.00  0.00    +0.000 A 
ATOM     27  C   UNL     1       0.244  10.037  19.372  0.00  0.00    +0.000 A 
ATOM     28  C   UNL     1       0.579  10.697  20.574  0.00  0.00    +0.000 A 
BRANCH  23  30
ATOM     29  C   UNL     1      -1.164  12.964  22.882  0.00  0.00    +0.000 C 
ATOM     30  O   UNL     1      -0.022  12.391  22.258  0.00  0.00    +0.000 OA
ENDBRANCH  23  30
BRANCH  26  31
ATOM     31  O   UNL     1      -1.196   9.933  17.446  0.00  0.00    +0.000 OA
ATOM     32  C   UNL     1      -2.579   9.852  17.110  0.00  0.00    +0.000 C 
ENDBRANCH  26  31
ENDBRANCH  19  27
ENDBRANCH  18  20
ENDBRANCH   1  18
TORSDOF 9
ENDMDL
MODEL 7
REMARK VINA RESULT:      -6.9      4.368      8.726
REMARK  Name = 
REMARK  11 active torsions:
REMARK  status: ('A' for Active; 'I' for Inactive)
REMARK    1  A    between atoms: C_1  and  O_2
REMARK    2  A    between atoms: O_2  and  C_3
REMARK    3  A    between atoms: C_6  and  O_7
REMARK    4  A    between atoms: O_7  and  C_8
REMARK    5  A    between atoms: C_9  and  N_10
REMARK    6  A    between atoms: C_11  and  C_13
REMARK    7  A    between atoms: C_13  and  C_14
REMARK    8  A    between atoms: C_14  and  N_15
REMARK    9  A    between atoms: N_15  and  S_16
REMARK   10  A    between atoms: S_16  and  C_19
REMARK   11  A    between atoms: C_24  and  O_25
REMARK                            x       y       z     vdW  Elec       q    Type
REMARK                         _______ _______ _______ _____ _____    ______ ____
ROOT
ATOM      1  C   UNL     1       0.089   9.068  22.068  0.00  0.00    +0.000 C 
ENDROOT
BRANCH   1   2
ATOM      2  N   UNL     1      -0.577   9.596  20.861  0.00  0.00    +0.000 NA
ATOM      3  H   UNL     1      -1.401   9.066  20.573  0.00  0.00    +0.000 HD
BRANCH   2   4
ATOM      4  S   UNL     1      -0.742  11.245  20.603  0.00  0.00    +0.000 S 
ATOM      5  O   UNL     1      -1.432  11.842  21.722  0.00  0.00    +0.000 OA
ATOM      6  O   UNL     1       0.554  11.726  20.180  0.00  0.00    +0.000 OA
BRANCH   4   7
ATOM      7  C   UNL     1      -1.816  11.304  19.188  0.00  0.00    +0.000 A 
ATOM      8  C   UNL     1      -3.058  11.949  19.317  0.00  0.00    +0.000 A 
ATOM      9  C   UNL     1      -3.973  11.963  18.256  0.00  0.00    +0.000 A 
ATOM     10  C   UNL     1      -3.614  11.313  17.070  0.00  0.00    +0.000 A 
ATOM     11  N   UNL     1      -4.297  11.161  15.890  0.00  0.00    +0.000 NA
ATOM     12  C   UNL     1      -3.453  10.464  15.175  0.00  0.00    +0.000 A 
ATOM     13  O   UNL     1      -2.271  10.133  15.744  0.00  0.00    +0.000 OA
ATOM     14  C   UNL     1      -2.375  10.686  16.989  0.00  0.00    +0.000 A 
ATOM     15  C   UNL     1      -1.435  10.642  18.013  0.00  0.00    +0.000 A 
BRANCH  12  16
ATOM     16  O   UNL     1      -3.663  10.064  13.944  0.00  0.00    +0.000 OA
ATOM     17  H   UNL     1      -3.657  10.909  13.465  0.00  0.00    +0.000 HD
ENDBRANCH  12  16
ENDBRANCH   4   7
ENDBRANCH   2   4
ENDBRANCH   1   2
BRANCH   1  18
ATOM     18  C   UNL     1       1.562   8.747  21.834  0.00  0.00    +0.000 C 
BRANCH  18  20
ATOM     19  N   UNL     1       2.063   6.671  20.678  0.00  0.00    +0.000 N 
ATOM     20  C   UNL     1       1.718   8.005  20.518  0.00  0.00    +0.000 C 
ATOM     21  O   UNL     1       1.598   8.632  19.472  0.00  0.00    +0.000 OA
ATOM     22  H   UNL     1       2.377   6.413  21.609  0.00  0.00    +0.000 HD
BRANCH  19  27
ATOM     23  C   UNL     1       3.588   5.190  17.648  0.00  0.00    +0.000 A 
ATOM     24  C   UNL     1       2.944   3.963  17.547  0.00  0.00    +0.000 A 
ATOM     25  C   UNL     1       1.994   3.592  18.492  0.00  0.00    +0.000 A 
ATOM     26  C   UNL     1       1.663   4.447  19.553  0.00  0.00    +0.000 A 
ATOM     27  C   UNL     1       2.301   5.701  19.665  0.00  0.00    +0.000 A 
ATOM     28  C   UNL     1       3.282   6.046  18.710  0.00  0.00    +0.000 A 
BRANCH  23  30
ATOM     29  C   UNL     1       5.068   4.259  16.054  0.00  0.00    +0.000 C 
ATOM     30  O   UNL     1       4.526   5.415  16.680  0.00  0.00    +0.000 OA
ENDBRANCH  23  30
BRANCH  26  31
ATOM     31  O   UNL     1       0.842   4.007  20.556  0.00  0.00    +0.000 OA
ATOM     32  C   UNL     1       1.312   2.856  21.255  0.00  0.00    +0.000 C 
ENDBRANCH  26  31
ENDBRANCH  19  27
ENDBRANCH  18  20
ENDBRANCH   1  18
TORSDOF 9
ENDMDL
MODEL 8
REMARK VINA RESULT:      -6.9      2.128      7.556
REMARK  Name = 
REMARK  11 active torsions:
REMARK  status: ('A' for Active; 'I' for Inactive)
REMARK    1  A    between atoms: C_1  and  O_2
REMARK    2  A    between atoms: O_2  and  C_3
REMARK    3  A    between atoms: C_6  and  O_7
REMARK    4  A    between atoms: O_7  and  C_8
REMARK    5  A    between atoms: C_9  and  N_10
REMARK    6  A    between atoms: C_11  and  C_13
REMARK    7  A    between atoms: C_13  and  C_14
REMARK    8  A    between atoms: C_14  and  N_15
REMARK    9  A    between atoms: N_15  and  S_16
REMARK   10  A    between atoms: S_16  and  C_19
REMARK   11  A    between atoms: C_24  and  O_25
REMARK                            x       y       z     vdW  Elec       q    Type
REMARK                         _______ _______ _______ _____ _____    ______ ____
ROOT
ATOM      1  C   UNL     1       2.856   3.928  20.591  0.00  0.00    +0.000 C 
ENDROOT
BRANCH   1   2
ATOM      2  N   UNL     1       2.056   5.122  20.250  0.00  0.00    +0.000 NA
ATOM      3  H   UNL     1       1.544   5.520  21.039  0.00  0.00    +0.000 HD
BRANCH   2   4
ATOM      4  S   UNL     1       2.633   6.290  19.194  0.00  0.00    +0.000 S 
ATOM      5  O   UNL     1       4.053   6.461  19.391  0.00  0.00    +0.000 OA
ATOM      6  O   UNL     1       2.092   5.969  17.892  0.00  0.00    +0.000 OA
BRANCH   4   7
ATOM      7  C   UNL     1       1.808   7.758  19.762  0.00  0.00    +0.000 A 
ATOM      8  C   UNL     1       1.210   7.740  21.034  0.00  0.00    +0.000 A 
ATOM      9  C   UNL     1       0.486   8.844  21.502  0.00  0.00    +0.000 A 
ATOM     10  C   UNL     1       0.374   9.960  20.665  0.00  0.00    +0.000 A 
ATOM     11  N   UNL     1      -0.266  11.159  20.851  0.00  0.00    +0.000 NA
ATOM     12  C   UNL     1      -0.019  11.777  19.726  0.00  0.00    +0.000 A 
ATOM     13  O   UNL     1       0.725  11.125  18.801  0.00  0.00    +0.000 OA
ATOM     14  C   UNL     1       0.981   9.931  19.414  0.00  0.00    +0.000 A 
ATOM     15  C   UNL     1       1.706   8.861  18.903  0.00  0.00    +0.000 A 
BRANCH  12  16
ATOM     16  O   UNL     1      -0.433  12.984  19.425  0.00  0.00    +0.000 OA
ATOM     17  H   UNL     1      -1.390  12.841  19.339  0.00  0.00    +0.000 HD
ENDBRANCH  12  16
ENDBRANCH   4   7
ENDBRANCH   2   4
ENDBRANCH   1   2
BRANCH   1  18
ATOM     18  C   UNL     1       2.529   2.730  19.705  0.00  0.00    +0.000 C 
BRANCH  18  20
ATOM     19  N   UNL     1       4.232   3.828  18.368  0.00  0.00    +0.000 N 
ATOM     20  C   UNL     1       3.537   2.645  18.572  0.00  0.00    +0.000 C 
ATOM     21  O   UNL     1       3.603   1.610  17.920  0.00  0.00    +0.000 OA
ATOM     22  H   UNL     1       3.845   4.645  18.832  0.00  0.00    +0.000 HD
BRANCH  19  27
ATOM     23  C   UNL     1       5.678   4.293  14.992  0.00  0.00    +0.000 A 
ATOM     24  C   UNL     1       7.009   4.583  15.265  0.00  0.00    +0.000 A 
ATOM     25  C   UNL     1       7.457   4.643  16.579  0.00  0.00    +0.000 A 
ATOM     26  C   UNL     1       6.582   4.405  17.648  0.00  0.00    +0.000 A 
ATOM     27  C   UNL     1       5.229   4.099  17.390  0.00  0.00    +0.000 A 
ATOM     28  C   UNL     1       4.789   4.070  16.048  0.00  0.00    +0.000 A 
BRANCH  23  30
ATOM     29  C   UNL     1       6.167   3.493  12.820  0.00  0.00    +0.000 C 
ATOM     30  O   UNL     1       5.359   4.304  13.663  0.00  0.00    +0.000 OA
ENDBRANCH  23  30
BRANCH  26  31
ATOM     31  O   UNL     1       7.001   4.616  18.935  0.00  0.00    +0.000 OA
ATOM     32  C   UNL     1       7.644   5.869  19.158  0.00  0.00    +0.000 C 
ENDBRANCH  26  31
ENDBRANCH  19  27
ENDBRANCH  18  20
ENDBRANCH   1  18
TORSDOF 9
ENDMDL
MODEL 9
REMARK VINA RESULT:      -6.9      2.146      3.669
REMARK  Name = 
REMARK  11 active torsions:
REMARK  status: ('A' for Active; 'I' for Inactive)
REMARK    1  A    between atoms: C_1  and  O_2
REMARK    2  A    between atoms: O_2  and  C_3
REMARK    3  A    between atoms: C_6  and  O_7
REMARK    4  A    between atoms: O_7  and  C_8
REMARK    5  A    between atoms: C_9  and  N_10
REMARK    6  A    between atoms: C_11  and  C_13
REMARK    7  A    between atoms: C_13  and  C_14
REMARK    8  A    between atoms: C_14  and  N_15
REMARK    9  A    between atoms: N_15  and  S_16
REMARK   10  A    between atoms: S_16  and  C_19
REMARK   11  A    between atoms: C_24  and  O_25
REMARK                            x       y       z     vdW  Elec       q    Type
REMARK                         _______ _______ _______ _____ _____    ______ ____
ROOT
ATOM      1  C   UNL     1       2.408   6.580  19.654  0.00  0.00    +0.000 C 
ENDROOT
BRANCH   1   2
ATOM      2  N   UNL     1       3.412   5.552  19.992  0.00  0.00    +0.000 NA
ATOM      3  H   UNL     1       3.586   5.452  20.994  0.00  0.00    +0.000 HD
BRANCH   2   4
ATOM      4  S   UNL     1       3.480   4.091  19.173  0.00  0.00    +0.000 S 
ATOM      5  O   UNL     1       3.897   3.048  20.079  0.00  0.00    +0.000 OA
ATOM      6  O   UNL     1       2.248   3.983  18.425  0.00  0.00    +0.000 OA
BRANCH   4   7
ATOM      7  C   UNL     1       4.787   4.371  18.001  0.00  0.00    +0.000 A 
ATOM      8  C   UNL     1       5.995   4.921  18.466  0.00  0.00    +0.000 A 
ATOM      9  C   UNL     1       7.032   5.229  17.575  0.00  0.00    +0.000 A 
ATOM     10  C   UNL     1       6.826   4.976  16.214  0.00  0.00    +0.000 A 
ATOM     11  N   UNL     1       7.645   5.179  15.132  0.00  0.00    +0.000 NA
ATOM     12  C   UNL     1       6.899   4.757  14.144  0.00  0.00    +0.000 A 
ATOM     13  O   UNL     1       5.665   4.288  14.444  0.00  0.00    +0.000 OA
ATOM     14  C   UNL     1       5.614   4.434  15.802  0.00  0.00    +0.000 A 
ATOM     15  C   UNL     1       4.555   4.114  16.644  0.00  0.00    +0.000 A 
BRANCH  12  16
ATOM     16  O   UNL     1       7.257   4.751  12.883  0.00  0.00    +0.000 OA
ATOM     17  H   UNL     1       6.990   5.643  12.605  0.00  0.00    +0.000 HD
ENDBRANCH  12  16
ENDBRANCH   4   7
ENDBRANCH   2   4
ENDBRANCH   1   2
BRANCH   1  18
ATOM     18  C   UNL     1       2.772   7.368  18.400  0.00  0.00    +0.000 C 
BRANCH  18  20
ATOM     19  N   UNL     1       1.312   8.924  19.558  0.00  0.00    +0.000 N 
ATOM     20  C   UNL     1       2.003   8.677  18.381  0.00  0.00    +0.000 C 
ATOM     21  O   UNL     1       2.001   9.344  17.353  0.00  0.00    +0.000 OA
ATOM     22  H   UNL     1       1.223   8.128  20.184  0.00  0.00    +0.000 HD
BRANCH  19  27
ATOM     23  C   UNL     1      -0.326  12.210  19.083  0.00  0.00    +0.000 A 
ATOM     24  C   UNL     1      -1.060  12.360  20.253  0.00  0.00    +0.000 A 
ATOM     25  C   UNL     1      -1.038  11.366  21.225  0.00  0.00    +0.000 A 
ATOM     26  C   UNL     1      -0.273  10.204  21.048  0.00  0.00    +0.000 A 
ATOM     27  C   UNL     1       0.486  10.040  19.871  0.00  0.00    +0.000 A 
ATOM     28  C   UNL     1       0.428  11.049  18.885  0.00  0.00    +0.000 A 
BRANCH  23  30
ATOM     29  C   UNL     1      -0.064  14.522  18.657  0.00  0.00    +0.000 C 
ATOM     30  O   UNL     1      -0.465  13.238  18.194  0.00  0.00    +0.000 OA
ENDBRANCH  23  30
BRANCH  26  31
ATOM     31  O   UNL     1      -0.381   9.172  21.941  0.00  0.00    +0.000 OA
ATOM     32  C   UNL     1      -0.021   9.498  23.282  0.00  0.00    +0.000 C 
ENDBRANCH  26  31
ENDBRANCH  19  27
ENDBRANCH  18  20
ENDBRANCH   1  18
TORSDOF 9
ENDMDL
