MODEL 1
REMARK VINA RESULT:      -7.6      0.000      0.000
REMARK  Name = 
REMARK  5 active torsions:
REMARK  status: ('A' for Active; 'I' for Inactive)
REMARK    1  A    between atoms: C_1  and  O_2
REMARK    2  A    between atoms: O_2  and  C_3
REMARK    3  A    between atoms: C_3  and  O_4
REMARK    4  A    between atoms: N_14  and  C_15
REMARK    5  A    between atoms: C_15  and  C_16
REMARK                            x       y       z     vdW  Elec       q    Type
REMARK                         _______ _______ _______ _____ _____    ______ ____
ROOT
ATOM      1  C   UNL     1       3.705   4.562  17.541  0.00  0.00    +0.000 C 
ATOM      2  C   UNL     1       4.789   5.599  17.294  0.00  0.00    +0.000 A 
ATOM      3  C   UNL     1       4.957   6.534  16.273  0.00  0.00    +0.000 A 
ATOM      4  C   UNL     1       6.120   7.315  16.245  0.00  0.00    +0.000 A 
ATOM      5  C   UNL     1       7.132   7.124  17.194  0.00  0.00    +0.000 A 
ATOM      6  C   UNL     1       6.968   6.189  18.215  0.00  0.00    +0.000 A 
ATOM      7 CL   UNL     1       8.280   5.926  19.294  0.00  0.00    +0.000 Cl
ATOM      8  C   UNL     1       5.776   5.484  18.267  0.00  0.00    +0.000 A 
ATOM      9  C   UNL     1       5.319   4.514  19.249  0.00  0.00    +0.000 C 
ATOM     10  O   UNL     1       5.905   4.332  20.300  0.00  0.00    +0.000 OA
ATOM     11  N   UNL     1       4.149   3.911  18.788  0.00  0.00    +0.000 N 
ENDROOT
BRANCH  11  12
ATOM     12  C   UNL     1       3.465   2.747  19.510  0.00  0.00    +0.000 C 
ATOM     13  C   UNL     1       3.048   3.123  20.960  0.00  0.00    +0.000 C 
ATOM     14  C   UNL     1       1.888   4.128  21.037  0.00  0.00    +0.000 C 
ATOM     15  C   UNL     1       0.661   3.708  20.234  0.00  0.00    +0.000 C 
ATOM     16  C   UNL     1       1.008   3.291  18.815  0.00  0.00    +0.000 C 
ATOM     17  C   UNL     1       2.142   2.273  18.806  0.00  0.00    +0.000 C 
BRANCH  12  18
ATOM     18  C   UNL     1       4.331   1.438  19.607  0.00  0.00    +0.000 C 
ATOM     19  N   UNL     1       4.323   0.563  18.574  0.00  0.00    +0.000 N 
ATOM     20  O   UNL     1       5.182   1.247  20.482  0.00  0.00    +0.000 OA
ATOM     21  H   UNL     1       3.570   0.570  17.894  0.00  0.00    +0.000 HD
ATOM     22  H   UNL     1       4.893  -0.269  18.682  0.00  0.00    +0.000 HD
ENDBRANCH  12  18
ENDBRANCH  11  12
BRANCH   1  24
ATOM     23  C   UNL     1       2.435   6.470  18.273  0.00  0.00    +0.000 C 
ATOM     24  O   UNL     1       2.427   5.145  17.750  0.00  0.00    +0.000 OA
ENDBRANCH   1  24
BRANCH   1  25
ATOM     25  O   UNL     1       3.686   3.609  16.517  0.00  0.00    +0.000 OA
ATOM     26  H   UNL     1       2.987   3.856  15.899  0.00  0.00    +0.000 HD
ENDBRANCH   1  25
TORSDOF 4
ENDMDL
MODEL 2
REMARK VINA RESULT:      -7.6      2.334      5.358
REMARK  Name = 
REMARK  5 active torsions:
REMARK  status: ('A' for Active; 'I' for Inactive)
REMARK    1  A    between atoms: C_1  and  O_2
REMARK    2  A    between atoms: O_2  and  C_3
REMARK    3  A    between atoms: C_3  and  O_4
REMARK    4  A    between atoms: N_14  and  C_15
REMARK    5  A    between atoms: C_15  and  C_16
REMARK                            x       y       z     vdW  Elec       q    Type
REMARK                         _______ _______ _______ _____ _____    ______ ____
ROOT
ATOM      1  C   UNL     1       4.482   3.376  18.737  0.00  0.00    +0.000 C 
ATOM      2  C   UNL     1       3.148   3.469  19.462  0.00  0.00    +0.000 A 
ATOM      3  C   UNL     1       2.218   2.492  19.813  0.00  0.00    +0.000 A 
ATOM      4  C   UNL     1       1.009   2.878  20.404  0.00  0.00    +0.000 A 
ATOM      5  C   UNL     1       0.706   4.233  20.590  0.00  0.00    +0.000 A 
ATOM      6  C   UNL     1       1.632   5.214  20.239  0.00  0.00    +0.000 A 
ATOM      7 CL   UNL     1       1.171   6.863  20.397  0.00  0.00    +0.000 Cl
ATOM      8  C   UNL     1       2.854   4.802  19.728  0.00  0.00    +0.000 A 
ATOM      9  C   UNL     1       4.011   5.597  19.350  0.00  0.00    +0.000 C 
ATOM     10  O   UNL     1       4.102   6.779  19.622  0.00  0.00    +0.000 OA
ATOM     11  N   UNL     1       4.933   4.780  18.693  0.00  0.00    +0.000 N 
ENDROOT
BRANCH  11  12
ATOM     12  C   UNL     1       6.211   5.314  18.043  0.00  0.00    +0.000 C 
ATOM     13  C   UNL     1       6.825   4.297  17.039  0.00  0.00    +0.000 C 
ATOM     14  C   UNL     1       6.001   4.110  15.756  0.00  0.00    +0.000 C 
ATOM     15  C   UNL     1       5.676   5.418  15.041  0.00  0.00    +0.000 C 
ATOM     16  C   UNL     1       5.106   6.469  15.979  0.00  0.00    +0.000 C 
ATOM     17  C   UNL     1       5.982   6.630  17.216  0.00  0.00    +0.000 C 
BRANCH  12  18
ATOM     18  C   UNL     1       7.349   5.699  19.057  0.00  0.00    +0.000 C 
ATOM     19  N   UNL     1       8.138   6.767  18.791  0.00  0.00    +0.000 N 
ATOM     20  O   UNL     1       7.447   5.214  20.190  0.00  0.00    +0.000 OA
ATOM     21  H   UNL     1       8.217   7.130  17.846  0.00  0.00    +0.000 HD
ATOM     22  H   UNL     1       8.861   6.977  19.470  0.00  0.00    +0.000 HD
ENDBRANCH  12  18
ENDBRANCH  11  12
BRANCH   1  24
ATOM     23  C   UNL     1       4.915   1.791  20.495  0.00  0.00    +0.000 C 
ATOM     24  O   UNL     1       5.438   2.603  19.447  0.00  0.00    +0.000 OA
ENDBRANCH   1  24
BRANCH   1  25
ATOM     25  O   UNL     1       4.305   2.920  17.427  0.00  0.00    +0.000 OA
ATOM     26  H   UNL     1       3.359   2.783  17.289  0.00  0.00    +0.000 HD
ENDBRANCH   1  25
TORSDOF 4
ENDMDL
MODEL 3
REMARK VINA RESULT:      -7.3      2.394      5.185
REMARK  Name = 
REMARK  5 active torsions:
REMARK  status: ('A' for Active; 'I' for Inactive)
REMARK    1  A    between atoms: C_1  and  O_2
REMARK    2  A    between atoms: O_2  and  C_3
REMARK    3  A    between atoms: C_3  and  O_4
REMARK    4  A    between atoms: N_14  and  C_15
REMARK    5  A    between atoms: C_15  and  C_16
REMARK                            x       y       z     vdW  Elec       q    Type
REMARK                         _______ _______ _______ _____ _____    ______ ____
ROOT
ATOM      1  C   UNL     1       4.422   3.565  18.783  0.00  0.00    +0.000 C 
ATOM      2  C   UNL     1       3.206   4.101  19.520  0.00  0.00    +0.000 A 
ATOM      3  C   UNL     1       2.195   3.452  20.229  0.00  0.00    +0.000 A 
ATOM      4  C   UNL     1       1.126   4.200  20.737  0.00  0.00    +0.000 A 
ATOM      5  C   UNL     1       1.036   5.576  20.490  0.00  0.00    +0.000 A 
ATOM      6  C   UNL     1       2.043   6.228  19.780  0.00  0.00    +0.000 A 
ATOM      7 CL   UNL     1       1.835   7.897  19.421  0.00  0.00    +0.000 Cl
ATOM      8  C   UNL     1       3.130   5.480  19.356  0.00  0.00    +0.000 A 
ATOM      9  C   UNL     1       4.335   5.911  18.666  0.00  0.00    +0.000 C 
ATOM     10  O   UNL     1       4.618   7.086  18.532  0.00  0.00    +0.000 OA
ATOM     11  N   UNL     1       5.055   4.789  18.255  0.00  0.00    +0.000 N 
ENDROOT
BRANCH  11  12
ATOM     12  C   UNL     1       6.312   4.871  17.386  0.00  0.00    +0.000 C 
ATOM     13  C   UNL     1       6.333   3.776  16.282  0.00  0.00    +0.000 C 
ATOM     14  C   UNL     1       5.297   3.991  15.169  0.00  0.00    +0.000 C 
ATOM     15  C   UNL     1       5.360   5.375  14.532  0.00  0.00    +0.000 C 
ATOM     16  C   UNL     1       5.381   6.491  15.563  0.00  0.00    +0.000 C 
ATOM     17  C   UNL     1       6.448   6.237  16.622  0.00  0.00    +0.000 C 
BRANCH  12  18
ATOM     18  C   UNL     1       7.664   4.747  18.180  0.00  0.00    +0.000 C 
ATOM     19  N   UNL     1       7.740   5.244  19.437  0.00  0.00    +0.000 N 
ATOM     20  O   UNL     1       8.610   4.043  17.810  0.00  0.00    +0.000 OA
ATOM     21  H   UNL     1       7.076   5.940  19.761  0.00  0.00    +0.000 HD
ATOM     22  H   UNL     1       8.632   5.145  19.910  0.00  0.00    +0.000 HD
ENDBRANCH  12  18
ENDBRANCH  11  12
BRANCH   1  24
ATOM     23  C   UNL     1       4.863   1.695  20.232  0.00  0.00    +0.000 C 
ATOM     24  O   UNL     1       5.337   2.903  19.644  0.00  0.00    +0.000 OA
ENDBRANCH   1  24
BRANCH   1  25
ATOM     25  O   UNL     1       4.037   2.758  17.706  0.00  0.00    +0.000 OA
ATOM     26  H   UNL     1       4.037   3.309  16.913  0.00  0.00    +0.000 HD
ENDBRANCH   1  25
TORSDOF 4
ENDMDL
MODEL 4
REMARK VINA RESULT:      -7.2      1.195      1.266
REMARK  Name = 
REMARK  5 active torsions:
REMARK  status: ('A' for Active; 'I' for Inactive)
REMARK    1  A    between atoms: C_1  and  O_2
REMARK    2  A    between atoms: O_2  and  C_3
REMARK    3  A    between atoms: C_3  and  O_4
REMARK    4  A    between atoms: N_14  and  C_15
REMARK    5  A    between atoms: C_15  and  C_16
REMARK                            x       y       z     vdW  Elec       q    Type
REMARK                         _______ _______ _______ _____ _____    ______ ____
ROOT
ATOM      1  C   UNL     1       3.985   3.179  17.392  0.00  0.00    +0.000 C 
ATOM      2  C   UNL     1       4.895   4.206  16.737  0.00  0.00    +0.000 A 
ATOM      3  C   UNL     1       5.075   4.562  15.401  0.00  0.00    +0.000 A 
ATOM      4  C   UNL     1       6.067   5.493  15.067  0.00  0.00    +0.000 A 
ATOM      5  C   UNL     1       6.910   6.021  16.053  0.00  0.00    +0.000 A 
ATOM      6  C   UNL     1       6.735   5.667  17.390  0.00  0.00    +0.000 A 
ATOM      7 CL   UNL     1       7.859   6.267  18.544  0.00  0.00    +0.000 Cl
ATOM      8  C   UNL     1       5.696   4.804  17.704  0.00  0.00    +0.000 A 
ATOM      9  C   UNL     1       5.250   4.331  19.004  0.00  0.00    +0.000 C 
ATOM     10  O   UNL     1       5.661   4.811  20.043  0.00  0.00    +0.000 OA
ATOM     11  N   UNL     1       4.307   3.318  18.825  0.00  0.00    +0.000 N 
ENDROOT
BRANCH  11  12
ATOM     12  C   UNL     1       3.721   2.504  19.981  0.00  0.00    +0.000 C 
ATOM     13  C   UNL     1       3.305   3.404  21.178  0.00  0.00    +0.000 C 
ATOM     14  C   UNL     1       2.077   4.285  20.901  0.00  0.00    +0.000 C 
ATOM     15  C   UNL     1       0.869   3.508  20.389  0.00  0.00    +0.000 C 
ATOM     16  C   UNL     1       1.220   2.578  19.239  0.00  0.00    +0.000 C 
ATOM     17  C   UNL     1       2.424   1.711  19.585  0.00  0.00    +0.000 C 
BRANCH  12  18
ATOM     18  C   UNL     1       4.681   1.397  20.552  0.00  0.00    +0.000 C 
ATOM     19  N   UNL     1       5.088   0.393  19.741  0.00  0.00    +0.000 N 
ATOM     20  O   UNL     1       5.256   1.489  21.643  0.00  0.00    +0.000 OA
ATOM     21  H   UNL     1       4.572   0.167  18.896  0.00  0.00    +0.000 HD
ATOM     22  H   UNL     1       5.703  -0.301  20.152  0.00  0.00    +0.000 HD
ENDBRANCH  12  18
ENDBRANCH  11  12
BRANCH   1  24
ATOM     23  C   UNL     1       2.227   4.822  17.391  0.00  0.00    +0.000 C 
ATOM     24  O   UNL     1       2.607   3.463  17.195  0.00  0.00    +0.000 OA
ENDBRANCH   1  24
BRANCH   1  25
ATOM     25  O   UNL     1       4.318   1.884  16.980  0.00  0.00    +0.000 OA
ATOM     26  H   UNL     1       4.166   1.291  17.726  0.00  0.00    +0.000 HD
ENDBRANCH   1  25
TORSDOF 4
ENDMDL
MODEL 5
REMARK VINA RESULT:      -7.1      2.433      5.226
REMARK  Name = 
REMARK  5 active torsions:
REMARK  status: ('A' for Active; 'I' for Inactive)
REMARK    1  A    between atoms: C_1  and  O_2
REMARK    2  A    between atoms: O_2  and  C_3
REMARK    3  A    between atoms: C_3  and  O_4
REMARK    4  A    between atoms: N_14  and  C_15
REMARK    5  A    between atoms: C_15  and  C_16
REMARK                            x       y       z     vdW  Elec       q    Type
REMARK                         _______ _______ _______ _____ _____    ______ ____
ROOT
ATOM      1  C   UNL     1       3.933   5.683  18.629  0.00  0.00    +0.000 C 
ATOM      2  C   UNL     1       2.785   4.856  19.185  0.00  0.00    +0.000 A 
ATOM      3  C   UNL     1       1.669   5.215  19.940  0.00  0.00    +0.000 A 
ATOM      4  C   UNL     1       0.806   4.215  20.404  0.00  0.00    +0.000 A 
ATOM      5  C   UNL     1       1.085   2.863  20.165  0.00  0.00    +0.000 A 
ATOM      6  C   UNL     1       2.200   2.500  19.411  0.00  0.00    +0.000 A 
ATOM      7 CL   UNL     1       2.549   0.826  19.231  0.00  0.00    +0.000 Cl
ATOM      8  C   UNL     1       2.996   3.512  18.898  0.00  0.00    +0.000 A 
ATOM      9  C   UNL     1       4.162   3.420  18.034  0.00  0.00    +0.000 C 
ATOM     10  O   UNL     1       4.485   2.381  17.491  0.00  0.00    +0.000 OA
ATOM     11  N   UNL     1       4.764   4.676  17.941  0.00  0.00    +0.000 N 
ENDROOT
BRANCH  11  12
ATOM     12  C   UNL     1       6.090   4.919  17.217  0.00  0.00    +0.000 C 
ATOM     13  C   UNL     1       6.283   3.954  16.012  0.00  0.00    +0.000 C 
ATOM     14  C   UNL     1       5.345   4.237  14.829  0.00  0.00    +0.000 C 
ATOM     15  C   UNL     1       5.382   5.684  14.350  0.00  0.00    +0.000 C 
ATOM     16  C   UNL     1       5.237   6.679  15.489  0.00  0.00    +0.000 C 
ATOM     17  C   UNL     1       6.213   6.365  16.617  0.00  0.00    +0.000 C 
BRANCH  12  18
ATOM     18  C   UNL     1       7.366   4.777  18.126  0.00  0.00    +0.000 C 
ATOM     19  N   UNL     1       7.315   5.209  19.408  0.00  0.00    +0.000 N 
ATOM     20  O   UNL     1       8.358   4.111  17.810  0.00  0.00    +0.000 OA
ATOM     21  H   UNL     1       6.608   5.875  19.703  0.00  0.00    +0.000 HD
ATOM     22  H   UNL     1       8.162   5.102  19.955  0.00  0.00    +0.000 HD
ENDBRANCH  12  18
ENDBRANCH  11  12
BRANCH   1  24
ATOM     23  C   UNL     1       2.864   7.802  18.234  0.00  0.00    +0.000 C 
ATOM     24  O   UNL     1       3.503   6.653  17.685  0.00  0.00    +0.000 OA
ENDBRANCH   1  24
BRANCH   1  25
ATOM     25  O   UNL     1       4.683   6.253  19.664  0.00  0.00    +0.000 OA
ATOM     26  H   UNL     1       4.317   5.936  20.499  0.00  0.00    +0.000 HD
ENDBRANCH   1  25
TORSDOF 4
ENDMDL
MODEL 6
REMARK VINA RESULT:      -6.9      2.656      4.986
REMARK  Name = 
REMARK  5 active torsions:
REMARK  status: ('A' for Active; 'I' for Inactive)
REMARK    1  A    between atoms: C_1  and  O_2
REMARK    2  A    between atoms: O_2  and  C_3
REMARK    3  A    between atoms: C_3  and  O_4
REMARK    4  A    between atoms: N_14  and  C_15
REMARK    5  A    between atoms: C_15  and  C_16
REMARK                            x       y       z     vdW  Elec       q    Type
REMARK                         _______ _______ _______ _____ _____    ______ ____
ROOT
ATOM      1  C   UNL     1       2.124   5.387  19.970  0.00  0.00    +0.000 C 
ATOM      2  C   UNL     1       1.624   6.793  20.262  0.00  0.00    +0.000 A 
ATOM      3  C   UNL     1       0.786   7.286  21.262  0.00  0.00    +0.000 A 
ATOM      4  C   UNL     1       0.411   8.635  21.238  0.00  0.00    +0.000 A 
ATOM      5  C   UNL     1       0.821   9.472  20.192  0.00  0.00    +0.000 A 
ATOM      6  C   UNL     1       1.657   8.983  19.189  0.00  0.00    +0.000 A 
ATOM      7 CL   UNL     1       2.051  10.024  17.879  0.00  0.00    +0.000 Cl
ATOM      8  C   UNL     1       2.079   7.665  19.279  0.00  0.00    +0.000 A 
ATOM      9  C   UNL     1       2.994   6.928  18.422  0.00  0.00    +0.000 C 
ATOM     10  O   UNL     1       3.670   7.478  17.574  0.00  0.00    +0.000 OA
ATOM     11  N   UNL     1       2.960   5.577  18.770  0.00  0.00    +0.000 N 
ENDROOT
BRANCH  11  12
ATOM     12  C   UNL     1       3.703   4.492  17.988  0.00  0.00    +0.000 C 
ATOM     13  C   UNL     1       4.411   5.062  16.725  0.00  0.00    +0.000 C 
ATOM     14  C   UNL     1       5.619   5.959  17.036  0.00  0.00    +0.000 C 
ATOM     15  C   UNL     1       6.644   5.307  17.958  0.00  0.00    +0.000 C 
ATOM     16  C   UNL     1       6.008   4.696  19.196  0.00  0.00    +0.000 C 
ATOM     17  C   UNL     1       4.838   3.794  18.821  0.00  0.00    +0.000 C 
BRANCH  12  18
ATOM     18  C   UNL     1       2.800   3.298  17.506  0.00  0.00    +0.000 C 
ATOM     19  N   UNL     1       3.145   2.032  17.843  0.00  0.00    +0.000 N 
ATOM     20  O   UNL     1       1.678   3.448  17.010  0.00  0.00    +0.000 OA
ATOM     21  H   UNL     1       4.095   1.810  18.122  0.00  0.00    +0.000 HD
ATOM     22  H   UNL     1       2.536   1.293  17.508  0.00  0.00    +0.000 HD
ENDBRANCH  12  18
ENDBRANCH  11  12
BRANCH   1  24
ATOM     23  C   UNL     1       2.404   3.708  21.670  0.00  0.00    +0.000 C 
ATOM     24  O   UNL     1       2.926   4.862  21.017  0.00  0.00    +0.000 OA
ENDBRANCH   1  24
BRANCH   1  25
ATOM     25  O   UNL     1       1.060   4.539  19.647  0.00  0.00    +0.000 OA
ATOM     26  H   UNL     1       1.202   3.702  20.107  0.00  0.00    +0.000 HD
ENDBRANCH   1  25
TORSDOF 4
ENDMDL
MODEL 7
REMARK VINA RESULT:      -6.9      2.284      5.202
REMARK  Name = 
REMARK  5 active torsions:
REMARK  status: ('A' for Active; 'I' for Inactive)
REMARK    1  A    between atoms: C_1  and  O_2
REMARK    2  A    between atoms: O_2  and  C_3
REMARK    3  A    between atoms: C_3  and  O_4
REMARK    4  A    between atoms: N_14  and  C_15
REMARK    5  A    between atoms: C_15  and  C_16
REMARK                            x       y       z     vdW  Elec       q    Type
REMARK                         _______ _______ _______ _____ _____    ______ ____
ROOT
ATOM      1  C   UNL     1       3.753   5.860  18.856  0.00  0.00    +0.000 C 
ATOM      2  C   UNL     1       2.913   4.871  19.648  0.00  0.00    +0.000 A 
ATOM      3  C   UNL     1       1.633   4.974  20.192  0.00  0.00    +0.000 A 
ATOM      4  C   UNL     1       1.132   3.921  20.968  0.00  0.00    +0.000 A 
ATOM      5  C   UNL     1       1.924   2.799  21.246  0.00  0.00    +0.000 A 
ATOM      6  C   UNL     1       3.204   2.693  20.705  0.00  0.00    +0.000 A 
ATOM      7 CL   UNL     1       4.168   1.343  21.157  0.00  0.00    +0.000 Cl
ATOM      8  C   UNL     1       3.647   3.712  19.876  0.00  0.00    +0.000 A 
ATOM      9  C   UNL     1       4.893   3.823  19.135  0.00  0.00    +0.000 C 
ATOM     10  O   UNL     1       5.661   2.887  19.016  0.00  0.00    +0.000 OA
ATOM     11  N   UNL     1       4.998   5.109  18.604  0.00  0.00    +0.000 N 
ENDROOT
BRANCH  11  12
ATOM     12  C   UNL     1       6.244   5.615  17.874  0.00  0.00    +0.000 C 
ATOM     13  C   UNL     1       6.902   4.507  17.004  0.00  0.00    +0.000 C 
ATOM     14  C   UNL     1       6.081   4.114  15.766  0.00  0.00    +0.000 C 
ATOM     15  C   UNL     1       5.687   5.299  14.891  0.00  0.00    +0.000 C 
ATOM     16  C   UNL     1       5.071   6.434  15.690  0.00  0.00    +0.000 C 
ATOM     17  C   UNL     1       5.945   6.799  16.885  0.00  0.00    +0.000 C 
BRANCH  12  18
ATOM     18  C   UNL     1       7.367   6.186  18.816  0.00  0.00    +0.000 C 
ATOM     19  N   UNL     1       7.756   5.463  19.893  0.00  0.00    +0.000 N 
ATOM     20  O   UNL     1       8.068   7.162  18.527  0.00  0.00    +0.000 OA
ATOM     21  H   UNL     1       7.157   4.737  20.273  0.00  0.00    +0.000 HD
ATOM     22  H   UNL     1       8.480   5.871  20.474  0.00  0.00    +0.000 HD
ENDBRANCH  12  18
ENDBRANCH  11  12
BRANCH   1  24
ATOM     23  C   UNL     1       2.367   7.392  17.622  0.00  0.00    +0.000 C 
ATOM     24  O   UNL     1       3.162   6.210  17.613  0.00  0.00    +0.000 OA
ENDBRANCH   1  24
BRANCH   1  25
ATOM     25  O   UNL     1       4.056   6.986  19.629  0.00  0.00    +0.000 OA
ATOM     26  H   UNL     1       4.995   6.947  19.848  0.00  0.00    +0.000 HD
ENDBRANCH   1  25
TORSDOF 4
ENDMDL
MODEL 8
REMARK VINA RESULT:      -6.9      8.349     10.744
REMARK  Name = 
REMARK  5 active torsions:
REMARK  status: ('A' for Active; 'I' for Inactive)
REMARK    1  A    between atoms: C_1  and  O_2
REMARK    2  A    between atoms: O_2  and  C_3
REMARK    3  A    between atoms: C_3  and  O_4
REMARK    4  A    between atoms: N_14  and  C_15
REMARK    5  A    between atoms: C_15  and  C_16
REMARK                            x       y       z     vdW  Elec       q    Type
REMARK                         _______ _______ _______ _____ _____    ______ ____
ROOT
ATOM      1  C   UNL     1      -0.810  10.998  19.055  0.00  0.00    +0.000 C 
ATOM      2  C   UNL     1      -1.875  10.684  18.016  0.00  0.00    +0.000 A 
ATOM      3  C   UNL     1      -1.841   9.889  16.870  0.00  0.00    +0.000 A 
ATOM      4  C   UNL     1      -2.960   9.853  16.029  0.00  0.00    +0.000 A 
ATOM      5  C   UNL     1      -4.081  10.649  16.297  0.00  0.00    +0.000 A 
ATOM      6  C   UNL     1      -4.119  11.445  17.440  0.00  0.00    +0.000 A 
ATOM      7 CL   UNL     1      -5.477  12.475  17.670  0.00  0.00    +0.000 Cl
ATOM      8  C   UNL     1      -3.030  11.404  18.298  0.00  0.00    +0.000 A 
ATOM      9  C   UNL     1      -2.837  12.070  19.576  0.00  0.00    +0.000 C 
ATOM     10  O   UNL     1      -3.744  12.639  20.153  0.00  0.00    +0.000 OA
ATOM     11  N   UNL     1      -1.512  11.905  19.983  0.00  0.00    +0.000 N 
ENDROOT
BRANCH  11  12
ATOM     12  C   UNL     1      -0.925  12.586  21.222  0.00  0.00    +0.000 C 
ATOM     13  C   UNL     1       0.610  12.802  21.098  0.00  0.00    +0.000 C 
ATOM     14  C   UNL     1       1.010  13.867  20.066  0.00  0.00    +0.000 C 
ATOM     15  C   UNL     1       0.309  15.207  20.265  0.00  0.00    +0.000 C 
ATOM     16  C   UNL     1      -1.193  15.059  20.431  0.00  0.00    +0.000 C 
ATOM     17  C   UNL     1      -1.526  14.012  21.489  0.00  0.00    +0.000 C 
BRANCH  12  18
ATOM     18  C   UNL     1      -1.171  11.814  22.570  0.00  0.00    +0.000 C 
ATOM     19  N   UNL     1      -2.393  11.873  23.151  0.00  0.00    +0.000 N 
ATOM     20  O   UNL     1      -0.381  10.987  23.037  0.00  0.00    +0.000 OA
ATOM     21  H   UNL     1      -3.043  12.618  22.918  0.00  0.00    +0.000 HD
ATOM     22  H   UNL     1      -2.506  11.364  24.021  0.00  0.00    +0.000 HD
ENDBRANCH  12  18
ENDBRANCH  11  12
BRANCH   1  24
ATOM     23  C   UNL     1       0.986   9.489  19.589  0.00  0.00    +0.000 C 
ATOM     24  O   UNL     1      -0.382   9.846  19.766  0.00  0.00    +0.000 OA
ENDBRANCH   1  24
BRANCH   1  25
ATOM     25  O   UNL     1       0.261  11.688  18.478  0.00  0.00    +0.000 OA
ATOM     26  H   UNL     1       0.769  11.054  17.955  0.00  0.00    +0.000 HD
ENDBRANCH   1  25
TORSDOF 4
ENDMDL
MODEL 9
REMARK VINA RESULT:      -6.8      2.396      5.421
REMARK  Name = 
REMARK  5 active torsions:
REMARK  status: ('A' for Active; 'I' for Inactive)
REMARK    1  A    between atoms: C_1  and  O_2
REMARK    2  A    between atoms: O_2  and  C_3
REMARK    3  A    between atoms: C_3  and  O_4
REMARK    4  A    between atoms: N_14  and  C_15
REMARK    5  A    between atoms: C_15  and  C_16
REMARK                            x       y       z     vdW  Elec       q    Type
REMARK                         _______ _______ _______ _____ _____    ______ ____
ROOT
ATOM      1  C   UNL     1       3.696   5.899  18.457  0.00  0.00    +0.000 C 
ATOM      2  C   UNL     1       2.789   4.839  19.061  0.00  0.00    +0.000 A 
ATOM      3  C   UNL     1       1.717   4.936  19.948  0.00  0.00    +0.000 A 
ATOM      4  C   UNL     1       1.109   3.766  20.419  0.00  0.00    +0.000 A 
ATOM      5  C   UNL     1       1.604   2.507  20.053  0.00  0.00    +0.000 A 
ATOM      6  C   UNL     1       2.676   2.405  19.168  0.00  0.00    +0.000 A 
ATOM      7 CL   UNL     1       3.305   0.841  18.829  0.00  0.00    +0.000 Cl
ATOM      8  C   UNL     1       3.210   3.577  18.655  0.00  0.00    +0.000 A 
ATOM      9  C   UNL     1       4.270   3.758  17.675  0.00  0.00    +0.000 C 
ATOM     10  O   UNL     1       4.716   2.831  17.027  0.00  0.00    +0.000 OA
ATOM     11  N   UNL     1       4.615   5.108  17.618  0.00  0.00    +0.000 N 
ENDROOT
BRANCH  11  12
ATOM     12  C   UNL     1       5.785   5.639  16.786  0.00  0.00    +0.000 C 
ATOM     13  C   UNL     1       6.315   6.999  17.323  0.00  0.00    +0.000 C 
ATOM     14  C   UNL     1       7.047   6.896  18.670  0.00  0.00    +0.000 C 
ATOM     15  C   UNL     1       8.166   5.859  18.682  0.00  0.00    +0.000 C 
ATOM     16  C   UNL     1       7.719   4.515  18.131  0.00  0.00    +0.000 C 
ATOM     17  C   UNL     1       7.029   4.679  16.782  0.00  0.00    +0.000 C 
BRANCH  12  18
ATOM     18  C   UNL     1       5.463   5.844  15.260  0.00  0.00    +0.000 C 
ATOM     19  N   UNL     1       5.396   4.763  14.448  0.00  0.00    +0.000 N 
ATOM     20  O   UNL     1       5.063   6.913  14.785  0.00  0.00    +0.000 OA
ATOM     21  H   UNL     1       5.832   3.886  14.715  0.00  0.00    +0.000 HD
ATOM     22  H   UNL     1       5.189   4.942  13.472  0.00  0.00    +0.000 HD
ENDBRANCH  12  18
ENDBRANCH  11  12
BRANCH   1  24
ATOM     23  C   UNL     1       2.595   8.031  18.273  0.00  0.00    +0.000 C 
ATOM     24  O   UNL     1       2.992   6.820  17.637  0.00  0.00    +0.000 OA
ENDBRANCH   1  24
BRANCH   1  25
ATOM     25  O   UNL     1       4.438   6.544  19.452  0.00  0.00    +0.000 OA
ATOM     26  H   UNL     1       5.283   6.083  19.533  0.00  0.00    +0.000 HD
ENDBRANCH   1  25
TORSDOF 4
ENDMDL
