MODEL 1
REMARK VINA RESULT:      -7.3      0.000      0.000
REMARK  Name = 
REMARK  4 active torsions:
REMARK  status: ('A' for Active; 'I' for Inactive)
REMARK    1  A    between atoms: C_1  and  C_2
REMARK    2  A    between atoms: C_4  and  C_5
REMARK    3  A    between atoms: C_7  and  N_8
REMARK    4  A    between atoms: N_11  and  C_12
REMARK                            x       y       z     vdW  Elec       q    Type
REMARK                         _______ _______ _______ _____ _____    ______ ____
ROOT
ATOM      1  N   UNL     1       9.424   9.163  19.149  0.00  0.00    +0.000 N 
ATOM      2  C   UNL     1       8.373   8.513  18.527  0.00  0.00    +0.000 C 
ATOM      3  O   UNL     1       7.549   9.049  17.792  0.00  0.00    +0.000 OA
ATOM      4  N   UNL     1       8.338   7.165  18.859  0.00  0.00    +0.000 N 
ATOM      5  H   UNL     1      10.247   8.604  19.310  0.00  0.00    +0.000 HD
ATOM      6  H   UNL     1       8.627   6.980  19.810  0.00  0.00    +0.000 HD
ENDROOT
BRANCH   1  13
ATOM      7  C   UNL     1       9.043  13.369  21.712  0.00  0.00    +0.000 C 
ATOM      8  C   UNL     1       9.389  12.647  20.442  0.00  0.00    +0.000 A 
ATOM      9  C   UNL     1       9.909  13.351  19.349  0.00  0.00    +0.000 A 
ATOM     10  C   UNL     1      10.249  12.682  18.170  0.00  0.00    +0.000 A 
ATOM     11  C   UNL     1      10.801  13.419  16.985  0.00  0.00    +0.000 C 
ATOM     12  C   UNL     1      10.079  11.294  18.099  0.00  0.00    +0.000 A 
ATOM     13  C   UNL     1       9.584  10.569  19.188  0.00  0.00    +0.000 A 
ATOM     14  C   UNL     1       9.212  11.257  20.347  0.00  0.00    +0.000 A 
ENDBRANCH   1  13
BRANCH   4  15
ATOM     15  C   UNL     1       7.357   6.308  18.311  0.00  0.00    +0.000 A 
ATOM     16  C   UNL     1       6.494   5.635  19.177  0.00  0.00    +0.000 A 
ATOM     17  C   UNL     1       5.464   4.844  18.660  0.00  0.00    +0.000 A 
ATOM     18  C   UNL     1       5.324   4.678  17.278  0.00  0.00    +0.000 A 
ATOM     19 CL   UNL     1       4.029   3.683  16.715  0.00  0.00    +0.000 Cl
ATOM     20  C   UNL     1       6.219   5.313  16.410  0.00  0.00    +0.000 A 
ATOM     21 CL   UNL     1       6.134   5.121  14.694  0.00  0.00    +0.000 Cl
ATOM     22  C   UNL     1       7.226   6.132  16.928  0.00  0.00    +0.000 A 
ENDBRANCH   4  15
TORSDOF 2
ENDMDL
MODEL 2
REMARK VINA RESULT:      -7.2      0.054      1.928
REMARK  Name = 
REMARK  4 active torsions:
REMARK  status: ('A' for Active; 'I' for Inactive)
REMARK    1  A    between atoms: C_1  and  C_2
REMARK    2  A    between atoms: C_4  and  C_5
REMARK    3  A    between atoms: C_7  and  N_8
REMARK    4  A    between atoms: N_11  and  C_12
REMARK                            x       y       z     vdW  Elec       q    Type
REMARK                         _______ _______ _______ _____ _____    ______ ____
ROOT
ATOM      1  N   UNL     1       9.414   9.140  19.160  0.00  0.00    +0.000 N 
ATOM      2  C   UNL     1       8.354   8.501  18.542  0.00  0.00    +0.000 C 
ATOM      3  O   UNL     1       7.512   9.051  17.838  0.00  0.00    +0.000 OA
ATOM      4  N   UNL     1       8.334   7.144  18.837  0.00  0.00    +0.000 N 
ATOM      5  H   UNL     1      10.243   8.583  19.289  0.00  0.00    +0.000 HD
ATOM      6  H   UNL     1       8.643   6.935  19.777  0.00  0.00    +0.000 HD
ENDROOT
BRANCH   1  13
ATOM      7  C   UNL     1      10.725  13.349  16.931  0.00  0.00    +0.000 C 
ATOM      8  C   UNL     1      10.220  12.623  18.143  0.00  0.00    +0.000 A 
ATOM      9  C   UNL     1       9.858  13.335  19.293  0.00  0.00    +0.000 A 
ATOM     10  C   UNL     1       9.370  12.667  20.420  0.00  0.00    +0.000 A 
ATOM     11  C   UNL     1       8.985  13.411  21.664  0.00  0.00    +0.000 C 
ATOM     12  C   UNL     1       9.232  11.274  20.380  0.00  0.00    +0.000 A 
ATOM     13  C   UNL     1       9.566  10.546  19.233  0.00  0.00    +0.000 A 
ATOM     14  C   UNL     1      10.088  11.225  18.128  0.00  0.00    +0.000 A 
ENDBRANCH   1  13
BRANCH   4  15
ATOM     15  C   UNL     1       7.347   6.296  18.287  0.00  0.00    +0.000 A 
ATOM     16  C   UNL     1       6.476   5.630  19.150  0.00  0.00    +0.000 A 
ATOM     17  C   UNL     1       5.441   4.848  18.630  0.00  0.00    +0.000 A 
ATOM     18  C   UNL     1       5.304   4.683  17.248  0.00  0.00    +0.000 A 
ATOM     19 CL   UNL     1       4.002   3.699  16.681  0.00  0.00    +0.000 Cl
ATOM     20  C   UNL     1       6.206   5.310  16.383  0.00  0.00    +0.000 A 
ATOM     21 CL   UNL     1       6.125   5.118  14.667  0.00  0.00    +0.000 Cl
ATOM     22  C   UNL     1       7.219   6.120  16.904  0.00  0.00    +0.000 A 
ENDBRANCH   4  15
TORSDOF 2
ENDMDL
MODEL 3
REMARK VINA RESULT:      -7.1      3.488      7.969
REMARK  Name = 
REMARK  4 active torsions:
REMARK  status: ('A' for Active; 'I' for Inactive)
REMARK    1  A    between atoms: C_1  and  C_2
REMARK    2  A    between atoms: C_4  and  C_5
REMARK    3  A    between atoms: C_7  and  N_8
REMARK    4  A    between atoms: N_11  and  C_12
REMARK                            x       y       z     vdW  Elec       q    Type
REMARK                         _______ _______ _______ _____ _____    ______ ____
ROOT
ATOM      1  N   UNL     1       7.804   7.056  18.329  0.00  0.00    +0.000 N 
ATOM      2  C   UNL     1       7.985   8.426  18.272  0.00  0.00    +0.000 C 
ATOM      3  O   UNL     1       7.271   9.207  17.650  0.00  0.00    +0.000 OA
ATOM      4  N   UNL     1       9.106   8.823  18.990  0.00  0.00    +0.000 N 
ATOM      5  H   UNL     1       8.110   6.611  19.179  0.00  0.00    +0.000 HD
ATOM      6  H   UNL     1       9.864   8.155  18.948  0.00  0.00    +0.000 HD
ENDROOT
BRANCH   1  13
ATOM      7  C   UNL     1       6.912   4.679  14.091  0.00  0.00    +0.000 C 
ATOM      8  C   UNL     1       6.442   5.172  15.429  0.00  0.00    +0.000 A 
ATOM      9  C   UNL     1       5.150   4.873  15.878  0.00  0.00    +0.000 A 
ATOM     10  C   UNL     1       4.712   5.315  17.130  0.00  0.00    +0.000 A 
ATOM     11  C   UNL     1       3.329   5.012  17.625  0.00  0.00    +0.000 C 
ATOM     12  C   UNL     1       5.588   6.048  17.939  0.00  0.00    +0.000 A 
ATOM     13  C   UNL     1       6.891   6.337  17.520  0.00  0.00    +0.000 A 
ATOM     14  C   UNL     1       7.302   5.921  16.249  0.00  0.00    +0.000 A 
ENDBRANCH   1  13
BRANCH   4  15
ATOM     15  C   UNL     1       9.461  10.187  19.085  0.00  0.00    +0.000 A 
ATOM     16  C   UNL     1       9.280  10.845  20.302  0.00  0.00    +0.000 A 
ATOM     17  C   UNL     1       9.697  12.172  20.447  0.00  0.00    +0.000 A 
ATOM     18  C   UNL     1      10.246  12.864  19.362  0.00  0.00    +0.000 A 
ATOM     19 CL   UNL     1      10.735  14.501  19.618  0.00  0.00    +0.000 Cl
ATOM     20  C   UNL     1      10.382  12.221  18.128  0.00  0.00    +0.000 A 
ATOM     21 CL   UNL     1      11.013  13.024  16.733  0.00  0.00    +0.000 Cl
ATOM     22  C   UNL     1       9.997  10.883  17.995  0.00  0.00    +0.000 A 
ENDBRANCH   4  15
TORSDOF 2
ENDMDL
MODEL 4
REMARK VINA RESULT:      -7.1      6.057      7.315
REMARK  Name = 
REMARK  4 active torsions:
REMARK  status: ('A' for Active; 'I' for Inactive)
REMARK    1  A    between atoms: C_1  and  C_2
REMARK    2  A    between atoms: C_4  and  C_5
REMARK    3  A    between atoms: C_7  and  N_8
REMARK    4  A    between atoms: N_11  and  C_12
REMARK                            x       y       z     vdW  Elec       q    Type
REMARK                         _______ _______ _______ _____ _____    ______ ____
ROOT
ATOM      1  N   UNL     1       1.744   7.682  20.787  0.00  0.00    +0.000 N 
ATOM      2  C   UNL     1       2.454   7.241  19.685  0.00  0.00    +0.000 C 
ATOM      3  O   UNL     1       2.591   7.866  18.638  0.00  0.00    +0.000 OA
ATOM      4  N   UNL     1       2.979   5.972  19.891  0.00  0.00    +0.000 N 
ATOM      5  H   UNL     1       2.075   7.352  21.679  0.00  0.00    +0.000 HD
ATOM      6  H   UNL     1       2.379   5.376  20.447  0.00  0.00    +0.000 HD
ENDROOT
BRANCH   1  13
ATOM      7  C   UNL     1      -1.228  10.705  23.325  0.00  0.00    +0.000 C 
ATOM      8  C   UNL     1      -0.563  10.315  22.037  0.00  0.00    +0.000 A 
ATOM      9  C   UNL     1      -0.726  11.104  20.891  0.00  0.00    +0.000 A 
ATOM     10  C   UNL     1      -0.096  10.756  19.693  0.00  0.00    +0.000 A 
ATOM     11  C   UNL     1      -0.263  11.584  18.454  0.00  0.00    +0.000 C 
ATOM     12  C   UNL     1       0.716   9.616  19.655  0.00  0.00    +0.000 A 
ATOM     13  C   UNL     1       0.910   8.827  20.794  0.00  0.00    +0.000 A 
ATOM     14  C   UNL     1       0.243   9.166  21.975  0.00  0.00    +0.000 A 
ENDBRANCH   1  13
BRANCH   4  15
ATOM     15  C   UNL     1       3.763   5.340  18.900  0.00  0.00    +0.000 A 
ATOM     16  C   UNL     1       3.118   4.643  17.877  0.00  0.00    +0.000 A 
ATOM     17  C   UNL     1       3.866   4.076  16.841  0.00  0.00    +0.000 A 
ATOM     18  C   UNL     1       5.262   4.157  16.848  0.00  0.00    +0.000 A 
ATOM     19 CL   UNL     1       6.117   3.431  15.534  0.00  0.00    +0.000 Cl
ATOM     20  C   UNL     1       5.912   4.814  17.898  0.00  0.00    +0.000 A 
ATOM     21 CL   UNL     1       7.635   4.918  17.997  0.00  0.00    +0.000 Cl
ATOM     22  C   UNL     1       5.161   5.410  18.916  0.00  0.00    +0.000 A 
ENDBRANCH   4  15
TORSDOF 2
ENDMDL
MODEL 5
REMARK VINA RESULT:      -7.1      3.774      7.927
REMARK  Name = 
REMARK  4 active torsions:
REMARK  status: ('A' for Active; 'I' for Inactive)
REMARK    1  A    between atoms: C_1  and  C_2
REMARK    2  A    between atoms: C_4  and  C_5
REMARK    3  A    between atoms: C_7  and  N_8
REMARK    4  A    between atoms: N_11  and  C_12
REMARK                            x       y       z     vdW  Elec       q    Type
REMARK                         _______ _______ _______ _____ _____    ______ ____
ROOT
ATOM      1  N   UNL     1       7.730   6.891  18.343  0.00  0.00    +0.000 N 
ATOM      2  C   UNL     1       7.912   8.258  18.241  0.00  0.00    +0.000 C 
ATOM      3  O   UNL     1       7.236   9.010  17.544  0.00  0.00    +0.000 OA
ATOM      4  N   UNL     1       8.986   8.689  19.008  0.00  0.00    +0.000 N 
ATOM      5  H   UNL     1       7.984   6.483  19.227  0.00  0.00    +0.000 HD
ATOM      6  H   UNL     1       9.747   8.023  19.040  0.00  0.00    +0.000 HD
ENDROOT
BRANCH   1  13
ATOM      7  C   UNL     1       3.316   4.774  17.675  0.00  0.00    +0.000 C 
ATOM      8  C   UNL     1       4.699   5.081  17.179  0.00  0.00    +0.000 A 
ATOM      9  C   UNL     1       5.097   4.674  15.900  0.00  0.00    +0.000 A 
ATOM     10  C   UNL     1       6.377   4.972  15.425  0.00  0.00    +0.000 A 
ATOM     11  C   UNL     1       6.825   4.538  14.061  0.00  0.00    +0.000 C 
ATOM     12  C   UNL     1       7.255   5.699  16.238  0.00  0.00    +0.000 A 
ATOM     13  C   UNL     1       6.869   6.136  17.510  0.00  0.00    +0.000 A 
ATOM     14  C   UNL     1       5.599   5.797  17.986  0.00  0.00    +0.000 A 
ENDBRANCH   1  13
BRANCH   4  15
ATOM     15  C   UNL     1       9.334  10.057  19.068  0.00  0.00    +0.000 A 
ATOM     16  C   UNL     1       9.680  10.715  17.887  0.00  0.00    +0.000 A 
ATOM     17  C   UNL     1       9.950  12.087  17.907  0.00  0.00    +0.000 A 
ATOM     18  C   UNL     1       9.929  12.796  19.112  0.00  0.00    +0.000 A 
ATOM     19 CL   UNL     1      10.277  14.487  19.056  0.00  0.00    +0.000 Cl
ATOM     20  C   UNL     1       9.631  12.127  20.304  0.00  0.00    +0.000 A 
ATOM     21 CL   UNL     1       9.627  12.928  21.836  0.00  0.00    +0.000 Cl
ATOM     22  C   UNL     1       9.326  10.763  20.277  0.00  0.00    +0.000 A 
ENDBRANCH   4  15
TORSDOF 2
ENDMDL
MODEL 6
REMARK VINA RESULT:      -7.1      6.070      7.606
REMARK  Name = 
REMARK  4 active torsions:
REMARK  status: ('A' for Active; 'I' for Inactive)
REMARK    1  A    between atoms: C_1  and  C_2
REMARK    2  A    between atoms: C_4  and  C_5
REMARK    3  A    between atoms: C_7  and  N_8
REMARK    4  A    between atoms: N_11  and  C_12
REMARK                            x       y       z     vdW  Elec       q    Type
REMARK                         _______ _______ _______ _____ _____    ______ ____
ROOT
ATOM      1  N   UNL     1       1.672   7.724  20.860  0.00  0.00    +0.000 N 
ATOM      2  C   UNL     1       2.384   7.283  19.759  0.00  0.00    +0.000 C 
ATOM      3  O   UNL     1       2.528   7.911  18.715  0.00  0.00    +0.000 OA
ATOM      4  N   UNL     1       2.902   6.011  19.963  0.00  0.00    +0.000 N 
ATOM      5  H   UNL     1       1.998   7.389  21.752  0.00  0.00    +0.000 HD
ATOM      6  H   UNL     1       2.297   5.417  20.515  0.00  0.00    +0.000 HD
ENDROOT
BRANCH   1  13
ATOM      7  C   UNL     1      -0.435  11.407  18.329  0.00  0.00    +0.000 C 
ATOM      8  C   UNL     1      -0.189  10.697  19.628  0.00  0.00    +0.000 A 
ATOM      9  C   UNL     1      -0.814  11.136  20.802  0.00  0.00    +0.000 A 
ATOM     10  C   UNL     1      -0.602  10.468  22.012  0.00  0.00    +0.000 A 
ATOM     11  C   UNL     1      -1.256  10.928  23.282  0.00  0.00    +0.000 C 
ATOM     12  C   UNL     1       0.230   9.343  22.034  0.00  0.00    +0.000 A 
ATOM     13  C   UNL     1       0.844   8.873  20.868  0.00  0.00    +0.000 A 
ATOM     14  C   UNL     1       0.654   9.574  19.673  0.00  0.00    +0.000 A 
ENDBRANCH   1  13
BRANCH   4  15
ATOM     15  C   UNL     1       3.686   5.379  18.972  0.00  0.00    +0.000 A 
ATOM     16  C   UNL     1       3.042   4.676  17.953  0.00  0.00    +0.000 A 
ATOM     17  C   UNL     1       3.790   4.109  16.917  0.00  0.00    +0.000 A 
ATOM     18  C   UNL     1       5.186   4.195  16.922  0.00  0.00    +0.000 A 
ATOM     19 CL   UNL     1       6.041   3.467  15.608  0.00  0.00    +0.000 Cl
ATOM     20  C   UNL     1       5.835   4.857  17.968  0.00  0.00    +0.000 A 
ATOM     21 CL   UNL     1       7.558   4.967  18.063  0.00  0.00    +0.000 Cl
ATOM     22  C   UNL     1       5.084   5.454  18.985  0.00  0.00    +0.000 A 
ENDBRANCH   4  15
TORSDOF 2
ENDMDL
MODEL 7
REMARK VINA RESULT:      -7.0      3.790      8.136
REMARK  Name = 
REMARK  4 active torsions:
REMARK  status: ('A' for Active; 'I' for Inactive)
REMARK    1  A    between atoms: C_1  and  C_2
REMARK    2  A    between atoms: C_4  and  C_5
REMARK    3  A    between atoms: C_7  and  N_8
REMARK    4  A    between atoms: N_11  and  C_12
REMARK                            x       y       z     vdW  Elec       q    Type
REMARK                         _______ _______ _______ _____ _____    ______ ____
ROOT
ATOM      1  N   UNL     1       7.781   7.029  18.315  0.00  0.00    +0.000 N 
ATOM      2  C   UNL     1       7.954   8.399  18.242  0.00  0.00    +0.000 C 
ATOM      3  O   UNL     1       7.242   9.167  17.602  0.00  0.00    +0.000 OA
ATOM      4  N   UNL     1       9.064   8.812  18.966  0.00  0.00    +0.000 N 
ATOM      5  H   UNL     1       8.081   6.597  19.174  0.00  0.00    +0.000 HD
ATOM      6  H   UNL     1       9.827   8.149  18.942  0.00  0.00    +0.000 HD
ENDROOT
BRANCH   1  13
ATOM      7  C   UNL     1       6.930   4.641  14.075  0.00  0.00    +0.000 C 
ATOM      8  C   UNL     1       6.453   5.123  15.413  0.00  0.00    +0.000 A 
ATOM      9  C   UNL     1       5.167   4.799  15.863  0.00  0.00    +0.000 A 
ATOM     10  C   UNL     1       4.722   5.231  17.116  0.00  0.00    +0.000 A 
ATOM     11  C   UNL     1       3.346   4.900  17.612  0.00  0.00    +0.000 C 
ATOM     12  C   UNL     1       5.585   5.979  17.926  0.00  0.00    +0.000 A 
ATOM     13  C   UNL     1       6.881   6.293  17.505  0.00  0.00    +0.000 A 
ATOM     14  C   UNL     1       7.299   5.887  16.234  0.00  0.00    +0.000 A 
ENDBRANCH   1  13
BRANCH   4  15
ATOM     15  C   UNL     1       9.410  10.180  19.048  0.00  0.00    +0.000 A 
ATOM     16  C   UNL     1       9.804  10.844  17.885  0.00  0.00    +0.000 A 
ATOM     17  C   UNL     1      10.075  12.214  17.922  0.00  0.00    +0.000 A 
ATOM     18  C   UNL     1      10.007  12.917  19.130  0.00  0.00    +0.000 A 
ATOM     19 CL   UNL     1      10.358  14.608  19.097  0.00  0.00    +0.000 Cl
ATOM     20  C   UNL     1       9.660  12.243  20.305  0.00  0.00    +0.000 A 
ATOM     21 CL   UNL     1       9.597  13.036  21.840  0.00  0.00    +0.000 Cl
ATOM     22  C   UNL     1       9.356  10.879  20.259  0.00  0.00    +0.000 A 
ENDBRANCH   4  15
TORSDOF 2
ENDMDL
MODEL 8
REMARK VINA RESULT:      -7.0      6.393      7.446
REMARK  Name = 
REMARK  4 active torsions:
REMARK  status: ('A' for Active; 'I' for Inactive)
REMARK    1  A    between atoms: C_1  and  C_2
REMARK    2  A    between atoms: C_4  and  C_5
REMARK    3  A    between atoms: C_7  and  N_8
REMARK    4  A    between atoms: N_11  and  C_12
REMARK                            x       y       z     vdW  Elec       q    Type
REMARK                         _______ _______ _______ _____ _____    ______ ____
ROOT
ATOM      1  N   UNL     1       1.292   9.175  19.273  0.00  0.00    +0.000 N 
ATOM      2  C   UNL     1       2.075   8.452  18.391  0.00  0.00    +0.000 C 
ATOM      3  O   UNL     1       2.334   8.789  17.239  0.00  0.00    +0.000 OA
ATOM      4  N   UNL     1       2.520   7.265  18.957  0.00  0.00    +0.000 N 
ATOM      5  H   UNL     1       1.527   9.073  20.247  0.00  0.00    +0.000 HD
ATOM      6  H   UNL     1       1.846   6.843  19.583  0.00  0.00    +0.000 HD
ENDROOT
BRANCH   1  13
ATOM      7  C   UNL     1       0.975  14.082  18.801  0.00  0.00    +0.000 C 
ATOM      8  C   UNL     1       0.350  12.722  18.688  0.00  0.00    +0.000 A 
ATOM      9  C   UNL     1      -0.949  12.582  18.183  0.00  0.00    +0.000 A 
ATOM     10  C   UNL     1      -1.530  11.317  18.058  0.00  0.00    +0.000 A 
ATOM     11  C   UNL     1      -2.922  11.146  17.528  0.00  0.00    +0.000 C 
ATOM     12  C   UNL     1      -0.791  10.187  18.429  0.00  0.00    +0.000 A 
ATOM     13  C   UNL     1       0.516  10.303  18.913  0.00  0.00    +0.000 A 
ATOM     14  C   UNL     1       1.070  11.578  19.068  0.00  0.00    +0.000 A 
ENDBRANCH   1  13
BRANCH   4  15
ATOM     15  C   UNL     1       3.357   6.385  18.236  0.00  0.00    +0.000 A 
ATOM     16  C   UNL     1       2.845   5.154  17.826  0.00  0.00    +0.000 A 
ATOM     17  C   UNL     1       3.626   4.299  17.043  0.00  0.00    +0.000 A 
ATOM     18  C   UNL     1       4.940   4.645  16.712  0.00  0.00    +0.000 A 
ATOM     19 CL   UNL     1       5.844   3.535  15.744  0.00  0.00    +0.000 Cl
ATOM     20  C   UNL     1       5.472   5.857  17.163  0.00  0.00    +0.000 A 
ATOM     21 CL   UNL     1       7.100   6.332  16.829  0.00  0.00    +0.000 Cl
ATOM     22  C   UNL     1       4.677   6.726  17.916  0.00  0.00    +0.000 A 
ENDBRANCH   4  15
TORSDOF 2
ENDMDL
MODEL 9
REMARK VINA RESULT:      -7.0      6.892      9.450
REMARK  Name = 
REMARK  4 active torsions:
REMARK  status: ('A' for Active; 'I' for Inactive)
REMARK    1  A    between atoms: C_1  and  C_2
REMARK    2  A    between atoms: C_4  and  C_5
REMARK    3  A    between atoms: C_7  and  N_8
REMARK    4  A    between atoms: N_11  and  C_12
REMARK                            x       y       z     vdW  Elec       q    Type
REMARK                         _______ _______ _______ _____ _____    ______ ____
ROOT
ATOM      1  N   UNL     1       2.654   6.429  20.385  0.00  0.00    +0.000 N 
ATOM      2  C   UNL     1       1.821   7.533  20.361  0.00  0.00    +0.000 C 
ATOM      3  O   UNL     1       1.241   7.957  19.365  0.00  0.00    +0.000 OA
ATOM      4  N   UNL     1       1.738   8.138  21.608  0.00  0.00    +0.000 N 
ATOM      5  H   UNL     1       2.679   5.922  21.255  0.00  0.00    +0.000 HD
ATOM      6  H   UNL     1       2.604   8.100  22.129  0.00  0.00    +0.000 HD
ENDROOT
BRANCH   1  13
ATOM      7  C   UNL     1       2.697   2.297  17.678  0.00  0.00    +0.000 C 
ATOM      8  C   UNL     1       3.147   3.712  17.898  0.00  0.00    +0.000 A 
ATOM      9  C   UNL     1       3.955   4.351  16.949  0.00  0.00    +0.000 A 
ATOM     10  C   UNL     1       4.363   5.675  17.139  0.00  0.00    +0.000 A 
ATOM     11  C   UNL     1       5.235   6.374  16.139  0.00  0.00    +0.000 C 
ATOM     12  C   UNL     1       3.940   6.361  18.284  0.00  0.00    +0.000 A 
ATOM     13  C   UNL     1       3.113   5.749  19.232  0.00  0.00    +0.000 A 
ATOM     14  C   UNL     1       2.745   4.413  19.047  0.00  0.00    +0.000 A 
ENDBRANCH   1  13
BRANCH   4  15
ATOM     15  C   UNL     1       0.918   9.270  21.813  0.00  0.00    +0.000 A 
ATOM     16  C   UNL     1      -0.052   9.226  22.815  0.00  0.00    +0.000 A 
ATOM     17  C   UNL     1      -0.822  10.359  23.091  0.00  0.00    +0.000 A 
ATOM     18  C   UNL     1      -0.664  11.524  22.333  0.00  0.00    +0.000 A 
ATOM     19 CL   UNL     1      -1.654  12.883  22.732  0.00  0.00    +0.000 Cl
ATOM     20  C   UNL     1       0.274  11.554  21.296  0.00  0.00    +0.000 A 
ATOM     21 CL   UNL     1       0.494  12.943  20.290  0.00  0.00    +0.000 Cl
ATOM     22  C   UNL     1       1.067  10.431  21.044  0.00  0.00    +0.000 A 
ENDBRANCH   4  15
TORSDOF 2
ENDMDL
