MODEL 1
REMARK VINA RESULT:      -6.4      0.000      0.000
REMARK  Name = 
REMARK  27 active torsions:
REMARK  status: ('A' for Active; 'I' for Inactive)
REMARK    1  A    between atoms: C_1  and  C_2
REMARK    2  A    between atoms: C_2  and  C_3
REMARK    3  A    between atoms: C_3  and  C_4
REMARK    4  A    between atoms: C_4  and  C_5
REMARK    5  A    between atoms: C_5  and  C_6
REMARK    6  A    between atoms: C_6  and  C_7
REMARK    7  A    between atoms: C_7  and  C_8
REMARK    8  A    between atoms: C_8  and  C_9
REMARK    9  A    between atoms: C_9  and  C_10
REMARK   10  A    between atoms: C_10  and  C_11
REMARK   11  A    between atoms: C_11  and  C_12
REMARK   12  A    between atoms: C_12  and  C_13
REMARK   13  A    between atoms: C_13  and  C_14
REMARK   14  A    between atoms: C_14  and  C_15
REMARK   15  A    between atoms: C_15  and  C_16
REMARK   16  A    between atoms: C_16  and  C_17
REMARK   17  A    between atoms: C_17  and  C_18
REMARK   18  A    between atoms: C_17  and  C_23
REMARK   19  A    between atoms: C_18  and  C_19
REMARK   20  A    between atoms: N_21  and  O_22
REMARK   21  A    between atoms: N_25  and  C_26
REMARK   22  A    between atoms: C_26  and  C_27
REMARK   23  A    between atoms: C_26  and  C_31
REMARK   24  A    between atoms: N_29  and  C_30
REMARK   25  A    between atoms: C_31  and  C_32
REMARK   26  A    between atoms: C_31  and  C_33
REMARK   27  A    between atoms: C_31  and  C_34
REMARK                            x       y       z     vdW  Elec       q    Type
REMARK                         _______ _______ _______ _____ _____    ______ ____
ROOT
ATOM      1  C   UNL     1       1.836   7.740  20.261  0.00  0.00    +0.000 C 
ENDROOT
BRANCH   1   2
ATOM      2  C   UNL     1       1.651   8.797  19.157  0.00  0.00    +0.000 C 
ATOM      3  O   UNL     1       1.795   8.517  17.967  0.00  0.00    +0.000 OA
ATOM      4  N   UNL     1       1.349  10.075  19.548  0.00  0.00    +0.000 N 
ATOM      5  H   UNL     1       1.207  10.238  20.536  0.00  0.00    +0.000 HD
BRANCH   4   6
ATOM      6  C   UNL     1       0.995  11.174  18.626  0.00  0.00    +0.000 C 
BRANCH   6   7
ATOM      7  C   UNL     1       1.764  12.517  18.883  0.00  0.00    +0.000 C 
ATOM      8  O   UNL     1       1.810  13.057  19.990  0.00  0.00    +0.000 OA
ATOM      9  N   UNL     1       2.390  13.057  17.789  0.00  0.00    +0.000 N 
ATOM     10  C   UNL     1       3.149  14.277  17.799  0.00  0.00    +0.000 C 
ATOM     11  H   UNL     1       2.221  12.562  16.913  0.00  0.00    +0.000 HD
ENDBRANCH   6   7
BRANCH   6  12
ATOM     12  C   UNL     1      -0.562  11.362  18.625  0.00  0.00    +0.000 C 
ATOM     13  C   UNL     1      -1.146  11.268  20.047  0.00  0.00    +0.000 C 
ATOM     14  C   UNL     1      -0.903  12.771  18.080  0.00  0.00    +0.000 C 
ATOM     15  C   UNL     1      -1.271  10.314  17.741  0.00  0.00    +0.000 C 
ENDBRANCH   6  12
ENDBRANCH   4   6
ENDBRANCH   1   2
BRANCH   1  16
ATOM     16  C   UNL     1       0.623   7.763  21.198  0.00  0.00    +0.000 C 
BRANCH  16  17
ATOM     17  C   UNL     1       0.677   8.876  22.215  0.00  0.00    +0.000 C 
ATOM     18  O   UNL     1       1.709   9.430  22.588  0.00  0.00    +0.000 OA
ATOM     19  N   UNL     1      -0.529   9.163  22.784  0.00  0.00    +0.000 N 
ATOM     20  H   UNL     1      -1.421   8.789  22.480  0.00  0.00    +0.000 HD
BRANCH  19  21
ATOM     21  O   UNL     1      -0.522  10.119  23.822  0.00  0.00    +0.000 OA
ATOM     22  H   UNL     1      -0.206   9.586  24.586  0.00  0.00    +0.000 HD
ENDBRANCH  19  21
ENDBRANCH  16  17
ENDBRANCH   1  16
BRANCH   1  23
ATOM     23  C   UNL     1       2.215   6.349  19.730  0.00  0.00    +0.000 C 
BRANCH  23  24
ATOM     24  C   UNL     1       1.984   5.220  20.721  0.00  0.00    +0.000 C 
BRANCH  24  25
ATOM     25  C   UNL     1       0.998   4.239  20.114  0.00  0.00    +0.000 C 
BRANCH  25  26
ATOM     26  C   UNL     1       1.424   3.887  18.707  0.00  0.00    +0.000 C 
BRANCH  26  27
ATOM     27  C   UNL     1       1.888   2.447  18.667  0.00  0.00    +0.000 C 
BRANCH  27  28
ATOM     28  C   UNL     1       3.284   2.392  18.084  0.00  0.00    +0.000 C 
BRANCH  28  29
ATOM     29  C   UNL     1       4.294   2.761  19.149  0.00  0.00    +0.000 C 
BRANCH  29  30
ATOM     30  C   UNL     1       5.371   3.636  18.542  0.00  0.00    +0.000 C 
BRANCH  30  31
ATOM     31  C   UNL     1       5.360   4.995  19.211  0.00  0.00    +0.000 C 
BRANCH  31  32
ATOM     32  C   UNL     1       6.758   5.582  19.203  0.00  0.00    +0.000 C 
BRANCH  32  33
ATOM     33  C   UNL     1       7.147   5.967  17.787  0.00  0.00    +0.000 C 
BRANCH  33  34
ATOM     34  C   UNL     1       6.032   6.768  17.140  0.00  0.00    +0.000 C 
BRANCH  34  35
ATOM     35  C   UNL     1       5.583   6.099  15.851  0.00  0.00    +0.000 C 
BRANCH  35  36
ATOM     36  C   UNL     1       6.655   5.142  15.352  0.00  0.00    +0.000 C 
BRANCH  36  38
ATOM     37  C   UNL     1       6.133   3.773  13.325  0.00  0.00    +0.000 C 
ATOM     38  C   UNL     1       6.031   3.852  14.837  0.00  0.00    +0.000 C 
ENDBRANCH  36  38
ENDBRANCH  35  36
ENDBRANCH  34  35
ENDBRANCH  33  34
ENDBRANCH  32  33
ENDBRANCH  31  32
ENDBRANCH  30  31
ENDBRANCH  29  30
ENDBRANCH  28  29
ENDBRANCH  27  28
ENDBRANCH  26  27
ENDBRANCH  25  26
ENDBRANCH  24  25
ENDBRANCH  23  24
ENDBRANCH   1  23
TORSDOF 22
ENDMDL
MODEL 2
REMARK VINA RESULT:      -6.3      5.533      9.632
REMARK  Name = 
REMARK  27 active torsions:
REMARK  status: ('A' for Active; 'I' for Inactive)
REMARK    1  A    between atoms: C_1  and  C_2
REMARK    2  A    between atoms: C_2  and  C_3
REMARK    3  A    between atoms: C_3  and  C_4
REMARK    4  A    between atoms: C_4  and  C_5
REMARK    5  A    between atoms: C_5  and  C_6
REMARK    6  A    between atoms: C_6  and  C_7
REMARK    7  A    between atoms: C_7  and  C_8
REMARK    8  A    between atoms: C_8  and  C_9
REMARK    9  A    between atoms: C_9  and  C_10
REMARK   10  A    between atoms: C_10  and  C_11
REMARK   11  A    between atoms: C_11  and  C_12
REMARK   12  A    between atoms: C_12  and  C_13
REMARK   13  A    between atoms: C_13  and  C_14
REMARK   14  A    between atoms: C_14  and  C_15
REMARK   15  A    between atoms: C_15  and  C_16
REMARK   16  A    between atoms: C_16  and  C_17
REMARK   17  A    between atoms: C_17  and  C_18
REMARK   18  A    between atoms: C_17  and  C_23
REMARK   19  A    between atoms: C_18  and  C_19
REMARK   20  A    between atoms: N_21  and  O_22
REMARK   21  A    between atoms: N_25  and  C_26
REMARK   22  A    between atoms: C_26  and  C_27
REMARK   23  A    between atoms: C_26  and  C_31
REMARK   24  A    between atoms: N_29  and  C_30
REMARK   25  A    between atoms: C_31  and  C_32
REMARK   26  A    between atoms: C_31  and  C_33
REMARK   27  A    between atoms: C_31  and  C_34
REMARK                            x       y       z     vdW  Elec       q    Type
REMARK                         _______ _______ _______ _____ _____    ______ ____
ROOT
ATOM      1  C   UNL     1       7.104   5.941  17.661  0.00  0.00    +0.000 C 
ENDROOT
BRANCH   1   2
ATOM      2  C   UNL     1       6.162   5.535  18.810  0.00  0.00    +0.000 C 
ATOM      3  O   UNL     1       6.592   5.272  19.932  0.00  0.00    +0.000 OA
ATOM      4  N   UNL     1       4.823   5.447  18.530  0.00  0.00    +0.000 N 
ATOM      5  H   UNL     1       4.524   5.711  17.600  0.00  0.00    +0.000 HD
BRANCH   4   6
ATOM      6  C   UNL     1       3.768   5.218  19.538  0.00  0.00    +0.000 C 
BRANCH   6   7
ATOM      7  C   UNL     1       3.520   3.711  19.895  0.00  0.00    +0.000 C 
ATOM      8  O   UNL     1       3.987   2.784  19.230  0.00  0.00    +0.000 OA
ATOM      9  N   UNL     1       2.748   3.486  21.005  0.00  0.00    +0.000 N 
ATOM     10  C   UNL     1       2.398   2.188  21.510  0.00  0.00    +0.000 C 
ATOM     11  H   UNL     1       2.358   4.327  21.430  0.00  0.00    +0.000 HD
ENDBRANCH   6   7
BRANCH   6  12
ATOM     12  C   UNL     1       2.458   5.954  19.087  0.00  0.00    +0.000 C 
ATOM     13  C   UNL     1       1.587   5.059  18.186  0.00  0.00    +0.000 C 
ATOM     14  C   UNL     1       1.617   6.305  20.340  0.00  0.00    +0.000 C 
ATOM     15  C   UNL     1       2.762   7.260  18.323  0.00  0.00    +0.000 C 
ENDBRANCH   6  12
ENDBRANCH   4   6
ENDBRANCH   1   2
BRANCH   1  16
ATOM     16  C   UNL     1       6.304   6.043  16.358  0.00  0.00    +0.000 C 
BRANCH  16  17
ATOM     17  C   UNL     1       6.825   5.139  15.268  0.00  0.00    +0.000 C 
ATOM     18  O   UNL     1       7.863   5.331  14.639  0.00  0.00    +0.000 OA
ATOM     19  N   UNL     1       5.981   4.116  14.950  0.00  0.00    +0.000 N 
ATOM     20  H   UNL     1       5.145   3.866  15.467  0.00  0.00    +0.000 HD
BRANCH  19  21
ATOM     21  O   UNL     1       6.362   3.301  13.862  0.00  0.00    +0.000 OA
ATOM     22  H   UNL     1       7.234   2.957  14.163  0.00  0.00    +0.000 HD
ENDBRANCH  19  21
ENDBRANCH  16  17
ENDBRANCH   1  16
BRANCH   1  23
ATOM     23  C   UNL     1       7.978   7.163  17.980  0.00  0.00    +0.000 C 
BRANCH  23  24
ATOM     24  C   UNL     1       7.332   8.497  17.641  0.00  0.00    +0.000 C 
BRANCH  24  25
ATOM     25  C   UNL     1       8.387   9.583  17.735  0.00  0.00    +0.000 C 
BRANCH  25  26
ATOM     26  C   UNL     1       9.054   9.534  19.091  0.00  0.00    +0.000 C 
BRANCH  26  27
ATOM     27  C   UNL     1       9.850  10.803  19.305  0.00  0.00    +0.000 C 
BRANCH  27  28
ATOM     28  C   UNL     1      10.204  11.399  17.960  0.00  0.00    +0.000 C 
BRANCH  28  29
ATOM     29  C   UNL     1       9.976  12.895  17.991  0.00  0.00    +0.000 C 
BRANCH  29  30
ATOM     30  C   UNL     1      10.955  13.534  18.955  0.00  0.00    +0.000 C 
BRANCH  30  31
ATOM     31  C   UNL     1      10.325  14.760  19.583  0.00  0.00    +0.000 C 
BRANCH  31  32
ATOM     32  C   UNL     1      10.462  14.691  21.092  0.00  0.00    +0.000 C 
BRANCH  32  33
ATOM     33  C   UNL     1       9.773  13.444  21.615  0.00  0.00    +0.000 C 
BRANCH  33  34
ATOM     34  C   UNL     1       8.268  13.647  21.627  0.00  0.00    +0.000 C 
BRANCH  34  35
ATOM     35  C   UNL     1       7.746  13.622  23.055  0.00  0.00    +0.000 C 
BRANCH  35  36
ATOM     36  C   UNL     1       8.479  12.565  23.867  0.00  0.00    +0.000 C 
BRANCH  36  38
ATOM     37  C   UNL     1       6.164  11.639  24.067  0.00  0.00    +0.000 C 
ATOM     38  C   UNL     1       7.509  11.795  24.753  0.00  0.00    +0.000 C 
ENDBRANCH  36  38
ENDBRANCH  35  36
ENDBRANCH  34  35
ENDBRANCH  33  34
ENDBRANCH  32  33
ENDBRANCH  31  32
ENDBRANCH  30  31
ENDBRANCH  29  30
ENDBRANCH  28  29
ENDBRANCH  27  28
ENDBRANCH  26  27
ENDBRANCH  25  26
ENDBRANCH  24  25
ENDBRANCH  23  24
ENDBRANCH   1  23
TORSDOF 22
ENDMDL
MODEL 3
REMARK VINA RESULT:      -6.2      3.820      9.451
REMARK  Name = 
REMARK  27 active torsions:
REMARK  status: ('A' for Active; 'I' for Inactive)
REMARK    1  A    between atoms: C_1  and  C_2
REMARK    2  A    between atoms: C_2  and  C_3
REMARK    3  A    between atoms: C_3  and  C_4
REMARK    4  A    between atoms: C_4  and  C_5
REMARK    5  A    between atoms: C_5  and  C_6
REMARK    6  A    between atoms: C_6  and  C_7
REMARK    7  A    between atoms: C_7  and  C_8
REMARK    8  A    between atoms: C_8  and  C_9
REMARK    9  A    between atoms: C_9  and  C_10
REMARK   10  A    between atoms: C_10  and  C_11
REMARK   11  A    between atoms: C_11  and  C_12
REMARK   12  A    between atoms: C_12  and  C_13
REMARK   13  A    between atoms: C_13  and  C_14
REMARK   14  A    between atoms: C_14  and  C_15
REMARK   15  A    between atoms: C_15  and  C_16
REMARK   16  A    between atoms: C_16  and  C_17
REMARK   17  A    between atoms: C_17  and  C_18
REMARK   18  A    between atoms: C_17  and  C_23
REMARK   19  A    between atoms: C_18  and  C_19
REMARK   20  A    between atoms: N_21  and  O_22
REMARK   21  A    between atoms: N_25  and  C_26
REMARK   22  A    between atoms: C_26  and  C_27
REMARK   23  A    between atoms: C_26  and  C_31
REMARK   24  A    between atoms: N_29  and  C_30
REMARK   25  A    between atoms: C_31  and  C_32
REMARK   26  A    between atoms: C_31  and  C_33
REMARK   27  A    between atoms: C_31  and  C_34
REMARK                            x       y       z     vdW  Elec       q    Type
REMARK                         _______ _______ _______ _____ _____    ______ ____
ROOT
ATOM      1  C   UNL     1       5.733   6.173  17.591  0.00  0.00    +0.000 C 
ENDROOT
BRANCH   1   2
ATOM      2  C   UNL     1       5.431   5.247  18.784  0.00  0.00    +0.000 C 
ATOM      3  O   UNL     1       6.213   5.139  19.728  0.00  0.00    +0.000 OA
ATOM      4  N   UNL     1       4.270   4.521  18.745  0.00  0.00    +0.000 N 
ATOM      5  H   UNL     1       3.649   4.679  17.961  0.00  0.00    +0.000 HD
BRANCH   4   6
ATOM      6  C   UNL     1       3.753   3.702  19.860  0.00  0.00    +0.000 C 
BRANCH   6   7
ATOM      7  C   UNL     1       4.182   2.194  19.818  0.00  0.00    +0.000 C 
ATOM      8  O   UNL     1       3.813   1.421  18.931  0.00  0.00    +0.000 OA
ATOM      9  N   UNL     1       5.002   1.784  20.837  0.00  0.00    +0.000 N 
ATOM     10  C   UNL     1       5.513   0.451  20.992  0.00  0.00    +0.000 C 
ATOM     11  H   UNL     1       5.180   2.491  21.551  0.00  0.00    +0.000 HD
ENDBRANCH   6   7
BRANCH   6  12
ATOM     12  C   UNL     1       2.198   3.885  19.955  0.00  0.00    +0.000 C 
ATOM     13  C   UNL     1       1.550   2.788  20.821  0.00  0.00    +0.000 C 
ATOM     14  C   UNL     1       1.887   5.245  20.627  0.00  0.00    +0.000 C 
ATOM     15  C   UNL     1       1.527   3.863  18.566  0.00  0.00    +0.000 C 
ENDBRANCH   6  12
ENDBRANCH   4   6
ENDBRANCH   1   2
BRANCH   1  16
ATOM     16  C   UNL     1       6.802   5.527  16.702  0.00  0.00    +0.000 C 
BRANCH  16  17
ATOM     17  C   UNL     1       6.252   4.456  15.792  0.00  0.00    +0.000 C 
ATOM     18  O   UNL     1       5.496   3.556  16.152  0.00  0.00    +0.000 OA
ATOM     19  N   UNL     1       6.751   4.501  14.523  0.00  0.00    +0.000 N 
ATOM     20  H   UNL     1       7.325   5.247  14.148  0.00  0.00    +0.000 HD
BRANCH  19  21
ATOM     21  O   UNL     1       6.358   3.458  13.657  0.00  0.00    +0.000 OA
ATOM     22  H   UNL     1       6.444   2.669  14.238  0.00  0.00    +0.000 HD
ENDBRANCH  19  21
ENDBRANCH  16  17
ENDBRANCH   1  16
BRANCH   1  23
ATOM     23  C   UNL     1       4.477   6.652  16.846  0.00  0.00    +0.000 C 
BRANCH  23  24
ATOM     24  C   UNL     1       3.893   7.950  17.380  0.00  0.00    +0.000 C 
BRANCH  24  25
ATOM     25  C   UNL     1       2.563   7.644  18.043  0.00  0.00    +0.000 C 
BRANCH  25  26
ATOM     26  C   UNL     1       1.571   8.742  17.731  0.00  0.00    +0.000 C 
BRANCH  26  27
ATOM     27  C   UNL     1       1.517   9.715  18.890  0.00  0.00    +0.000 C 
BRANCH  27  28
ATOM     28  C   UNL     1       1.543  11.129  18.350  0.00  0.00    +0.000 C 
BRANCH  28  29
ATOM     29  C   UNL     1       1.536  12.112  19.501  0.00  0.00    +0.000 C 
BRANCH  29  30
ATOM     30  C   UNL     1       0.997  13.444  19.023  0.00  0.00    +0.000 C 
BRANCH  30  31
ATOM     31  C   UNL     1       0.223  14.111  20.142  0.00  0.00    +0.000 C 
BRANCH  31  32
ATOM     32  C   UNL     1       0.366  13.304  21.417  0.00  0.00    +0.000 C 
BRANCH  32  33
ATOM     33  C   UNL     1      -0.732  13.683  22.393  0.00  0.00    +0.000 C 
BRANCH  33  34
ATOM     34  C   UNL     1      -1.330  12.433  23.015  0.00  0.00    +0.000 C 
BRANCH  34  35
ATOM     35  C   UNL     1      -0.896  11.200  22.238  0.00  0.00    +0.000 C 
BRANCH  35  36
ATOM     36  C   UNL     1      -0.432  10.111  23.193  0.00  0.00    +0.000 C 
BRANCH  36  38
ATOM     37  C   UNL     1      -0.357   8.272  21.500  0.00  0.00    +0.000 C 
ATOM     38  C   UNL     1       0.457   9.105  22.473  0.00  0.00    +0.000 C 
ENDBRANCH  36  38
ENDBRANCH  35  36
ENDBRANCH  34  35
ENDBRANCH  33  34
ENDBRANCH  32  33
ENDBRANCH  31  32
ENDBRANCH  30  31
ENDBRANCH  29  30
ENDBRANCH  28  29
ENDBRANCH  27  28
ENDBRANCH  26  27
ENDBRANCH  25  26
ENDBRANCH  24  25
ENDBRANCH  23  24
ENDBRANCH   1  23
TORSDOF 22
ENDMDL
MODEL 4
REMARK VINA RESULT:      -6.1      2.769      4.364
REMARK  Name = 
REMARK  27 active torsions:
REMARK  status: ('A' for Active; 'I' for Inactive)
REMARK    1  A    between atoms: C_1  and  C_2
REMARK    2  A    between atoms: C_2  and  C_3
REMARK    3  A    between atoms: C_3  and  C_4
REMARK    4  A    between atoms: C_4  and  C_5
REMARK    5  A    between atoms: C_5  and  C_6
REMARK    6  A    between atoms: C_6  and  C_7
REMARK    7  A    between atoms: C_7  and  C_8
REMARK    8  A    between atoms: C_8  and  C_9
REMARK    9  A    between atoms: C_9  and  C_10
REMARK   10  A    between atoms: C_10  and  C_11
REMARK   11  A    between atoms: C_11  and  C_12
REMARK   12  A    between atoms: C_12  and  C_13
REMARK   13  A    between atoms: C_13  and  C_14
REMARK   14  A    between atoms: C_14  and  C_15
REMARK   15  A    between atoms: C_15  and  C_16
REMARK   16  A    between atoms: C_16  and  C_17
REMARK   17  A    between atoms: C_17  and  C_18
REMARK   18  A    between atoms: C_17  and  C_23
REMARK   19  A    between atoms: C_18  and  C_19
REMARK   20  A    between atoms: N_21  and  O_22
REMARK   21  A    between atoms: N_25  and  C_26
REMARK   22  A    between atoms: C_26  and  C_27
REMARK   23  A    between atoms: C_26  and  C_31
REMARK   24  A    between atoms: N_29  and  C_30
REMARK   25  A    between atoms: C_31  and  C_32
REMARK   26  A    between atoms: C_31  and  C_33
REMARK   27  A    between atoms: C_31  and  C_34
REMARK                            x       y       z     vdW  Elec       q    Type
REMARK                         _______ _______ _______ _____ _____    ______ ____
ROOT
ATOM      1  C   UNL     1       0.246  10.915  19.088  0.00  0.00    +0.000 C 
ENDROOT
BRANCH   1   2
ATOM      2  C   UNL     1      -0.947  11.789  18.659  0.00  0.00    +0.000 C 
ATOM      3  O   UNL     1      -0.789  12.811  17.992  0.00  0.00    +0.000 OA
ATOM      4  N   UNL     1      -2.196  11.405  19.074  0.00  0.00    +0.000 N 
ATOM      5  H   UNL     1      -2.268  10.537  19.589  0.00  0.00    +0.000 HD
BRANCH   4   6
ATOM      6  C   UNL     1      -3.457  12.035  18.636  0.00  0.00    +0.000 C 
BRANCH   6   7
ATOM      7  C   UNL     1      -4.301  12.682  19.790  0.00  0.00    +0.000 C 
ATOM      8  O   UNL     1      -4.247  12.286  20.957  0.00  0.00    +0.000 OA
ATOM      9  N   UNL     1      -5.107  13.726  19.419  0.00  0.00    +0.000 N 
ATOM     10  C   UNL     1      -5.960  14.461  20.312  0.00  0.00    +0.000 C 
ATOM     11  H   UNL     1      -5.124  13.916  18.417  0.00  0.00    +0.000 HD
ENDBRANCH   6   7
BRANCH   6  12
ATOM     12  C   UNL     1      -4.283  11.003  17.792  0.00  0.00    +0.000 C 
ATOM     13  C   UNL     1      -3.508   9.686  17.592  0.00  0.00    +0.000 C 
ATOM     14  C   UNL     1      -5.589  10.657  18.549  0.00  0.00    +0.000 C 
ATOM     15  C   UNL     1      -4.658  11.559  16.402  0.00  0.00    +0.000 C 
ENDBRANCH   6  12
ENDBRANCH   4   6
ENDBRANCH   1   2
BRANCH   1  16
ATOM     16  C   UNL     1       0.087  10.523  20.562  0.00  0.00    +0.000 C 
BRANCH  16  17
ATOM     17  C   UNL     1       0.106  11.706  21.498  0.00  0.00    +0.000 C 
ATOM     18  O   UNL     1       1.017  12.530  21.563  0.00  0.00    +0.000 OA
ATOM     19  N   UNL     1      -0.945  11.740  22.366  0.00  0.00    +0.000 N 
ATOM     20  H   UNL     1      -1.756  11.131  22.325  0.00  0.00    +0.000 HD
BRANCH  19  21
ATOM     21  O   UNL     1      -0.924  12.762  23.339  0.00  0.00    +0.000 OA
ATOM     22  H   UNL     1      -0.076  12.581  23.804  0.00  0.00    +0.000 HD
ENDBRANCH  19  21
ENDBRANCH  16  17
ENDBRANCH   1  16
BRANCH   1  23
ATOM     23  C   UNL     1       0.530   9.744  18.136  0.00  0.00    +0.000 C 
BRANCH  23  24
ATOM     24  C   UNL     1       2.007   9.513  17.856  0.00  0.00    +0.000 C 
BRANCH  24  25
ATOM     25  C   UNL     1       2.279   8.021  17.898  0.00  0.00    +0.000 C 
BRANCH  25  26
ATOM     26  C   UNL     1       2.244   7.533  19.328  0.00  0.00    +0.000 C 
BRANCH  26  27
ATOM     27  C   UNL     1       2.318   6.021  19.346  0.00  0.00    +0.000 C 
BRANCH  27  28
ATOM     28  C   UNL     1       3.701   5.598  19.790  0.00  0.00    +0.000 C 
BRANCH  28  29
ATOM     29  C   UNL     1       4.000   4.209  19.269  0.00  0.00    +0.000 C 
BRANCH  29  30
ATOM     30  C   UNL     1       2.950   3.816  18.250  0.00  0.00    +0.000 C 
BRANCH  30  31
ATOM     31  C   UNL     1       3.555   3.836  16.861  0.00  0.00    +0.000 C 
BRANCH  31  32
ATOM     32  C   UNL     1       5.042   4.115  16.954  0.00  0.00    +0.000 C 
BRANCH  32  33
ATOM     33  C   UNL     1       5.492   4.916  15.747  0.00  0.00    +0.000 C 
BRANCH  33  34
ATOM     34  C   UNL     1       5.171   6.387  15.948  0.00  0.00    +0.000 C 
BRANCH  34  35
ATOM     35  C   UNL     1       5.786   6.886  17.246  0.00  0.00    +0.000 C 
BRANCH  35  36
ATOM     36  C   UNL     1       7.296   7.000  17.105  0.00  0.00    +0.000 C 
BRANCH  36  38
ATOM     37  C   UNL     1       7.479   5.660  19.209  0.00  0.00    +0.000 C 
ATOM     38  C   UNL     1       7.976   6.885  18.463  0.00  0.00    +0.000 C 
ENDBRANCH  36  38
ENDBRANCH  35  36
ENDBRANCH  34  35
ENDBRANCH  33  34
ENDBRANCH  32  33
ENDBRANCH  31  32
ENDBRANCH  30  31
ENDBRANCH  29  30
ENDBRANCH  28  29
ENDBRANCH  27  28
ENDBRANCH  26  27
ENDBRANCH  25  26
ENDBRANCH  24  25
ENDBRANCH  23  24
ENDBRANCH   1  23
TORSDOF 22
ENDMDL
MODEL 5
REMARK VINA RESULT:      -6.0      3.777      8.920
REMARK  Name = 
REMARK  27 active torsions:
REMARK  status: ('A' for Active; 'I' for Inactive)
REMARK    1  A    between atoms: C_1  and  C_2
REMARK    2  A    between atoms: C_2  and  C_3
REMARK    3  A    between atoms: C_3  and  C_4
REMARK    4  A    between atoms: C_4  and  C_5
REMARK    5  A    between atoms: C_5  and  C_6
REMARK    6  A    between atoms: C_6  and  C_7
REMARK    7  A    between atoms: C_7  and  C_8
REMARK    8  A    between atoms: C_8  and  C_9
REMARK    9  A    between atoms: C_9  and  C_10
REMARK   10  A    between atoms: C_10  and  C_11
REMARK   11  A    between atoms: C_11  and  C_12
REMARK   12  A    between atoms: C_12  and  C_13
REMARK   13  A    between atoms: C_13  and  C_14
REMARK   14  A    between atoms: C_14  and  C_15
REMARK   15  A    between atoms: C_15  and  C_16
REMARK   16  A    between atoms: C_16  and  C_17
REMARK   17  A    between atoms: C_17  and  C_18
REMARK   18  A    between atoms: C_17  and  C_23
REMARK   19  A    between atoms: C_18  and  C_19
REMARK   20  A    between atoms: N_21  and  O_22
REMARK   21  A    between atoms: N_25  and  C_26
REMARK   22  A    between atoms: C_26  and  C_27
REMARK   23  A    between atoms: C_26  and  C_31
REMARK   24  A    between atoms: N_29  and  C_30
REMARK   25  A    between atoms: C_31  and  C_32
REMARK   26  A    between atoms: C_31  and  C_33
REMARK   27  A    between atoms: C_31  and  C_34
REMARK                            x       y       z     vdW  Elec       q    Type
REMARK                         _______ _______ _______ _____ _____    ______ ____
ROOT
ATOM      1  C   UNL     1       5.827   5.525  17.489  0.00  0.00    +0.000 C 
ENDROOT
BRANCH   1   2
ATOM      2  C   UNL     1       5.080   5.042  18.746  0.00  0.00    +0.000 C 
ATOM      3  O   UNL     1       5.440   5.374  19.875  0.00  0.00    +0.000 OA
ATOM      4  N   UNL     1       4.014   4.201  18.565  0.00  0.00    +0.000 N 
ATOM      5  H   UNL     1       3.742   3.992  17.613  0.00  0.00    +0.000 HD
BRANCH   4   6
ATOM      6  C   UNL     1       3.099   3.761  19.638  0.00  0.00    +0.000 C 
BRANCH   6   7
ATOM      7  C   UNL     1       3.673   2.635  20.567  0.00  0.00    +0.000 C 
ATOM      8  O   UNL     1       3.199   2.380  21.675  0.00  0.00    +0.000 OA
ATOM      9  N   UNL     1       4.744   1.943  20.062  0.00  0.00    +0.000 N 
ATOM     10  C   UNL     1       5.422   0.874  20.742  0.00  0.00    +0.000 C 
ATOM     11  H   UNL     1       5.095   2.291  19.170  0.00  0.00    +0.000 HD
ENDBRANCH   6   7
BRANCH   6  12
ATOM     12  C   UNL     1       1.715   3.377  19.009  0.00  0.00    +0.000 C 
ATOM     13  C   UNL     1       1.413   4.213  17.750  0.00  0.00    +0.000 C 
ATOM     14  C   UNL     1       1.749   1.890  18.577  0.00  0.00    +0.000 C 
ATOM     15  C   UNL     1       0.553   3.568  20.006  0.00  0.00    +0.000 C 
ENDBRANCH   6  12
ENDBRANCH   4   6
ENDBRANCH   1   2
BRANCH   1  16
ATOM     16  C   UNL     1       6.546   4.339  16.835  0.00  0.00    +0.000 C 
BRANCH  16  17
ATOM     17  C   UNL     1       6.759   4.516  15.352  0.00  0.00    +0.000 C 
ATOM     18  O   UNL     1       6.284   3.783  14.487  0.00  0.00    +0.000 OA
ATOM     19  N   UNL     1       7.627   5.519  15.036  0.00  0.00    +0.000 N 
ATOM     20  H   UNL     1       8.002   6.195  15.692  0.00  0.00    +0.000 HD
BRANCH  19  21
ATOM     21  O   UNL     1       7.952   5.661  13.670  0.00  0.00    +0.000 OA
ATOM     22  H   UNL     1       8.194   6.613  13.616  0.00  0.00    +0.000 HD
ENDBRANCH  19  21
ENDBRANCH  16  17
ENDBRANCH   1  16
BRANCH   1  23
ATOM     23  C   UNL     1       4.958   6.359  16.534  0.00  0.00    +0.000 C 
BRANCH  23  24
ATOM     24  C   UNL     1       4.509   7.694  17.107  0.00  0.00    +0.000 C 
BRANCH  24  25
ATOM     25  C   UNL     1       3.080   7.552  17.598  0.00  0.00    +0.000 C 
BRANCH  25  26
ATOM     26  C   UNL     1       2.473   8.921  17.811  0.00  0.00    +0.000 C 
BRANCH  26  27
ATOM     27  C   UNL     1       1.594   8.894  19.043  0.00  0.00    +0.000 C 
BRANCH  27  28
ATOM     28  C   UNL     1       1.493   7.472  19.549  0.00  0.00    +0.000 C 
BRANCH  28  29
ATOM     29  C   UNL     1       1.742   7.443  21.041  0.00  0.00    +0.000 C 
BRANCH  29  30
ATOM     30  C   UNL     1       1.380   8.788  21.638  0.00  0.00    +0.000 C 
BRANCH  30  31
ATOM     31  C   UNL     1      -0.127   8.947  21.656  0.00  0.00    +0.000 C 
BRANCH  31  32
ATOM     32  C   UNL     1      -0.494  10.274  22.292  0.00  0.00    +0.000 C 
BRANCH  32  33
ATOM     33  C   UNL     1      -0.390  11.384  21.263  0.00  0.00    +0.000 C 
BRANCH  33  34
ATOM     34  C   UNL     1      -1.029  10.946  19.957  0.00  0.00    +0.000 C 
BRANCH  34  35
ATOM     35  C   UNL     1      -2.120  11.925  19.551  0.00  0.00    +0.000 C 
BRANCH  35  36
ATOM     36  C   UNL     1      -2.656  11.576  18.171  0.00  0.00    +0.000 C 
BRANCH  36  38
ATOM     37  C   UNL     1      -2.198   9.879  16.392  0.00  0.00    +0.000 C 
ATOM     38  C   UNL     1      -2.454  10.096  17.872  0.00  0.00    +0.000 C 
ENDBRANCH  36  38
ENDBRANCH  35  36
ENDBRANCH  34  35
ENDBRANCH  33  34
ENDBRANCH  32  33
ENDBRANCH  31  32
ENDBRANCH  30  31
ENDBRANCH  29  30
ENDBRANCH  28  29
ENDBRANCH  27  28
ENDBRANCH  26  27
ENDBRANCH  25  26
ENDBRANCH  24  25
ENDBRANCH  23  24
ENDBRANCH   1  23
TORSDOF 22
ENDMDL
MODEL 6
REMARK VINA RESULT:      -6.0      3.673      9.097
REMARK  Name = 
REMARK  27 active torsions:
REMARK  status: ('A' for Active; 'I' for Inactive)
REMARK    1  A    between atoms: C_1  and  C_2
REMARK    2  A    between atoms: C_2  and  C_3
REMARK    3  A    between atoms: C_3  and  C_4
REMARK    4  A    between atoms: C_4  and  C_5
REMARK    5  A    between atoms: C_5  and  C_6
REMARK    6  A    between atoms: C_6  and  C_7
REMARK    7  A    between atoms: C_7  and  C_8
REMARK    8  A    between atoms: C_8  and  C_9
REMARK    9  A    between atoms: C_9  and  C_10
REMARK   10  A    between atoms: C_10  and  C_11
REMARK   11  A    between atoms: C_11  and  C_12
REMARK   12  A    between atoms: C_12  and  C_13
REMARK   13  A    between atoms: C_13  and  C_14
REMARK   14  A    between atoms: C_14  and  C_15
REMARK   15  A    between atoms: C_15  and  C_16
REMARK   16  A    between atoms: C_16  and  C_17
REMARK   17  A    between atoms: C_17  and  C_18
REMARK   18  A    between atoms: C_17  and  C_23
REMARK   19  A    between atoms: C_18  and  C_19
REMARK   20  A    between atoms: N_21  and  O_22
REMARK   21  A    between atoms: N_25  and  C_26
REMARK   22  A    between atoms: C_26  and  C_27
REMARK   23  A    between atoms: C_26  and  C_31
REMARK   24  A    between atoms: N_29  and  C_30
REMARK   25  A    between atoms: C_31  and  C_32
REMARK   26  A    between atoms: C_31  and  C_33
REMARK   27  A    between atoms: C_31  and  C_34
REMARK                            x       y       z     vdW  Elec       q    Type
REMARK                         _______ _______ _______ _____ _____    ______ ____
ROOT
ATOM      1  C   UNL     1       4.681   6.650  17.467  0.00  0.00    +0.000 C 
ENDROOT
BRANCH   1   2
ATOM      2  C   UNL     1       4.568   5.704  18.677  0.00  0.00    +0.000 C 
ATOM      3  O   UNL     1       5.244   5.873  19.691  0.00  0.00    +0.000 OA
ATOM      4  N   UNL     1       3.708   4.642  18.572  0.00  0.00    +0.000 N 
ATOM      5  H   UNL     1       3.153   4.575  17.729  0.00  0.00    +0.000 HD
BRANCH   4   6
ATOM      6  C   UNL     1       3.366   3.726  19.679  0.00  0.00    +0.000 C 
BRANCH   6   7
ATOM      7  C   UNL     1       4.029   2.308  19.584  0.00  0.00    +0.000 C 
ATOM      8  O   UNL     1       3.930   1.593  18.584  0.00  0.00    +0.000 OA
ATOM      9  N   UNL     1       4.734   1.910  20.690  0.00  0.00    +0.000 N 
ATOM     10  C   UNL     1       5.419   0.654  20.816  0.00  0.00    +0.000 C 
ATOM     11  H   UNL     1       4.684   2.552  21.481  0.00  0.00    +0.000 HD
ENDBRANCH   6   7
BRANCH   6  12
ATOM     12  C   UNL     1       1.806   3.655  19.824  0.00  0.00    +0.000 C 
ATOM     13  C   UNL     1       1.117   3.477  18.457  0.00  0.00    +0.000 C 
ATOM     14  C   UNL     1       1.432   2.426  20.690  0.00  0.00    +0.000 C 
ATOM     15  C   UNL     1       1.228   4.918  20.496  0.00  0.00    +0.000 C 
ENDBRANCH   6  12
ENDBRANCH   4   6
ENDBRANCH   1   2
BRANCH   1  16
ATOM     16  C   UNL     1       5.490   5.966  16.358  0.00  0.00    +0.000 C 
BRANCH  16  17
ATOM     17  C   UNL     1       6.922   5.694  16.748  0.00  0.00    +0.000 C 
ATOM     18  O   UNL     1       7.836   6.512  16.662  0.00  0.00    +0.000 OA
ATOM     19  N   UNL     1       7.157   4.403  17.118  0.00  0.00    +0.000 N 
ATOM     20  H   UNL     1       6.443   3.699  17.268  0.00  0.00    +0.000 HD
BRANCH  19  21
ATOM     21  O   UNL     1       8.500   4.061  17.387  0.00  0.00    +0.000 OA
ATOM     22  H   UNL     1       8.989   4.750  16.884  0.00  0.00    +0.000 HD
ENDBRANCH  19  21
ENDBRANCH  16  17
ENDBRANCH   1  16
BRANCH   1  23
ATOM     23  C   UNL     1       3.337   7.240  17.014  0.00  0.00    +0.000 C 
BRANCH  23  24
ATOM     24  C   UNL     1       2.329   7.425  18.137  0.00  0.00    +0.000 C 
BRANCH  24  25
ATOM     25  C   UNL     1       2.217   8.906  18.447  0.00  0.00    +0.000 C 
BRANCH  25  26
ATOM     26  C   UNL     1       0.998   9.159  19.305  0.00  0.00    +0.000 C 
BRANCH  26  27
ATOM     27  C   UNL     1       1.220   8.568  20.681  0.00  0.00    +0.000 C 
BRANCH  27  28
ATOM     28  C   UNL     1       1.286   9.688  21.696  0.00  0.00    +0.000 C 
BRANCH  28  29
ATOM     29  C   UNL     1       0.283   9.432  22.800  0.00  0.00    +0.000 C 
BRANCH  29  30
ATOM     30  C   UNL     1      -0.858  10.423  22.685  0.00  0.00    +0.000 C 
BRANCH  30  31
ATOM     31  C   UNL     1      -0.447  11.570  21.785  0.00  0.00    +0.000 C 
BRANCH  31  32
ATOM     32  C   UNL     1      -1.448  12.702  21.908  0.00  0.00    +0.000 C 
BRANCH  32  33
ATOM     33  C   UNL     1      -2.335  12.742  20.678  0.00  0.00    +0.000 C 
BRANCH  33  34
ATOM     34  C   UNL     1      -1.628  12.087  19.504  0.00  0.00    +0.000 C 
BRANCH  34  35
ATOM     35  C   UNL     1      -2.642  11.443  18.573  0.00  0.00    +0.000 C 
BRANCH  35  36
ATOM     36  C   UNL     1      -2.020  10.252  17.858  0.00  0.00    +0.000 C 
BRANCH  36  38
ATOM     37  C   UNL     1      -3.665  11.044  16.148  0.00  0.00    +0.000 C 
ATOM     38  C   UNL     1      -2.388  10.257  16.380  0.00  0.00    +0.000 C 
ENDBRANCH  36  38
ENDBRANCH  35  36
ENDBRANCH  34  35
ENDBRANCH  33  34
ENDBRANCH  32  33
ENDBRANCH  31  32
ENDBRANCH  30  31
ENDBRANCH  29  30
ENDBRANCH  28  29
ENDBRANCH  27  28
ENDBRANCH  26  27
ENDBRANCH  25  26
ENDBRANCH  24  25
ENDBRANCH  23  24
ENDBRANCH   1  23
TORSDOF 22
ENDMDL
MODEL 7
REMARK VINA RESULT:      -6.0      5.539     10.152
REMARK  Name = 
REMARK  27 active torsions:
REMARK  status: ('A' for Active; 'I' for Inactive)
REMARK    1  A    between atoms: C_1  and  C_2
REMARK    2  A    between atoms: C_2  and  C_3
REMARK    3  A    between atoms: C_3  and  C_4
REMARK    4  A    between atoms: C_4  and  C_5
REMARK    5  A    between atoms: C_5  and  C_6
REMARK    6  A    between atoms: C_6  and  C_7
REMARK    7  A    between atoms: C_7  and  C_8
REMARK    8  A    between atoms: C_8  and  C_9
REMARK    9  A    between atoms: C_9  and  C_10
REMARK   10  A    between atoms: C_10  and  C_11
REMARK   11  A    between atoms: C_11  and  C_12
REMARK   12  A    between atoms: C_12  and  C_13
REMARK   13  A    between atoms: C_13  and  C_14
REMARK   14  A    between atoms: C_14  and  C_15
REMARK   15  A    between atoms: C_15  and  C_16
REMARK   16  A    between atoms: C_16  and  C_17
REMARK   17  A    between atoms: C_17  and  C_18
REMARK   18  A    between atoms: C_17  and  C_23
REMARK   19  A    between atoms: C_18  and  C_19
REMARK   20  A    between atoms: N_21  and  O_22
REMARK   21  A    between atoms: N_25  and  C_26
REMARK   22  A    between atoms: C_26  and  C_27
REMARK   23  A    between atoms: C_26  and  C_31
REMARK   24  A    between atoms: N_29  and  C_30
REMARK   25  A    between atoms: C_31  and  C_32
REMARK   26  A    between atoms: C_31  and  C_33
REMARK   27  A    between atoms: C_31  and  C_34
REMARK                            x       y       z     vdW  Elec       q    Type
REMARK                         _______ _______ _______ _____ _____    ______ ____
ROOT
ATOM      1  C   UNL     1       7.108   5.402  18.206  0.00  0.00    +0.000 C 
ENDROOT
BRANCH   1   2
ATOM      2  C   UNL     1       5.793   5.071  18.938  0.00  0.00    +0.000 C 
ATOM      3  O   UNL     1       5.108   5.950  19.459  0.00  0.00    +0.000 OA
ATOM      4  N   UNL     1       5.426   3.753  19.015  0.00  0.00    +0.000 N 
ATOM      5  H   UNL     1       6.009   3.079  18.536  0.00  0.00    +0.000 HD
BRANCH   4   6
ATOM      6  C   UNL     1       4.135   3.270  19.545  0.00  0.00    +0.000 C 
BRANCH   6   7
ATOM      7  C   UNL     1       4.254   2.245  20.726  0.00  0.00    +0.000 C 
ATOM      8  O   UNL     1       3.432   2.185  21.643  0.00  0.00    +0.000 OA
ATOM      9  N   UNL     1       5.340   1.409  20.675  0.00  0.00    +0.000 N 
ATOM     10  C   UNL     1       5.641   0.397  21.649  0.00  0.00    +0.000 C 
ATOM     11  H   UNL     1       5.989   1.600  19.912  0.00  0.00    +0.000 HD
ENDBRANCH   6   7
BRANCH   6  12
ATOM     12  C   UNL     1       3.263   2.727  18.360  0.00  0.00    +0.000 C 
ATOM     13  C   UNL     1       1.951   2.096  18.865  0.00  0.00    +0.000 C 
ATOM     14  C   UNL     1       2.879   3.905  17.430  0.00  0.00    +0.000 C 
ATOM     15  C   UNL     1       4.017   1.671  17.524  0.00  0.00    +0.000 C 
ENDBRANCH   6  12
ENDBRANCH   4   6
ENDBRANCH   1   2
BRANCH   1  16
ATOM     16  C   UNL     1       7.409   4.306  17.178  0.00  0.00    +0.000 C 
BRANCH  16  17
ATOM     17  C   UNL     1       6.969   4.665  15.780  0.00  0.00    +0.000 C 
ATOM     18  O   UNL     1       7.559   5.453  15.044  0.00  0.00    +0.000 OA
ATOM     19  N   UNL     1       5.775   4.112  15.419  0.00  0.00    +0.000 N 
ATOM     20  H   UNL     1       5.272   3.411  15.950  0.00  0.00    +0.000 HD
BRANCH  19  21
ATOM     21  O   UNL     1       5.258   4.500  14.164  0.00  0.00    +0.000 OA
ATOM     22  H   UNL     1       6.058   4.859  13.717  0.00  0.00    +0.000 HD
ENDBRANCH  19  21
ENDBRANCH  16  17
ENDBRANCH   1  16
BRANCH   1  23
ATOM     23  C   UNL     1       7.167   6.836  17.658  0.00  0.00    +0.000 C 
BRANCH  23  24
ATOM     24  C   UNL     1       8.191   7.724  18.347  0.00  0.00    +0.000 C 
BRANCH  24  25
ATOM     25  C   UNL     1       8.054   9.133  17.802  0.00  0.00    +0.000 C 
BRANCH  25  26
ATOM     26  C   UNL     1       9.211   9.982  18.279  0.00  0.00    +0.000 C 
BRANCH  26  27
ATOM     27  C   UNL     1       8.843  11.446  18.156  0.00  0.00    +0.000 C 
BRANCH  27  28
ATOM     28  C   UNL     1      10.083  12.287  18.369  0.00  0.00    +0.000 C 
BRANCH  28  29
ATOM     29  C   UNL     1       9.928  13.611  17.653  0.00  0.00    +0.000 C 
BRANCH  29  30
ATOM     30  C   UNL     1      10.366  14.734  18.569  0.00  0.00    +0.000 C 
BRANCH  30  31
ATOM     31  C   UNL     1       9.460  14.785  19.782  0.00  0.00    +0.000 C 
BRANCH  31  32
ATOM     32  C   UNL     1      10.296  14.829  21.046  0.00  0.00    +0.000 C 
BRANCH  32  33
ATOM     33  C   UNL     1       9.583  14.087  22.162  0.00  0.00    +0.000 C 
BRANCH  33  34
ATOM     34  C   UNL     1       8.463  13.235  21.589  0.00  0.00    +0.000 C 
BRANCH  34  35
ATOM     35  C   UNL     1       8.585  11.804  22.086  0.00  0.00    +0.000 C 
BRANCH  35  36
ATOM     36  C   UNL     1       8.044  11.690  23.504  0.00  0.00    +0.000 C 
BRANCH  36  38
ATOM     37  C   UNL     1       6.072  12.443  24.846  0.00  0.00    +0.000 C 
ATOM     38  C   UNL     1       6.531  11.863  23.520  0.00  0.00    +0.000 C 
ENDBRANCH  36  38
ENDBRANCH  35  36
ENDBRANCH  34  35
ENDBRANCH  33  34
ENDBRANCH  32  33
ENDBRANCH  31  32
ENDBRANCH  30  31
ENDBRANCH  29  30
ENDBRANCH  28  29
ENDBRANCH  27  28
ENDBRANCH  26  27
ENDBRANCH  25  26
ENDBRANCH  24  25
ENDBRANCH  23  24
ENDBRANCH   1  23
TORSDOF 22
ENDMDL
MODEL 8
REMARK VINA RESULT:      -6.0      2.864      5.110
REMARK  Name = 
REMARK  27 active torsions:
REMARK  status: ('A' for Active; 'I' for Inactive)
REMARK    1  A    between atoms: C_1  and  C_2
REMARK    2  A    between atoms: C_2  and  C_3
REMARK    3  A    between atoms: C_3  and  C_4
REMARK    4  A    between atoms: C_4  and  C_5
REMARK    5  A    between atoms: C_5  and  C_6
REMARK    6  A    between atoms: C_6  and  C_7
REMARK    7  A    between atoms: C_7  and  C_8
REMARK    8  A    between atoms: C_8  and  C_9
REMARK    9  A    between atoms: C_9  and  C_10
REMARK   10  A    between atoms: C_10  and  C_11
REMARK   11  A    between atoms: C_11  and  C_12
REMARK   12  A    between atoms: C_12  and  C_13
REMARK   13  A    between atoms: C_13  and  C_14
REMARK   14  A    between atoms: C_14  and  C_15
REMARK   15  A    between atoms: C_15  and  C_16
REMARK   16  A    between atoms: C_16  and  C_17
REMARK   17  A    between atoms: C_17  and  C_18
REMARK   18  A    between atoms: C_17  and  C_23
REMARK   19  A    between atoms: C_18  and  C_19
REMARK   20  A    between atoms: N_21  and  O_22
REMARK   21  A    between atoms: N_25  and  C_26
REMARK   22  A    between atoms: C_26  and  C_27
REMARK   23  A    between atoms: C_26  and  C_31
REMARK   24  A    between atoms: N_29  and  C_30
REMARK   25  A    between atoms: C_31  and  C_32
REMARK   26  A    between atoms: C_31  and  C_33
REMARK   27  A    between atoms: C_31  and  C_34
REMARK                            x       y       z     vdW  Elec       q    Type
REMARK                         _______ _______ _______ _____ _____    ______ ____
ROOT
ATOM      1  C   UNL     1      -0.199  10.193  19.475  0.00  0.00    +0.000 C 
ENDROOT
BRANCH   1   2
ATOM      2  C   UNL     1      -0.603  10.668  20.884  0.00  0.00    +0.000 C 
ATOM      3  O   UNL     1      -0.406   9.971  21.878  0.00  0.00    +0.000 OA
ATOM      4  N   UNL     1      -1.221  11.887  20.988  0.00  0.00    +0.000 N 
ATOM      5  H   UNL     1      -1.323  12.430  20.141  0.00  0.00    +0.000 HD
BRANCH   4   6
ATOM      6  C   UNL     1      -1.541  12.559  22.263  0.00  0.00    +0.000 C 
BRANCH   6   7
ATOM      7  C   UNL     1      -3.056  12.507  22.668  0.00  0.00    +0.000 C 
ATOM      8  O   UNL     1      -3.969  12.586  21.844  0.00  0.00    +0.000 OA
ATOM      9  N   UNL     1      -3.303  12.365  24.009  0.00  0.00    +0.000 N 
ATOM     10  C   UNL     1      -4.612  12.294  24.597  0.00  0.00    +0.000 C 
ATOM     11  H   UNL     1      -2.473  12.385  24.601  0.00  0.00    +0.000 HD
ENDBRANCH   6   7
BRANCH   6  12
ATOM     12  C   UNL     1      -0.976  14.022  22.229  0.00  0.00    +0.000 C 
ATOM     13  C   UNL     1      -1.755  14.908  21.238  0.00  0.00    +0.000 C 
ATOM     14  C   UNL     1      -1.129  14.658  23.633  0.00  0.00    +0.000 C 
ATOM     15  C   UNL     1       0.517  14.057  21.838  0.00  0.00    +0.000 C 
ENDBRANCH   6  12
ENDBRANCH   4   6
ENDBRANCH   1   2
BRANCH   1  16
ATOM     16  C   UNL     1      -0.555  11.276  18.450  0.00  0.00    +0.000 C 
BRANCH  16  17
ATOM     17  C   UNL     1      -1.630  10.850  17.483  0.00  0.00    +0.000 C 
ATOM     18  O   UNL     1      -1.945   9.682  17.259  0.00  0.00    +0.000 OA
ATOM     19  N   UNL     1      -2.176  11.881  16.775  0.00  0.00    +0.000 N 
ATOM     20  H   UNL     1      -2.007  12.864  16.953  0.00  0.00    +0.000 HD
BRANCH  19  21
ATOM     21  O   UNL     1      -3.109  11.532  15.776  0.00  0.00    +0.000 OA
ATOM     22  H   UNL     1      -3.480  10.691  16.128  0.00  0.00    +0.000 HD
ENDBRANCH  19  21
ENDBRANCH  16  17
ENDBRANCH   1  16
BRANCH   1  23
ATOM     23  C   UNL     1       1.243   9.669  19.388  0.00  0.00    +0.000 C 
BRANCH  23  24
ATOM     24  C   UNL     1       1.482   8.691  18.249  0.00  0.00    +0.000 C 
BRANCH  24  25
ATOM     25  C   UNL     1       2.458   7.630  18.721  0.00  0.00    +0.000 C 
BRANCH  25  26
ATOM     26  C   UNL     1       1.998   7.062  20.044  0.00  0.00    +0.000 C 
BRANCH  26  27
ATOM     27  C   UNL     1       2.505   5.643  20.186  0.00  0.00    +0.000 C 
BRANCH  27  28
ATOM     28  C   UNL     1       1.376   4.760  20.671  0.00  0.00    +0.000 C 
BRANCH  28  29
ATOM     29  C   UNL     1       1.095   3.684  19.644  0.00  0.00    +0.000 C 
BRANCH  29  30
ATOM     30  C   UNL     1       2.351   2.871  19.409  0.00  0.00    +0.000 C 
BRANCH  30  31
ATOM     31  C   UNL     1       2.536   2.637  17.924  0.00  0.00    +0.000 C 
BRANCH  31  32
ATOM     32  C   UNL     1       2.847   3.950  17.233  0.00  0.00    +0.000 C 
BRANCH  32  33
ATOM     33  C   UNL     1       4.210   3.874  16.571  0.00  0.00    +0.000 C 
BRANCH  33  34
ATOM     34  C   UNL     1       4.943   5.194  16.733  0.00  0.00    +0.000 C 
BRANCH  34  35
ATOM     35  C   UNL     1       5.489   5.322  18.146  0.00  0.00    +0.000 C 
BRANCH  35  36
ATOM     36  C   UNL     1       6.990   5.070  18.157  0.00  0.00    +0.000 C 
BRANCH  36  38
ATOM     37  C   UNL     1       7.529   7.451  17.612  0.00  0.00    +0.000 C 
ATOM     38  C   UNL     1       7.743   6.318  18.599  0.00  0.00    +0.000 C 
ENDBRANCH  36  38
ENDBRANCH  35  36
ENDBRANCH  34  35
ENDBRANCH  33  34
ENDBRANCH  32  33
ENDBRANCH  31  32
ENDBRANCH  30  31
ENDBRANCH  29  30
ENDBRANCH  28  29
ENDBRANCH  27  28
ENDBRANCH  26  27
ENDBRANCH  25  26
ENDBRANCH  24  25
ENDBRANCH  23  24
ENDBRANCH   1  23
TORSDOF 22
ENDMDL
MODEL 9
REMARK VINA RESULT:      -5.9      4.841      9.333
REMARK  Name = 
REMARK  27 active torsions:
REMARK  status: ('A' for Active; 'I' for Inactive)
REMARK    1  A    between atoms: C_1  and  C_2
REMARK    2  A    between atoms: C_2  and  C_3
REMARK    3  A    between atoms: C_3  and  C_4
REMARK    4  A    between atoms: C_4  and  C_5
REMARK    5  A    between atoms: C_5  and  C_6
REMARK    6  A    between atoms: C_6  and  C_7
REMARK    7  A    between atoms: C_7  and  C_8
REMARK    8  A    between atoms: C_8  and  C_9
REMARK    9  A    between atoms: C_9  and  C_10
REMARK   10  A    between atoms: C_10  and  C_11
REMARK   11  A    between atoms: C_11  and  C_12
REMARK   12  A    between atoms: C_12  and  C_13
REMARK   13  A    between atoms: C_13  and  C_14
REMARK   14  A    between atoms: C_14  and  C_15
REMARK   15  A    between atoms: C_15  and  C_16
REMARK   16  A    between atoms: C_16  and  C_17
REMARK   17  A    between atoms: C_17  and  C_18
REMARK   18  A    between atoms: C_17  and  C_23
REMARK   19  A    between atoms: C_18  and  C_19
REMARK   20  A    between atoms: N_21  and  O_22
REMARK   21  A    between atoms: N_25  and  C_26
REMARK   22  A    between atoms: C_26  and  C_27
REMARK   23  A    between atoms: C_26  and  C_31
REMARK   24  A    between atoms: N_29  and  C_30
REMARK   25  A    between atoms: C_31  and  C_32
REMARK   26  A    between atoms: C_31  and  C_33
REMARK   27  A    between atoms: C_31  and  C_34
REMARK                            x       y       z     vdW  Elec       q    Type
REMARK                         _______ _______ _______ _____ _____    ______ ____
ROOT
ATOM      1  C   UNL     1       6.358   5.628  17.656  0.00  0.00    +0.000 C 
ENDROOT
BRANCH   1   2
ATOM      2  C   UNL     1       5.124   5.274  18.507  0.00  0.00    +0.000 C 
ATOM      3  O   UNL     1       5.098   5.479  19.720  0.00  0.00    +0.000 OA
ATOM      4  N   UNL     1       4.061   4.692  17.868  0.00  0.00    +0.000 N 
ATOM      5  H   UNL     1       4.125   4.582  16.864  0.00  0.00    +0.000 HD
BRANCH   4   6
ATOM      6  C   UNL     1       2.750   4.423  18.493  0.00  0.00    +0.000 C 
BRANCH   6   7
ATOM      7  C   UNL     1       2.366   5.404  19.655  0.00  0.00    +0.000 C 
ATOM      8  O   UNL     1       2.173   5.024  20.812  0.00  0.00    +0.000 OA
ATOM      9  N   UNL     1       2.258   6.724  19.302  0.00  0.00    +0.000 N 
ATOM     10  C   UNL     1       1.919   7.789  20.205  0.00  0.00    +0.000 C 
ATOM     11  H   UNL     1       2.367   6.909  18.305  0.00  0.00    +0.000 HD
ENDBRANCH   6   7
BRANCH   6  12
ATOM     12  C   UNL     1       2.687   2.918  18.929  0.00  0.00    +0.000 C 
ATOM     13  C   UNL     1       1.234   2.412  19.013  0.00  0.00    +0.000 C 
ATOM     14  C   UNL     1       3.415   2.052  17.871  0.00  0.00    +0.000 C 
ATOM     15  C   UNL     1       3.361   2.683  20.298  0.00  0.00    +0.000 C 
ENDBRANCH   6  12
ENDBRANCH   4   6
ENDBRANCH   1   2
BRANCH   1  16
ATOM     16  C   UNL     1       5.914   5.959  16.226  0.00  0.00    +0.000 C 
BRANCH  16  17
ATOM     17  C   UNL     1       6.579   5.097  15.182  0.00  0.00    +0.000 C 
ATOM     18  O   UNL     1       7.652   5.357  14.642  0.00  0.00    +0.000 OA
ATOM     19  N   UNL     1       5.829   4.025  14.795  0.00  0.00    +0.000 N 
ATOM     20  H   UNL     1       4.971   3.721  15.240  0.00  0.00    +0.000 HD
BRANCH  19  21
ATOM     21  O   UNL     1       6.350   3.243  13.741  0.00  0.00    +0.000 OA
ATOM     22  H   UNL     1       7.006   2.680  14.211  0.00  0.00    +0.000 HD
ENDBRANCH  19  21
ENDBRANCH  16  17
ENDBRANCH   1  16
BRANCH   1  23
ATOM     23  C   UNL     1       7.278   6.674  18.305  0.00  0.00    +0.000 C 
BRANCH  23  24
ATOM     24  C   UNL     1       7.926   7.632  17.318  0.00  0.00    +0.000 C 
BRANCH  24  25
ATOM     25  C   UNL     1       7.738   9.049  17.826  0.00  0.00    +0.000 C 
BRANCH  25  26
ATOM     26  C   UNL     1       8.917   9.447  18.684  0.00  0.00    +0.000 C 
BRANCH  26  27
ATOM     27  C   UNL     1       9.043  10.956  18.698  0.00  0.00    +0.000 C 
BRANCH  27  28
ATOM     28  C   UNL     1      10.293  11.355  17.945  0.00  0.00    +0.000 C 
BRANCH  28  29
ATOM     29  C   UNL     1      11.479  11.341  18.885  0.00  0.00    +0.000 C 
BRANCH  29  30
ATOM     30  C   UNL     1      11.220  12.289  20.038  0.00  0.00    +0.000 C 
BRANCH  30  31
ATOM     31  C   UNL     1      11.772  13.659  19.705  0.00  0.00    +0.000 C 
BRANCH  31  32
ATOM     32  C   UNL     1      10.648  14.677  19.696  0.00  0.00    +0.000 C 
BRANCH  32  33
ATOM     33  C   UNL     1      10.416  15.177  18.282  0.00  0.00    +0.000 C 
BRANCH  33  34
ATOM     34  C   UNL     1       9.015  15.747  18.154  0.00  0.00    +0.000 C 
BRANCH  34  35
ATOM     35  C   UNL     1       8.004  14.808  18.793  0.00  0.00    +0.000 C 
BRANCH  35  36
ATOM     36  C   UNL     1       7.153  14.141  17.722  0.00  0.00    +0.000 C 
BRANCH  36  38
ATOM     37  C   UNL     1       5.441  15.323  19.111  0.00  0.00    +0.000 C 
ATOM     38  C   UNL     1       5.719  14.650  17.779  0.00  0.00    +0.000 C 
ENDBRANCH  36  38
ENDBRANCH  35  36
ENDBRANCH  34  35
ENDBRANCH  33  34
ENDBRANCH  32  33
ENDBRANCH  31  32
ENDBRANCH  30  31
ENDBRANCH  29  30
ENDBRANCH  28  29
ENDBRANCH  27  28
ENDBRANCH  26  27
ENDBRANCH  25  26
ENDBRANCH  24  25
ENDBRANCH  23  24
ENDBRANCH   1  23
TORSDOF 22
ENDMDL
