MODEL 1
REMARK VINA RESULT:      -7.3      0.000      0.000
REMARK  Name = 
REMARK  11 active torsions:
REMARK  status: ('A' for Active; 'I' for Inactive)
REMARK    1  A    between atoms: C_1  and  O_2
REMARK    2  A    between atoms: O_2  and  C_3
REMARK    3  A    between atoms: C_3  and  C_5
REMARK    4  A    between atoms: C_9  and  C_10
REMARK    5  A    between atoms: N_13  and  C_14
REMARK    6  A    between atoms: C_14  and  C_15
REMARK    7  A    between atoms: N_17  and  C_18
REMARK    8  A    between atoms: C_21  and  O_22
REMARK    9  A    between atoms: O_22  and  C_23
REMARK   10  A    between atoms: C_24  and  O_25
REMARK   11  A    between atoms: O_25  and  C_26
REMARK                            x       y       z     vdW  Elec       q    Type
REMARK                         _______ _______ _______ _____ _____    ______ ____
ROOT
ATOM      1  C   UNL     1       3.433   3.944  16.861  0.00  0.00    +0.000 C 
ENDROOT
BRANCH   1  10
ATOM      2  C   UNL     1       5.684   4.493  17.966  0.00  0.00    +0.000 A 
ATOM      3  C   UNL     1       6.947   4.851  17.486  0.00  0.00    +0.000 A 
ATOM      4  C   UNL     1       6.836   4.765  16.093  0.00  0.00    +0.000 A 
ATOM      5  O   UNL     1       7.642   4.924  15.017  0.00  0.00    +0.000 OA
ATOM      6  C   UNL     1       6.845   4.629  13.944  0.00  0.00    +0.000 A 
ATOM      7  C   UNL     1       7.508   4.700  12.621  0.00  0.00    +0.000 C 
ATOM      8  C   UNL     1       5.551   4.317  14.315  0.00  0.00    +0.000 A 
ATOM      9  C   UNL     1       5.590   4.417  15.723  0.00  0.00    +0.000 A 
ATOM     10  N   UNL     1       4.843   4.287  16.871  0.00  0.00    +0.000 N 
BRANCH   2  11
ATOM     11  C   UNL     1       5.275   4.359  19.350  0.00  0.00    +0.000 C 
ATOM     12  O   UNL     1       4.945   5.285  20.080  0.00  0.00    +0.000 OA
BRANCH  11  14
ATOM     13  C   UNL     1       4.077   2.459  20.030  0.00  0.00    +0.000 C 
ATOM     14  O   UNL     1       5.338   3.053  19.725  0.00  0.00    +0.000 OA
ENDBRANCH  11  14
ENDBRANCH   2  11
ENDBRANCH   1  10
BRANCH   1  15
ATOM     15  C   UNL     1       2.582   4.985  17.568  0.00  0.00    +0.000 C 
ATOM     16  O   UNL     1       1.527   4.637  18.098  0.00  0.00    +0.000 OA
ATOM     17  N   UNL     1       3.079   6.283  17.538  0.00  0.00    +0.000 N 
ATOM     18  H   UNL     1       3.878   6.463  16.933  0.00  0.00    +0.000 HD
BRANCH  17  19
ATOM     19  C   UNL     1       2.512   7.400  18.211  0.00  0.00    +0.000 A 
ATOM     20  C   UNL     1       2.233   8.606  17.568  0.00  0.00    +0.000 A 
ATOM     21  C   UNL     1       1.620   9.656  18.253  0.00  0.00    +0.000 A 
ATOM     22  C   UNL     1       1.271   9.540  19.601  0.00  0.00    +0.000 A 
ATOM     23  C   UNL     1       1.572   8.346  20.279  0.00  0.00    +0.000 A 
ATOM     24  C   UNL     1       2.164   7.274  19.571  0.00  0.00    +0.000 A 
BRANCH  22  25
ATOM     25  O   UNL     1       0.653  10.669  20.073  0.00  0.00    +0.000 OA
ATOM     26  C   UNL     1      -0.560  11.094  19.475  0.00  0.00    +0.000 C 
ENDBRANCH  22  25
BRANCH  23  27
ATOM     27  O   UNL     1       1.203   8.234  21.592  0.00  0.00    +0.000 OA
ATOM     28  C   UNL     1      -0.187   8.196  21.883  0.00  0.00    +0.000 C 
ENDBRANCH  23  27
ENDBRANCH  17  19
ENDBRANCH   1  15
TORSDOF 7
ENDMDL
MODEL 2
REMARK VINA RESULT:      -7.3      0.813      1.746
REMARK  Name = 
REMARK  11 active torsions:
REMARK  status: ('A' for Active; 'I' for Inactive)
REMARK    1  A    between atoms: C_1  and  O_2
REMARK    2  A    between atoms: O_2  and  C_3
REMARK    3  A    between atoms: C_3  and  C_5
REMARK    4  A    between atoms: C_9  and  C_10
REMARK    5  A    between atoms: N_13  and  C_14
REMARK    6  A    between atoms: C_14  and  C_15
REMARK    7  A    between atoms: N_17  and  C_18
REMARK    8  A    between atoms: C_21  and  O_22
REMARK    9  A    between atoms: O_22  and  C_23
REMARK   10  A    between atoms: C_24  and  O_25
REMARK   11  A    between atoms: O_25  and  C_26
REMARK                            x       y       z     vdW  Elec       q    Type
REMARK                         _______ _______ _______ _____ _____    ______ ____
ROOT
ATOM      1  C   UNL     1       3.392   3.966  16.749  0.00  0.00    +0.000 C 
ENDROOT
BRANCH   1  10
ATOM      2  C   UNL     1       5.592   4.380  18.004  0.00  0.00    +0.000 A 
ATOM      3  C   UNL     1       6.884   4.752  17.618  0.00  0.00    +0.000 A 
ATOM      4  C   UNL     1       6.842   4.782  16.220  0.00  0.00    +0.000 A 
ATOM      5  O   UNL     1       7.704   5.012  15.202  0.00  0.00    +0.000 OA
ATOM      6  C   UNL     1       6.958   4.821  14.070  0.00  0.00    +0.000 A 
ATOM      7  C   UNL     1       7.688   4.987  12.791  0.00  0.00    +0.000 C 
ATOM      8  C   UNL     1       5.643   4.505  14.349  0.00  0.00    +0.000 A 
ATOM      9  C   UNL     1       5.612   4.489  15.761  0.00  0.00    +0.000 A 
ATOM     10  N   UNL     1       4.806   4.280  16.856  0.00  0.00    +0.000 N 
BRANCH   2  11
ATOM     11  C   UNL     1       5.112   4.142  19.351  0.00  0.00    +0.000 C 
ATOM     12  O   UNL     1       4.635   4.993  20.090  0.00  0.00    +0.000 OA
BRANCH  11  14
ATOM     13  C   UNL     1       4.101   2.055  19.715  0.00  0.00    +0.000 C 
ATOM     14  O   UNL     1       5.296   2.835  19.681  0.00  0.00    +0.000 OA
ENDBRANCH  11  14
ENDBRANCH   2  11
ENDBRANCH   1  10
BRANCH   1  15
ATOM     15  C   UNL     1       2.538   4.837  17.655  0.00  0.00    +0.000 C 
ATOM     16  O   UNL     1       1.593   4.327  18.257  0.00  0.00    +0.000 OA
ATOM     17  N   UNL     1       2.903   6.177  17.711  0.00  0.00    +0.000 N 
ATOM     18  H   UNL     1       3.602   6.499  17.045  0.00  0.00    +0.000 HD
BRANCH  17  19
ATOM     19  C   UNL     1       2.318   7.156  18.561  0.00  0.00    +0.000 A 
ATOM     20  C   UNL     1       2.154   6.962  19.932  0.00  0.00    +0.000 A 
ATOM     21  C   UNL     1       1.631   7.973  20.740  0.00  0.00    +0.000 A 
ATOM     22  C   UNL     1       1.252   9.207  20.207  0.00  0.00    +0.000 A 
ATOM     23  C   UNL     1       1.378   9.415  18.821  0.00  0.00    +0.000 A 
ATOM     24  C   UNL     1       1.938   8.398  18.014  0.00  0.00    +0.000 A 
BRANCH  22  25
ATOM     25  O   UNL     1       0.796  10.068  21.170  0.00  0.00    +0.000 OA
ATOM     26  C   UNL     1      -0.338   9.705  21.941  0.00  0.00    +0.000 C 
ENDBRANCH  22  25
BRANCH  23  27
ATOM     27  O   UNL     1       1.027  10.636  18.314  0.00  0.00    +0.000 OA
ATOM     28  C   UNL     1       2.030  11.641  18.266  0.00  0.00    +0.000 C 
ENDBRANCH  23  27
ENDBRANCH  17  19
ENDBRANCH   1  15
TORSDOF 7
ENDMDL
MODEL 3
REMARK VINA RESULT:      -7.1      2.261      3.298
REMARK  Name = 
REMARK  11 active torsions:
REMARK  status: ('A' for Active; 'I' for Inactive)
REMARK    1  A    between atoms: C_1  and  O_2
REMARK    2  A    between atoms: O_2  and  C_3
REMARK    3  A    between atoms: C_3  and  C_5
REMARK    4  A    between atoms: C_9  and  C_10
REMARK    5  A    between atoms: N_13  and  C_14
REMARK    6  A    between atoms: C_14  and  C_15
REMARK    7  A    between atoms: N_17  and  C_18
REMARK    8  A    between atoms: C_21  and  O_22
REMARK    9  A    between atoms: O_22  and  C_23
REMARK   10  A    between atoms: C_24  and  O_25
REMARK   11  A    between atoms: O_25  and  C_26
REMARK                            x       y       z     vdW  Elec       q    Type
REMARK                         _______ _______ _______ _____ _____    ______ ____
ROOT
ATOM      1  C   UNL     1       3.442   4.626  20.068  0.00  0.00    +0.000 C 
ENDROOT
BRANCH   1  10
ATOM      2  C   UNL     1       3.425   3.991  17.581  0.00  0.00    +0.000 A 
ATOM      3  C   UNL     1       4.249   4.285  16.490  0.00  0.00    +0.000 A 
ATOM      4  C   UNL     1       5.186   5.197  16.989  0.00  0.00    +0.000 A 
ATOM      5  O   UNL     1       6.226   5.919  16.511  0.00  0.00    +0.000 OA
ATOM      6  C   UNL     1       6.663   6.646  17.585  0.00  0.00    +0.000 A 
ATOM      7  C   UNL     1       7.798   7.560  17.316  0.00  0.00    +0.000 C 
ATOM      8  C   UNL     1       5.943   6.379  18.734  0.00  0.00    +0.000 A 
ATOM      9  C   UNL     1       4.990   5.432  18.299  0.00  0.00    +0.000 A 
ATOM     10  N   UNL     1       3.928   4.655  18.700  0.00  0.00    +0.000 N 
BRANCH   2  11
ATOM     11  C   UNL     1       2.251   3.139  17.591  0.00  0.00    +0.000 C 
ATOM     12  O   UNL     1       1.097   3.531  17.694  0.00  0.00    +0.000 OA
BRANCH  11  14
ATOM     13  C   UNL     1       3.480   1.383  18.549  0.00  0.00    +0.000 C 
ATOM     14  O   UNL     1       2.628   1.836  17.497  0.00  0.00    +0.000 OA
ENDBRANCH  11  14
ENDBRANCH   2  11
ENDBRANCH   1  10
BRANCH   1  15
ATOM     15  C   UNL     1       2.276   5.575  20.285  0.00  0.00    +0.000 C 
ATOM     16  O   UNL     1       1.167   5.110  20.550  0.00  0.00    +0.000 OA
ATOM     17  N   UNL     1       2.571   6.926  20.143  0.00  0.00    +0.000 N 
ATOM     18  H   UNL     1       3.487   7.167  19.768  0.00  0.00    +0.000 HD
BRANCH  17  19
ATOM     19  C   UNL     1       1.672   7.999  20.396  0.00  0.00    +0.000 A 
ATOM     20  C   UNL     1       1.243   8.335  21.679  0.00  0.00    +0.000 A 
ATOM     21  C   UNL     1       0.407   9.435  21.888  0.00  0.00    +0.000 A 
ATOM     22  C   UNL     1      -0.030  10.228  20.825  0.00  0.00    +0.000 A 
ATOM     23  C   UNL     1       0.364   9.888  19.518  0.00  0.00    +0.000 A 
ATOM     24  C   UNL     1       1.235   8.793  19.317  0.00  0.00    +0.000 A 
BRANCH  22  25
ATOM     25  O   UNL     1      -0.813  11.271  21.247  0.00  0.00    +0.000 OA
ATOM     26  C   UNL     1      -0.205  12.521  21.529  0.00  0.00    +0.000 C 
ENDBRANCH  22  25
BRANCH  23  27
ATOM     27  O   UNL     1      -0.051  10.688  18.487  0.00  0.00    +0.000 OA
ATOM     28  C   UNL     1      -1.288  10.369  17.865  0.00  0.00    +0.000 C 
ENDBRANCH  23  27
ENDBRANCH  17  19
ENDBRANCH   1  15
TORSDOF 7
ENDMDL
MODEL 4
REMARK VINA RESULT:      -7.1      1.954      2.836
REMARK  Name = 
REMARK  11 active torsions:
REMARK  status: ('A' for Active; 'I' for Inactive)
REMARK    1  A    between atoms: C_1  and  O_2
REMARK    2  A    between atoms: O_2  and  C_3
REMARK    3  A    between atoms: C_3  and  C_5
REMARK    4  A    between atoms: C_9  and  C_10
REMARK    5  A    between atoms: N_13  and  C_14
REMARK    6  A    between atoms: C_14  and  C_15
REMARK    7  A    between atoms: N_17  and  C_18
REMARK    8  A    between atoms: C_21  and  O_22
REMARK    9  A    between atoms: O_22  and  C_23
REMARK   10  A    between atoms: C_24  and  O_25
REMARK   11  A    between atoms: O_25  and  C_26
REMARK                            x       y       z     vdW  Elec       q    Type
REMARK                         _______ _______ _______ _____ _____    ______ ____
ROOT
ATOM      1  C   UNL     1       3.572   5.693  19.660  0.00  0.00    +0.000 C 
ENDROOT
BRANCH   1  10
ATOM      2  C   UNL     1       3.022   3.433  18.575  0.00  0.00    +0.000 A 
ATOM      3  C   UNL     1       3.571   2.694  17.522  0.00  0.00    +0.000 A 
ATOM      4  C   UNL     1       4.561   3.524  16.984  0.00  0.00    +0.000 A 
ATOM      5  O   UNL     1       5.441   3.488  15.956  0.00  0.00    +0.000 OA
ATOM      6  C   UNL     1       6.080   4.697  16.008  0.00  0.00    +0.000 A 
ATOM      7  C   UNL     1       7.093   4.928  14.951  0.00  0.00    +0.000 C 
ATOM      8  C   UNL     1       5.646   5.482  17.059  0.00  0.00    +0.000 A 
ATOM      9  C   UNL     1       4.655   4.679  17.667  0.00  0.00    +0.000 A 
ATOM     10  N   UNL     1       3.739   4.625  18.691  0.00  0.00    +0.000 N 
BRANCH   2  11
ATOM     11  C   UNL     1       1.913   3.057  19.428  0.00  0.00    +0.000 C 
ATOM     12  O   UNL     1       0.736   3.313  19.209  0.00  0.00    +0.000 OA
BRANCH  11  14
ATOM     13  C   UNL     1       1.651   2.653  21.725  0.00  0.00    +0.000 C 
ATOM     14  O   UNL     1       2.378   2.399  20.524  0.00  0.00    +0.000 OA
ENDBRANCH  11  14
ENDBRANCH   2  11
ENDBRANCH   1  10
BRANCH   1  15
ATOM     15  C   UNL     1       2.634   6.780  19.163  0.00  0.00    +0.000 C 
ATOM     16  O   UNL     1       2.243   6.746  17.996  0.00  0.00    +0.000 OA
ATOM     17  N   UNL     1       2.304   7.757  20.096  0.00  0.00    +0.000 N 
ATOM     18  H   UNL     1       2.818   7.756  20.975  0.00  0.00    +0.000 HD
BRANCH  17  19
ATOM     19  C   UNL     1       1.370   8.811  19.893  0.00  0.00    +0.000 A 
ATOM     20  C   UNL     1       1.058   9.306  18.628  0.00  0.00    +0.000 A 
ATOM     21  C   UNL     1       0.090  10.300  18.468  0.00  0.00    +0.000 A 
ATOM     22  C   UNL     1      -0.592  10.834  19.565  0.00  0.00    +0.000 A 
ATOM     23  C   UNL     1      -0.270  10.373  20.854  0.00  0.00    +0.000 A 
ATOM     24  C   UNL     1       0.688   9.344  21.005  0.00  0.00    +0.000 A 
BRANCH  22  25
ATOM     25  O   UNL     1      -1.519  11.771  19.190  0.00  0.00    +0.000 OA
ATOM     26  C   UNL     1      -2.420  11.468  18.137  0.00  0.00    +0.000 C 
ENDBRANCH  22  25
BRANCH  23  27
ATOM     27  O   UNL     1      -0.962  10.885  21.918  0.00  0.00    +0.000 OA
ATOM     28  C   UNL     1      -0.809  10.239  23.174  0.00  0.00    +0.000 C 
ENDBRANCH  23  27
ENDBRANCH  17  19
ENDBRANCH   1  15
TORSDOF 7
ENDMDL
MODEL 5
REMARK VINA RESULT:      -7.1      2.673      8.377
REMARK  Name = 
REMARK  11 active torsions:
REMARK  status: ('A' for Active; 'I' for Inactive)
REMARK    1  A    between atoms: C_1  and  O_2
REMARK    2  A    between atoms: O_2  and  C_3
REMARK    3  A    between atoms: C_3  and  C_5
REMARK    4  A    between atoms: C_9  and  C_10
REMARK    5  A    between atoms: N_13  and  C_14
REMARK    6  A    between atoms: C_14  and  C_15
REMARK    7  A    between atoms: N_17  and  C_18
REMARK    8  A    between atoms: C_21  and  O_22
REMARK    9  A    between atoms: O_22  and  C_23
REMARK   10  A    between atoms: C_24  and  O_25
REMARK   11  A    between atoms: O_25  and  C_26
REMARK                            x       y       z     vdW  Elec       q    Type
REMARK                         _______ _______ _______ _____ _____    ______ ____
ROOT
ATOM      1  C   UNL     1       0.983   9.596  19.619  0.00  0.00    +0.000 C 
ENDROOT
BRANCH   1  10
ATOM      2  C   UNL     1       0.554  12.099  19.248  0.00  0.00    +0.000 A 
ATOM      3  C   UNL     1      -0.411  12.833  18.551  0.00  0.00    +0.000 A 
ATOM      4  C   UNL     1      -1.185  11.870  17.895  0.00  0.00    +0.000 A 
ATOM      5  O   UNL     1      -2.233  11.848  17.038  0.00  0.00    +0.000 OA
ATOM      6  C   UNL     1      -2.437  10.520  16.778  0.00  0.00    +0.000 A 
ATOM      7  C   UNL     1      -3.530  10.219  15.824  0.00  0.00    +0.000 C 
ATOM      8  C   UNL     1      -1.564   9.704  17.471  0.00  0.00    +0.000 A 
ATOM      9  C   UNL     1      -0.766  10.625  18.185  0.00  0.00    +0.000 A 
ATOM     10  N   UNL     1       0.287  10.742  19.062  0.00  0.00    +0.000 N 
BRANCH   2  11
ATOM     11  C   UNL     1       1.648  12.618  20.045  0.00  0.00    +0.000 C 
ATOM     12  O   UNL     1       1.668  12.668  21.267  0.00  0.00    +0.000 OA
BRANCH  11  14
ATOM     13  C   UNL     1       3.034  14.420  19.460  0.00  0.00    +0.000 C 
ATOM     14  O   UNL     1       2.639  13.069  19.229  0.00  0.00    +0.000 OA
ENDBRANCH  11  14
ENDBRANCH   2  11
ENDBRANCH   1  10
BRANCH   1  15
ATOM     15  C   UNL     1       1.776   8.837  18.569  0.00  0.00    +0.000 C 
ATOM     16  O   UNL     1       2.039   9.391  17.502  0.00  0.00    +0.000 OA
ATOM     17  N   UNL     1       2.130   7.537  18.912  0.00  0.00    +0.000 N 
ATOM     18  H   UNL     1       1.716   7.148  19.756  0.00  0.00    +0.000 HD
BRANCH  17  19
ATOM     19  C   UNL     1       2.954   6.674  18.136  0.00  0.00    +0.000 A 
ATOM     20  C   UNL     1       4.082   7.125  17.452  0.00  0.00    +0.000 A 
ATOM     21  C   UNL     1       4.897   6.233  16.753  0.00  0.00    +0.000 A 
ATOM     22  C   UNL     1       4.610   4.866  16.709  0.00  0.00    +0.000 A 
ATOM     23  C   UNL     1       3.459   4.394  17.364  0.00  0.00    +0.000 A 
ATOM     24  C   UNL     1       2.655   5.297  18.097  0.00  0.00    +0.000 A 
BRANCH  22  25
ATOM     25  O   UNL     1       5.549   4.164  15.999  0.00  0.00    +0.000 OA
ATOM     26  C   UNL     1       5.700   4.420  14.612  0.00  0.00    +0.000 C 
ENDBRANCH  22  25
BRANCH  23  27
ATOM     27  O   UNL     1       3.202   3.050  17.335  0.00  0.00    +0.000 OA
ATOM     28  C   UNL     1       2.745   2.442  18.535  0.00  0.00    +0.000 C 
ENDBRANCH  23  27
ENDBRANCH  17  19
ENDBRANCH   1  15
TORSDOF 7
ENDMDL
MODEL 6
REMARK VINA RESULT:      -7.0      3.628      9.219
REMARK  Name = 
REMARK  11 active torsions:
REMARK  status: ('A' for Active; 'I' for Inactive)
REMARK    1  A    between atoms: C_1  and  O_2
REMARK    2  A    between atoms: O_2  and  C_3
REMARK    3  A    between atoms: C_3  and  C_5
REMARK    4  A    between atoms: C_9  and  C_10
REMARK    5  A    between atoms: N_13  and  C_14
REMARK    6  A    between atoms: C_14  and  C_15
REMARK    7  A    between atoms: N_17  and  C_18
REMARK    8  A    between atoms: C_21  and  O_22
REMARK    9  A    between atoms: O_22  and  C_23
REMARK   10  A    between atoms: C_24  and  O_25
REMARK   11  A    between atoms: O_25  and  C_26
REMARK                            x       y       z     vdW  Elec       q    Type
REMARK                         _______ _______ _______ _____ _____    ______ ____
ROOT
ATOM      1  C   UNL     1       1.123  10.031  21.708  0.00  0.00    +0.000 C 
ENDROOT
BRANCH   1  10
ATOM      2  C   UNL     1       0.034  11.601  19.994  0.00  0.00    +0.000 A 
ATOM      3  C   UNL     1      -1.056  12.476  20.023  0.00  0.00    +0.000 A 
ATOM      4  C   UNL     1      -1.632  12.284  21.284  0.00  0.00    +0.000 A 
ATOM      5  O   UNL     1      -2.705  12.744  21.970  0.00  0.00    +0.000 OA
ATOM      6  C   UNL     1      -2.668  12.067  23.159  0.00  0.00    +0.000 A 
ATOM      7  C   UNL     1      -3.773  12.372  24.099  0.00  0.00    +0.000 C 
ATOM      8  C   UNL     1      -1.585  11.215  23.250  0.00  0.00    +0.000 A 
ATOM      9  C   UNL     1      -0.938  11.387  22.007  0.00  0.00    +0.000 A 
ATOM     10  N   UNL     1       0.131  10.983  21.241  0.00  0.00    +0.000 N 
BRANCH   2  11
ATOM     11  C   UNL     1       0.939  11.360  18.887  0.00  0.00    +0.000 C 
ATOM     12  O   UNL     1       1.313  10.258  18.509  0.00  0.00    +0.000 OA
BRANCH  11  14
ATOM     13  C   UNL     1       2.744  12.703  18.219  0.00  0.00    +0.000 C 
ATOM     14  O   UNL     1       1.332  12.545  18.347  0.00  0.00    +0.000 OA
ENDBRANCH  11  14
ENDBRANCH   2  11
ENDBRANCH   1  10
BRANCH   1  15
ATOM     15  C   UNL     1       0.857   8.625  21.196  0.00  0.00    +0.000 C 
ATOM     16  O   UNL     1      -0.264   8.138  21.338  0.00  0.00    +0.000 OA
ATOM     17  N   UNL     1       1.945   7.989  20.608  0.00  0.00    +0.000 N 
ATOM     18  H   UNL     1       2.853   8.440  20.695  0.00  0.00    +0.000 HD
BRANCH  17  19
ATOM     19  C   UNL     1       1.911   6.717  19.971  0.00  0.00    +0.000 A 
ATOM     20  C   UNL     1       2.297   6.530  18.644  0.00  0.00    +0.000 A 
ATOM     21  C   UNL     1       2.307   5.254  18.076  0.00  0.00    +0.000 A 
ATOM     22  C   UNL     1       1.928   4.128  18.811  0.00  0.00    +0.000 A 
ATOM     23  C   UNL     1       1.504   4.297  20.141  0.00  0.00    +0.000 A 
ATOM     24  C   UNL     1       1.527   5.587  20.720  0.00  0.00    +0.000 A 
BRANCH  22  25
ATOM     25  O   UNL     1       2.039   2.974  18.080  0.00  0.00    +0.000 OA
ATOM     26  C   UNL     1       3.264   2.259  18.099  0.00  0.00    +0.000 C 
ENDBRANCH  22  25
BRANCH  23  27
ATOM     27  O   UNL     1       1.159   3.183  20.858  0.00  0.00    +0.000 OA
ATOM     28  C   UNL     1       2.147   2.618  21.709  0.00  0.00    +0.000 C 
ENDBRANCH  23  27
ENDBRANCH  17  19
ENDBRANCH   1  15
TORSDOF 7
ENDMDL
MODEL 7
REMARK VINA RESULT:      -7.0      4.844      6.637
REMARK  Name = 
REMARK  11 active torsions:
REMARK  status: ('A' for Active; 'I' for Inactive)
REMARK    1  A    between atoms: C_1  and  O_2
REMARK    2  A    between atoms: O_2  and  C_3
REMARK    3  A    between atoms: C_3  and  C_5
REMARK    4  A    between atoms: C_9  and  C_10
REMARK    5  A    between atoms: N_13  and  C_14
REMARK    6  A    between atoms: C_14  and  C_15
REMARK    7  A    between atoms: N_17  and  C_18
REMARK    8  A    between atoms: C_21  and  O_22
REMARK    9  A    between atoms: O_22  and  C_23
REMARK   10  A    between atoms: C_24  and  O_25
REMARK   11  A    between atoms: O_25  and  C_26
REMARK                            x       y       z     vdW  Elec       q    Type
REMARK                         _______ _______ _______ _____ _____    ______ ____
ROOT
ATOM      1  C   UNL     1       7.484   5.969  17.904  0.00  0.00    +0.000 C 
ENDROOT
BRANCH   1  10
ATOM      2  C   UNL     1       5.859   4.999  16.170  0.00  0.00    +0.000 A 
ATOM      3  C   UNL     1       4.490   4.710  16.166  0.00  0.00    +0.000 A 
ATOM      4  C   UNL     1       4.069   4.969  17.475  0.00  0.00    +0.000 A 
ATOM      5  O   UNL     1       2.923   4.876  18.190  0.00  0.00    +0.000 OA
ATOM      6  C   UNL     1       3.273   5.268  19.453  0.00  0.00    +0.000 A 
ATOM      7  C   UNL     1       2.183   5.228  20.457  0.00  0.00    +0.000 C 
ATOM      8  C   UNL     1       4.602   5.634  19.546  0.00  0.00    +0.000 A 
ATOM      9  C   UNL     1       5.082   5.422  18.235  0.00  0.00    +0.000 A 
ATOM     10  N   UNL     1       6.196   5.493  17.431  0.00  0.00    +0.000 N 
BRANCH   2  11
ATOM     11  C   UNL     1       6.794   4.841  15.074  0.00  0.00    +0.000 C 
ATOM     12  O   UNL     1       7.678   5.635  14.781  0.00  0.00    +0.000 OA
BRANCH  11  14
ATOM     13  C   UNL     1       6.575   3.803  12.980  0.00  0.00    +0.000 C 
ATOM     14  O   UNL     1       6.524   3.689  14.402  0.00  0.00    +0.000 OA
ENDBRANCH  11  14
ENDBRANCH   2  11
ENDBRANCH   1  10
BRANCH   1  15
ATOM     15  C   UNL     1       7.622   7.477  17.782  0.00  0.00    +0.000 C 
ATOM     16  O   UNL     1       6.922   8.077  16.966  0.00  0.00    +0.000 OA
ATOM     17  N   UNL     1       8.568   8.060  18.617  0.00  0.00    +0.000 N 
ATOM     18  H   UNL     1       9.187   7.434  19.129  0.00  0.00    +0.000 HD
BRANCH  17  19
ATOM     19  C   UNL     1       8.802   9.457  18.751  0.00  0.00    +0.000 A 
ATOM     20  C   UNL     1       8.664  10.348  17.688  0.00  0.00    +0.000 A 
ATOM     21  C   UNL     1       8.844  11.720  17.878  0.00  0.00    +0.000 A 
ATOM     22  C   UNL     1       9.171  12.244  19.132  0.00  0.00    +0.000 A 
ATOM     23  C   UNL     1       9.346  11.360  20.211  0.00  0.00    +0.000 A 
ATOM     24  C   UNL     1       9.132   9.976  20.019  0.00  0.00    +0.000 A 
BRANCH  22  25
ATOM     25  O   UNL     1       9.270  13.611  19.110  0.00  0.00    +0.000 OA
ATOM     26  C   UNL     1       8.152  14.391  19.503  0.00  0.00    +0.000 C 
ENDBRANCH  22  25
BRANCH  23  27
ATOM     27  O   UNL     1       9.642  11.887  21.439  0.00  0.00    +0.000 OA
ATOM     28  C   UNL     1       8.603  11.919  22.408  0.00  0.00    +0.000 C 
ENDBRANCH  23  27
ENDBRANCH  17  19
ENDBRANCH   1  15
TORSDOF 7
ENDMDL
MODEL 8
REMARK VINA RESULT:      -6.9      2.678      8.432
REMARK  Name = 
REMARK  11 active torsions:
REMARK  status: ('A' for Active; 'I' for Inactive)
REMARK    1  A    between atoms: C_1  and  O_2
REMARK    2  A    between atoms: O_2  and  C_3
REMARK    3  A    between atoms: C_3  and  C_5
REMARK    4  A    between atoms: C_9  and  C_10
REMARK    5  A    between atoms: N_13  and  C_14
REMARK    6  A    between atoms: C_14  and  C_15
REMARK    7  A    between atoms: N_17  and  C_18
REMARK    8  A    between atoms: C_21  and  O_22
REMARK    9  A    between atoms: O_22  and  C_23
REMARK   10  A    between atoms: C_24  and  O_25
REMARK   11  A    between atoms: O_25  and  C_26
REMARK                            x       y       z     vdW  Elec       q    Type
REMARK                         _______ _______ _______ _____ _____    ______ ____
ROOT
ATOM      1  C   UNL     1       0.774   9.612  19.602  0.00  0.00    +0.000 C 
ENDROOT
BRANCH   1  10
ATOM      2  C   UNL     1       0.302  12.099  19.176  0.00  0.00    +0.000 A 
ATOM      3  C   UNL     1      -0.647  12.800  18.425  0.00  0.00    +0.000 A 
ATOM      4  C   UNL     1      -1.365  11.809  17.746  0.00  0.00    +0.000 A 
ATOM      5  O   UNL     1      -2.370  11.750  16.841  0.00  0.00    +0.000 OA
ATOM      6  C   UNL     1      -2.528  10.414  16.589  0.00  0.00    +0.000 A 
ATOM      7  C   UNL     1      -3.567  10.074  15.590  0.00  0.00    +0.000 C 
ATOM      8  C   UNL     1      -1.669   9.630  17.334  0.00  0.00    +0.000 A 
ATOM      9  C   UNL     1      -0.929  10.579  18.072  0.00  0.00    +0.000 A 
ATOM     10  N   UNL     1       0.077  10.733  18.997  0.00  0.00    +0.000 N 
BRANCH   2  11
ATOM     11  C   UNL     1       1.343  12.656  20.017  0.00  0.00    +0.000 C 
ATOM     12  O   UNL     1       1.529  12.370  21.192  0.00  0.00    +0.000 OA
BRANCH  11  14
ATOM     13  C   UNL     1       2.891  13.007  18.287  0.00  0.00    +0.000 C 
ATOM     14  O   UNL     1       2.068  13.565  19.311  0.00  0.00    +0.000 OA
ENDBRANCH  11  14
ENDBRANCH   2  11
ENDBRANCH   1  10
BRANCH   1  15
ATOM     15  C   UNL     1       1.678   8.895  18.613  0.00  0.00    +0.000 C 
ATOM     16  O   UNL     1       1.970   9.453  17.556  0.00  0.00    +0.000 OA
ATOM     17  N   UNL     1       2.094   7.625  18.997  0.00  0.00    +0.000 N 
ATOM     18  H   UNL     1       1.654   7.219  19.821  0.00  0.00    +0.000 HD
BRANCH  17  19
ATOM     19  C   UNL     1       3.018   6.809  18.287  0.00  0.00    +0.000 A 
ATOM     20  C   UNL     1       2.761   5.473  17.981  0.00  0.00    +0.000 A 
ATOM     21  C   UNL     1       3.670   4.726  17.228  0.00  0.00    +0.000 A 
ATOM     22  C   UNL     1       4.862   5.284  16.763  0.00  0.00    +0.000 A 
ATOM     23  C   UNL     1       5.157   6.621  17.087  0.00  0.00    +0.000 A 
ATOM     24  C   UNL     1       4.219   7.381  17.822  0.00  0.00    +0.000 A 
BRANCH  22  25
ATOM     25  O   UNL     1       5.594   4.395  16.020  0.00  0.00    +0.000 OA
ATOM     26  C   UNL     1       5.573   4.494  14.605  0.00  0.00    +0.000 C 
ENDBRANCH  22  25
BRANCH  23  27
ATOM     27  O   UNL     1       6.317   7.164  16.605  0.00  0.00    +0.000 OA
ATOM     28  C   UNL     1       7.459   7.132  17.450  0.00  0.00    +0.000 C 
ENDBRANCH  23  27
ENDBRANCH  17  19
ENDBRANCH   1  15
TORSDOF 7
ENDMDL
MODEL 9
REMARK VINA RESULT:      -6.9      2.127      2.814
REMARK  Name = 
REMARK  11 active torsions:
REMARK  status: ('A' for Active; 'I' for Inactive)
REMARK    1  A    between atoms: C_1  and  O_2
REMARK    2  A    between atoms: O_2  and  C_3
REMARK    3  A    between atoms: C_3  and  C_5
REMARK    4  A    between atoms: C_9  and  C_10
REMARK    5  A    between atoms: N_13  and  C_14
REMARK    6  A    between atoms: C_14  and  C_15
REMARK    7  A    between atoms: N_17  and  C_18
REMARK    8  A    between atoms: C_21  and  O_22
REMARK    9  A    between atoms: O_22  and  C_23
REMARK   10  A    between atoms: C_24  and  O_25
REMARK   11  A    between atoms: O_25  and  C_26
REMARK                            x       y       z     vdW  Elec       q    Type
REMARK                         _______ _______ _______ _____ _____    ______ ____
ROOT
ATOM      1  C   UNL     1       3.580   4.551  20.151  0.00  0.00    +0.000 C 
ENDROOT
BRANCH   1  10
ATOM      2  C   UNL     1       4.032   3.363  17.922  0.00  0.00    +0.000 A 
ATOM      3  C   UNL     1       4.935   3.561  16.873  0.00  0.00    +0.000 A 
ATOM      4  C   UNL     1       5.609   4.742  17.203  0.00  0.00    +0.000 A 
ATOM      5  O   UNL     1       6.558   5.536  16.652  0.00  0.00    +0.000 OA
ATOM      6  C   UNL     1       6.698   6.570  17.538  0.00  0.00    +0.000 A 
ATOM      7  C   UNL     1       7.674   7.614  17.148  0.00  0.00    +0.000 C 
ATOM      8  C   UNL     1       5.883   6.433  18.645  0.00  0.00    +0.000 A 
ATOM      9  C   UNL     1       5.191   5.230  18.384  0.00  0.00    +0.000 A 
ATOM     10  N   UNL     1       4.242   4.362  18.873  0.00  0.00    +0.000 N 
BRANCH   2  11
ATOM     11  C   UNL     1       3.044   2.309  18.043  0.00  0.00    +0.000 C 
ATOM     12  O   UNL     1       3.283   1.152  18.361  0.00  0.00    +0.000 OA
BRANCH  11  14
ATOM     13  C   UNL     1       0.778   2.440  18.641  0.00  0.00    +0.000 C 
ATOM     14  O   UNL     1       1.813   2.793  17.725  0.00  0.00    +0.000 OA
ENDBRANCH  11  14
ENDBRANCH   2  11
ENDBRANCH   1  10
BRANCH   1  15
ATOM     15  C   UNL     1       2.468   5.583  20.077  0.00  0.00    +0.000 C 
ATOM     16  O   UNL     1       1.334   5.269  20.439  0.00  0.00    +0.000 OA
ATOM     17  N   UNL     1       2.839   6.826  19.575  0.00  0.00    +0.000 N 
ATOM     18  H   UNL     1       3.768   6.905  19.166  0.00  0.00    +0.000 HD
BRANCH  17  19
ATOM     19  C   UNL     1       1.999   7.972  19.506  0.00  0.00    +0.000 A 
ATOM     20  C   UNL     1       1.721   8.630  18.308  0.00  0.00    +0.000 A 
ATOM     21  C   UNL     1       0.843   9.715  18.276  0.00  0.00    +0.000 A 
ATOM     22  C   UNL     1       0.219  10.180  19.436  0.00  0.00    +0.000 A 
ATOM     23  C   UNL     1       0.509   9.552  20.661  0.00  0.00    +0.000 A 
ATOM     24  C   UNL     1       1.375   8.435  20.681  0.00  0.00    +0.000 A 
BRANCH  22  25
ATOM     25  O   UNL     1      -0.626  11.229  19.183  0.00  0.00    +0.000 OA
ATOM     26  C   UNL     1      -0.087  12.534  19.050  0.00  0.00    +0.000 C 
ENDBRANCH  22  25
BRANCH  23  27
ATOM     27  O   UNL     1      -0.127  10.001  21.787  0.00  0.00    +0.000 OA
ATOM     28  C   UNL     1       0.179   9.357  23.015  0.00  0.00    +0.000 C 
ENDBRANCH  23  27
ENDBRANCH  17  19
ENDBRANCH   1  15
TORSDOF 7
ENDMDL
