MODEL 1
REMARK VINA RESULT:      -7.3      0.000      0.000
REMARK  Name = 
REMARK  11 active torsions:
REMARK  status: ('A' for Active; 'I' for Inactive)
REMARK    1  A    between atoms: C_1  and  C_2
REMARK    2  A    between atoms: C_2  and  O_3
REMARK    3  A    between atoms: O_3  and  C_4
REMARK    4  A    between atoms: C_4  and  C_6
REMARK    5  A    between atoms: C_6  and  C_7
REMARK    6  A    between atoms: C_7  and  C_9
REMARK    7  A    between atoms: C_9  and  S_10
REMARK    8  A    between atoms: S_10  and  C_11
REMARK    9  A    between atoms: C_13  and  C_14
REMARK   10  A    between atoms: C_16  and  C_17
REMARK   11  A    between atoms: C_23  and  C_24
REMARK                            x       y       z     vdW  Elec       q    Type
REMARK                         _______ _______ _______ _____ _____    ______ ____
ROOT
ATOM      1  C   UNL     1       3.364   4.677  18.822  0.00  0.00    +0.000 A 
ATOM      2  N   UNL     1       2.925   3.724  19.676  0.00  0.00    +0.000 NA
ATOM      3  C   UNL     1       2.096   4.084  20.670  0.00  0.00    +0.000 A 
ATOM      4  C   UNL     1       1.658   3.005  21.615  0.00  0.00    +0.000 C 
ATOM      5  C   UNL     1       1.668   5.395  20.842  0.00  0.00    +0.000 A 
ATOM      6  C   UNL     1       2.121   6.418  19.984  0.00  0.00    +0.000 A 
ATOM      7  C   UNL     1       3.013   6.030  18.951  0.00  0.00    +0.000 A 
ENDROOT
BRANCH   6   8
ATOM      8  C   UNL     1       1.672   7.820  20.219  0.00  0.00    +0.000 A 
ATOM      9  C   UNL     1       1.446   8.357  21.496  0.00  0.00    +0.000 A 
ATOM     10  C   UNL     1       0.953   9.653  21.658  0.00  0.00    +0.000 A 
ATOM     11  C   UNL     1       0.748  10.425  20.531  0.00  0.00    +0.000 A 
ATOM     12  N   UNL     1       1.001   9.988  19.283  0.00  0.00    +0.000 NA
ATOM     13  C   UNL     1       1.441   8.710  19.161  0.00  0.00    +0.000 A 
ENDBRANCH   6   8
BRANCH   7  14
ATOM     14  C   UNL     1       3.598   6.986  18.058  0.00  0.00    +0.000 C 
ATOM     15  N   UNL     1       4.069   7.747  17.315  0.00  0.00    +0.000 NA
ENDBRANCH   7  14
BRANCH   1  16
ATOM     16  S   UNL     1       4.435   4.091  17.508  0.00  0.00    +0.000 S 
BRANCH  16  17
ATOM     17  C   UNL     1       6.075   4.316  18.271  0.00  0.00    +0.000 C 
BRANCH  17  18
ATOM     18  C   UNL     1       7.067   4.632  17.172  0.00  0.00    +0.000 C 
ATOM     19  O   UNL     1       8.231   4.226  17.215  0.00  0.00    +0.000 OA
BRANCH  18  20
ATOM     20  C   UNL     1       6.584   5.452  16.009  0.00  0.00    +0.000 C 
BRANCH  20  21
ATOM     21  C   UNL     1       7.088   4.931  14.702  0.00  0.00    +0.000 C 
ATOM     22  O   UNL     1       7.847   5.536  13.959  0.00  0.00    +0.000 OA
BRANCH  21  23
ATOM     23  O   UNL     1       6.453   3.762  14.412  0.00  0.00    +0.000 OA
BRANCH  23  25
ATOM     24  C   UNL     1       5.951   3.200  12.151  0.00  0.00    +0.000 C 
ATOM     25  C   UNL     1       5.420   3.841  13.419  0.00  0.00    +0.000 C 
ENDBRANCH  23  25
ENDBRANCH  21  23
ENDBRANCH  20  21
ENDBRANCH  18  20
ENDBRANCH  17  18
ENDBRANCH  16  17
ENDBRANCH   1  16
TORSDOF 9
ENDMDL
MODEL 2
REMARK VINA RESULT:      -7.1      2.011      2.956
REMARK  Name = 
REMARK  11 active torsions:
REMARK  status: ('A' for Active; 'I' for Inactive)
REMARK    1  A    between atoms: C_1  and  C_2
REMARK    2  A    between atoms: C_2  and  O_3
REMARK    3  A    between atoms: O_3  and  C_4
REMARK    4  A    between atoms: C_4  and  C_6
REMARK    5  A    between atoms: C_6  and  C_7
REMARK    6  A    between atoms: C_7  and  C_9
REMARK    7  A    between atoms: C_9  and  S_10
REMARK    8  A    between atoms: S_10  and  C_11
REMARK    9  A    between atoms: C_13  and  C_14
REMARK   10  A    between atoms: C_16  and  C_17
REMARK   11  A    between atoms: C_23  and  C_24
REMARK                            x       y       z     vdW  Elec       q    Type
REMARK                         _______ _______ _______ _____ _____    ______ ____
ROOT
ATOM      1  C   UNL     1       4.495   4.294  16.951  0.00  0.00    +0.000 A 
ATOM      2  N   UNL     1       3.730   3.210  17.211  0.00  0.00    +0.000 NA
ATOM      3  C   UNL     1       2.563   3.385  17.854  0.00  0.00    +0.000 A 
ATOM      4  C   UNL     1       1.758   2.155  18.151  0.00  0.00    +0.000 C 
ATOM      5  C   UNL     1       2.114   4.640  18.249  0.00  0.00    +0.000 A 
ATOM      6  C   UNL     1       2.896   5.790  18.013  0.00  0.00    +0.000 A 
ATOM      7  C   UNL     1       4.135   5.590  17.354  0.00  0.00    +0.000 A 
ENDROOT
BRANCH   6   8
ATOM      8  C   UNL     1       2.402   7.116  18.484  0.00  0.00    +0.000 A 
ATOM      9  C   UNL     1       2.128   7.408  19.829  0.00  0.00    +0.000 A 
ATOM     10  C   UNL     1       1.595   8.642  20.207  0.00  0.00    +0.000 A 
ATOM     11  C   UNL     1       1.399   9.600  19.232  0.00  0.00    +0.000 A 
ATOM     12  N   UNL     1       1.696   9.402  17.934  0.00  0.00    +0.000 NA
ATOM     13  C   UNL     1       2.175   8.178  17.597  0.00  0.00    +0.000 A 
ENDBRANCH   6   8
BRANCH   7  14
ATOM     14  C   UNL     1       5.050   6.668  17.120  0.00  0.00    +0.000 C 
ATOM     15  N   UNL     1       5.802   7.532  16.911  0.00  0.00    +0.000 NA
ENDBRANCH   7  14
BRANCH   1  16
ATOM     16  S   UNL     1       6.014   3.961  16.058  0.00  0.00    +0.000 S 
BRANCH  16  17
ATOM     17  C   UNL     1       5.445   4.120  14.333  0.00  0.00    +0.000 C 
BRANCH  17  18
ATOM     18  C   UNL     1       6.638   4.484  13.476  0.00  0.00    +0.000 C 
ATOM     19  O   UNL     1       7.404   5.400  13.788  0.00  0.00    +0.000 OA
BRANCH  18  20
ATOM     20  C   UNL     1       6.873   3.683  12.226  0.00  0.00    +0.000 C 
BRANCH  20  21
ATOM     21  C   UNL     1       5.655   2.927  11.803  0.00  0.00    +0.000 C 
ATOM     22  O   UNL     1       5.608   1.715  11.652  0.00  0.00    +0.000 OA
BRANCH  21  23
ATOM     23  O   UNL     1       4.673   3.810  11.471  0.00  0.00    +0.000 OA
BRANCH  23  25
ATOM     24  C   UNL     1       3.118   3.996   9.674  0.00  0.00    +0.000 C 
ATOM     25  C   UNL     1       3.470   3.236  10.939  0.00  0.00    +0.000 C 
ENDBRANCH  23  25
ENDBRANCH  21  23
ENDBRANCH  20  21
ENDBRANCH  18  20
ENDBRANCH  17  18
ENDBRANCH  16  17
ENDBRANCH   1  16
TORSDOF 9
ENDMDL
MODEL 3
REMARK VINA RESULT:      -7.1      1.994      4.090
REMARK  Name = 
REMARK  11 active torsions:
REMARK  status: ('A' for Active; 'I' for Inactive)
REMARK    1  A    between atoms: C_1  and  C_2
REMARK    2  A    between atoms: C_2  and  O_3
REMARK    3  A    between atoms: O_3  and  C_4
REMARK    4  A    between atoms: C_4  and  C_6
REMARK    5  A    between atoms: C_6  and  C_7
REMARK    6  A    between atoms: C_7  and  C_9
REMARK    7  A    between atoms: C_9  and  S_10
REMARK    8  A    between atoms: S_10  and  C_11
REMARK    9  A    between atoms: C_13  and  C_14
REMARK   10  A    between atoms: C_16  and  C_17
REMARK   11  A    between atoms: C_23  and  C_24
REMARK                            x       y       z     vdW  Elec       q    Type
REMARK                         _______ _______ _______ _____ _____    ______ ____
ROOT
ATOM      1  C   UNL     1       4.448   6.799  17.573  0.00  0.00    +0.000 A 
ATOM      2  N   UNL     1       3.690   7.906  17.407  0.00  0.00    +0.000 NA
ATOM      3  C   UNL     1       2.496   7.966  18.021  0.00  0.00    +0.000 A 
ATOM      4  C   UNL     1       1.671   9.196  17.786  0.00  0.00    +0.000 C 
ATOM      5  C   UNL     1       2.023   6.937  18.827  0.00  0.00    +0.000 A 
ATOM      6  C   UNL     1       2.778   5.760  19.007  0.00  0.00    +0.000 A 
ATOM      7  C   UNL     1       4.026   5.699  18.336  0.00  0.00    +0.000 A 
ENDROOT
BRANCH   6   8
ATOM      8  C   UNL     1       2.225   4.660  19.849  0.00  0.00    +0.000 A 
ATOM      9  C   UNL     1       2.566   4.469  21.197  0.00  0.00    +0.000 A 
ATOM     10  C   UNL     1       2.077   3.379  21.919  0.00  0.00    +0.000 A 
ATOM     11  C   UNL     1       1.196   2.518  21.294  0.00  0.00    +0.000 A 
ATOM     12  N   UNL     1       0.785   2.680  20.023  0.00  0.00    +0.000 NA
ATOM     13  C   UNL     1       1.311   3.728  19.339  0.00  0.00    +0.000 A 
ENDBRANCH   6   8
BRANCH   7  14
ATOM     14  C   UNL     1       4.854   4.529  18.383  0.00  0.00    +0.000 C 
ATOM     15  N   UNL     1       5.515   3.574  18.440  0.00  0.00    +0.000 NA
ENDBRANCH   7  14
BRANCH   1  16
ATOM     16  S   UNL     1       6.038   6.830  16.744  0.00  0.00    +0.000 S 
BRANCH  16  17
ATOM     17  C   UNL     1       5.635   5.968  15.188  0.00  0.00    +0.000 C 
BRANCH  17  18
ATOM     18  C   UNL     1       6.568   4.785  15.050  0.00  0.00    +0.000 C 
ATOM     19  O   UNL     1       7.602   4.695  15.719  0.00  0.00    +0.000 OA
BRANCH  18  20
ATOM     20  C   UNL     1       6.192   3.706  14.075  0.00  0.00    +0.000 C 
BRANCH  20  21
ATOM     21  C   UNL     1       6.635   4.022  12.683  0.00  0.00    +0.000 C 
ATOM     22  O   UNL     1       7.566   4.762  12.402  0.00  0.00    +0.000 OA
BRANCH  21  23
ATOM     23  O   UNL     1       5.750   3.484  11.798  0.00  0.00    +0.000 OA
BRANCH  23  25
ATOM     24  C   UNL     1       7.027   1.631  11.014  0.00  0.00    +0.000 C 
ATOM     25  C   UNL     1       5.747   2.052  11.711  0.00  0.00    +0.000 C 
ENDBRANCH  23  25
ENDBRANCH  21  23
ENDBRANCH  20  21
ENDBRANCH  18  20
ENDBRANCH  17  18
ENDBRANCH  16  17
ENDBRANCH   1  16
TORSDOF 9
ENDMDL
MODEL 4
REMARK VINA RESULT:      -7.0      1.387      1.650
REMARK  Name = 
REMARK  11 active torsions:
REMARK  status: ('A' for Active; 'I' for Inactive)
REMARK    1  A    between atoms: C_1  and  C_2
REMARK    2  A    between atoms: C_2  and  O_3
REMARK    3  A    between atoms: O_3  and  C_4
REMARK    4  A    between atoms: C_4  and  C_6
REMARK    5  A    between atoms: C_6  and  C_7
REMARK    6  A    between atoms: C_7  and  C_9
REMARK    7  A    between atoms: C_9  and  S_10
REMARK    8  A    between atoms: S_10  and  C_11
REMARK    9  A    between atoms: C_13  and  C_14
REMARK   10  A    between atoms: C_16  and  C_17
REMARK   11  A    between atoms: C_23  and  C_24
REMARK                            x       y       z     vdW  Elec       q    Type
REMARK                         _______ _______ _______ _____ _____    ______ ____
ROOT
ATOM      1  C   UNL     1       2.975   5.867  18.805  0.00  0.00    +0.000 A 
ATOM      2  N   UNL     1       2.874   4.772  19.592  0.00  0.00    +0.000 NA
ATOM      3  C   UNL     1       2.178   4.865  20.738  0.00  0.00    +0.000 A 
ATOM      4  C   UNL     1       2.116   3.638  21.598  0.00  0.00    +0.000 C 
ATOM      5  C   UNL     1       1.550   6.041  21.132  0.00  0.00    +0.000 A 
ATOM      6  C   UNL     1       1.651   7.207  20.347  0.00  0.00    +0.000 A 
ATOM      7  C   UNL     1       2.407   7.103  19.152  0.00  0.00    +0.000 A 
ENDROOT
BRANCH   6   8
ATOM      8  C   UNL     1       0.997   8.462  20.818  0.00  0.00    +0.000 A 
ATOM      9  C   UNL     1       0.089   9.200  20.043  0.00  0.00    +0.000 A 
ATOM     10  C   UNL     1      -0.437  10.410  20.502  0.00  0.00    +0.000 A 
ATOM     11  C   UNL     1      -0.091  10.839  21.768  0.00  0.00    +0.000 A 
ATOM     12  N   UNL     1       0.729  10.148  22.582  0.00  0.00    +0.000 NA
ATOM     13  C   UNL     1       1.253   8.997  22.088  0.00  0.00    +0.000 A 
ENDBRANCH   6   8
BRANCH   7  14
ATOM     14  C   UNL     1       2.642   8.235  18.303  0.00  0.00    +0.000 C 
ATOM     15  N   UNL     1       2.814   9.164  17.624  0.00  0.00    +0.000 NA
ENDBRANCH   7  14
BRANCH   1  16
ATOM     16  S   UNL     1       3.893   5.632  17.282  0.00  0.00    +0.000 S 
BRANCH  16  17
ATOM     17  C   UNL     1       5.579   6.068  17.822  0.00  0.00    +0.000 C 
BRANCH  17  18
ATOM     18  C   UNL     1       6.350   4.784  18.041  0.00  0.00    +0.000 C 
ATOM     19  O   UNL     1       6.016   3.968  18.905  0.00  0.00    +0.000 OA
BRANCH  18  20
ATOM     20  C   UNL     1       7.537   4.522  17.159  0.00  0.00    +0.000 C 
BRANCH  20  21
ATOM     21  C   UNL     1       7.232   4.755  15.715  0.00  0.00    +0.000 C 
ATOM     22  O   UNL     1       7.631   5.711  15.066  0.00  0.00    +0.000 OA
BRANCH  21  23
ATOM     23  O   UNL     1       6.329   3.827  15.293  0.00  0.00    +0.000 OA
BRANCH  23  25
ATOM     24  C   UNL     1       6.189   3.538  12.932  0.00  0.00    +0.000 C 
ATOM     25  C   UNL     1       5.550   4.190  14.144  0.00  0.00    +0.000 C 
ENDBRANCH  23  25
ENDBRANCH  21  23
ENDBRANCH  20  21
ENDBRANCH  18  20
ENDBRANCH  17  18
ENDBRANCH  16  17
ENDBRANCH   1  16
TORSDOF 9
ENDMDL
MODEL 5
REMARK VINA RESULT:      -7.0      1.902      2.825
REMARK  Name = 
REMARK  11 active torsions:
REMARK  status: ('A' for Active; 'I' for Inactive)
REMARK    1  A    between atoms: C_1  and  C_2
REMARK    2  A    between atoms: C_2  and  O_3
REMARK    3  A    between atoms: O_3  and  C_4
REMARK    4  A    between atoms: C_4  and  C_6
REMARK    5  A    between atoms: C_6  and  C_7
REMARK    6  A    between atoms: C_7  and  C_9
REMARK    7  A    between atoms: C_9  and  S_10
REMARK    8  A    between atoms: S_10  and  C_11
REMARK    9  A    between atoms: C_13  and  C_14
REMARK   10  A    between atoms: C_16  and  C_17
REMARK   11  A    between atoms: C_23  and  C_24
REMARK                            x       y       z     vdW  Elec       q    Type
REMARK                         _______ _______ _______ _____ _____    ______ ____
ROOT
ATOM      1  C   UNL     1       2.964   5.582  18.816  0.00  0.00    +0.000 A 
ATOM      2  N   UNL     1       2.834   4.515  19.637  0.00  0.00    +0.000 NA
ATOM      3  C   UNL     1       2.149   4.665  20.783  0.00  0.00    +0.000 A 
ATOM      4  C   UNL     1       2.053   3.467  21.681  0.00  0.00    +0.000 C 
ATOM      5  C   UNL     1       1.562   5.872  21.145  0.00  0.00    +0.000 A 
ATOM      6  C   UNL     1       1.695   7.010  20.324  0.00  0.00    +0.000 A 
ATOM      7  C   UNL     1       2.439   6.846  19.128  0.00  0.00    +0.000 A 
ENDROOT
BRANCH   6   8
ATOM      8  C   UNL     1       1.085   8.300  20.760  0.00  0.00    +0.000 A 
ATOM      9  C   UNL     1       0.162   9.020  19.987  0.00  0.00    +0.000 A 
ATOM     10  C   UNL     1      -0.322  10.261  20.409  0.00  0.00    +0.000 A 
ATOM     11  C   UNL     1       0.082  10.740  21.640  0.00  0.00    +0.000 A 
ATOM     12  N   UNL     1       0.920  10.070  22.453  0.00  0.00    +0.000 NA
ATOM     13  C   UNL     1       1.401   8.887  21.993  0.00  0.00    +0.000 A 
ENDBRANCH   6   8
BRANCH   7  14
ATOM     14  C   UNL     1       2.705   7.943  18.245  0.00  0.00    +0.000 C 
ATOM     15  N   UNL     1       2.916   8.820  17.510  0.00  0.00    +0.000 NA
ENDBRANCH   7  14
BRANCH   1  16
ATOM     16  S   UNL     1       3.864   5.272  17.296  0.00  0.00    +0.000 S 
BRANCH  16  17
ATOM     17  C   UNL     1       5.062   4.014  17.852  0.00  0.00    +0.000 C 
BRANCH  17  18
ATOM     18  C   UNL     1       6.226   4.729  18.505  0.00  0.00    +0.000 C 
ATOM     19  O   UNL     1       6.172   5.116  19.675  0.00  0.00    +0.000 OA
BRANCH  18  20
ATOM     20  C   UNL     1       7.464   4.945  17.683  0.00  0.00    +0.000 C 
BRANCH  20  21
ATOM     21  C   UNL     1       7.248   5.936  16.585  0.00  0.00    +0.000 C 
ATOM     22  O   UNL     1       7.378   5.693  15.394  0.00  0.00    +0.000 OA
BRANCH  21  23
ATOM     23  O   UNL     1       7.039   7.167  17.129  0.00  0.00    +0.000 OA
BRANCH  23  25
ATOM     24  C   UNL     1       8.124   9.147  17.892  0.00  0.00    +0.000 C 
ATOM     25  C   UNL     1       8.057   7.637  18.024  0.00  0.00    +0.000 C 
ENDBRANCH  23  25
ENDBRANCH  21  23
ENDBRANCH  20  21
ENDBRANCH  18  20
ENDBRANCH  17  18
ENDBRANCH  16  17
ENDBRANCH   1  16
TORSDOF 9
ENDMDL
MODEL 6
REMARK VINA RESULT:      -6.9      0.743      1.057
REMARK  Name = 
REMARK  11 active torsions:
REMARK  status: ('A' for Active; 'I' for Inactive)
REMARK    1  A    between atoms: C_1  and  C_2
REMARK    2  A    between atoms: C_2  and  O_3
REMARK    3  A    between atoms: O_3  and  C_4
REMARK    4  A    between atoms: C_4  and  C_6
REMARK    5  A    between atoms: C_6  and  C_7
REMARK    6  A    between atoms: C_7  and  C_9
REMARK    7  A    between atoms: C_9  and  S_10
REMARK    8  A    between atoms: S_10  and  C_11
REMARK    9  A    between atoms: C_13  and  C_14
REMARK   10  A    between atoms: C_16  and  C_17
REMARK   11  A    between atoms: C_23  and  C_24
REMARK                            x       y       z     vdW  Elec       q    Type
REMARK                         _______ _______ _______ _____ _____    ______ ____
ROOT
ATOM      1  C   UNL     1       3.259   4.739  18.783  0.00  0.00    +0.000 A 
ATOM      2  N   UNL     1       2.905   3.771  19.658  0.00  0.00    +0.000 NA
ATOM      3  C   UNL     1       2.149   4.107  20.718  0.00  0.00    +0.000 A 
ATOM      4  C   UNL     1       1.804   3.011  21.682  0.00  0.00    +0.000 C 
ATOM      5  C   UNL     1       1.712   5.409  20.935  0.00  0.00    +0.000 A 
ATOM      6  C   UNL     1       2.079   6.447  20.055  0.00  0.00    +0.000 A 
ATOM      7  C   UNL     1       2.895   6.084  18.953  0.00  0.00    +0.000 A 
ENDROOT
BRANCH   6   8
ATOM      8  C   UNL     1       1.625   7.839  20.338  0.00  0.00    +0.000 A 
ATOM      9  C   UNL     1       1.231   8.743  19.340  0.00  0.00    +0.000 A 
ATOM     10  C   UNL     1       0.886  10.060  19.653  0.00  0.00    +0.000 A 
ATOM     11  C   UNL     1       0.881  10.440  20.981  0.00  0.00    +0.000 A 
ATOM     12  N   UNL     1       1.191   9.604  21.989  0.00  0.00    +0.000 NA
ATOM     13  C   UNL     1       1.560   8.343  21.644  0.00  0.00    +0.000 A 
ENDBRANCH   6   8
BRANCH   7  14
ATOM     14  C   UNL     1       3.392   7.059  18.026  0.00  0.00    +0.000 C 
ATOM     15  N   UNL     1       3.816   7.847  17.283  0.00  0.00    +0.000 NA
ENDBRANCH   7  14
BRANCH   1  16
ATOM     16  S   UNL     1       4.235   4.185  17.384  0.00  0.00    +0.000 S 
BRANCH  16  17
ATOM     17  C   UNL     1       5.926   4.423  18.025  0.00  0.00    +0.000 C 
BRANCH  17  18
ATOM     18  C   UNL     1       6.660   5.352  17.081  0.00  0.00    +0.000 C 
ATOM     19  O   UNL     1       7.687   5.943  17.425  0.00  0.00    +0.000 OA
BRANCH  18  20
ATOM     20  C   UNL     1       6.104   5.525  15.696  0.00  0.00    +0.000 C 
BRANCH  20  21
ATOM     21  C   UNL     1       7.001   4.945  14.651  0.00  0.00    +0.000 C 
ATOM     22  O   UNL     1       7.964   5.520  14.166  0.00  0.00    +0.000 OA
BRANCH  21  23
ATOM     23  O   UNL     1       6.485   3.758  14.227  0.00  0.00    +0.000 OA
BRANCH  23  25
ATOM     24  C   UNL     1       5.748   3.082  12.065  0.00  0.00    +0.000 C 
ATOM     25  C   UNL     1       5.376   3.846  13.321  0.00  0.00    +0.000 C 
ENDBRANCH  23  25
ENDBRANCH  21  23
ENDBRANCH  20  21
ENDBRANCH  18  20
ENDBRANCH  17  18
ENDBRANCH  16  17
ENDBRANCH   1  16
TORSDOF 9
ENDMDL
MODEL 7
REMARK VINA RESULT:      -6.8      3.047      6.246
REMARK  Name = 
REMARK  11 active torsions:
REMARK  status: ('A' for Active; 'I' for Inactive)
REMARK    1  A    between atoms: C_1  and  C_2
REMARK    2  A    between atoms: C_2  and  O_3
REMARK    3  A    between atoms: O_3  and  C_4
REMARK    4  A    between atoms: C_4  and  C_6
REMARK    5  A    between atoms: C_6  and  C_7
REMARK    6  A    between atoms: C_7  and  C_9
REMARK    7  A    between atoms: C_9  and  S_10
REMARK    8  A    between atoms: S_10  and  C_11
REMARK    9  A    between atoms: C_13  and  C_14
REMARK   10  A    between atoms: C_16  and  C_17
REMARK   11  A    between atoms: C_23  and  C_24
REMARK                            x       y       z     vdW  Elec       q    Type
REMARK                         _______ _______ _______ _____ _____    ______ ____
ROOT
ATOM      1  C   UNL     1       2.859   6.296  19.586  0.00  0.00    +0.000 A 
ATOM      2  N   UNL     1       2.195   7.429  19.262  0.00  0.00    +0.000 NA
ATOM      3  C   UNL     1       2.502   8.045  18.107  0.00  0.00    +0.000 A 
ATOM      4  C   UNL     1       1.767   9.315  17.798  0.00  0.00    +0.000 C 
ATOM      5  C   UNL     1       3.465   7.551  17.235  0.00  0.00    +0.000 A 
ATOM      6  C   UNL     1       4.191   6.384  17.551  0.00  0.00    +0.000 A 
ATOM      7  C   UNL     1       3.874   5.755  18.782  0.00  0.00    +0.000 A 
ENDROOT
BRANCH   6   8
ATOM      8  C   UNL     1       5.243   5.903  16.611  0.00  0.00    +0.000 A 
ATOM      9  C   UNL     1       4.996   4.996  15.569  0.00  0.00    +0.000 A 
ATOM     10  C   UNL     1       6.032   4.519  14.764  0.00  0.00    +0.000 A 
ATOM     11  C   UNL     1       7.306   5.008  14.974  0.00  0.00    +0.000 A 
ATOM     12  N   UNL     1       7.599   5.922  15.918  0.00  0.00    +0.000 NA
ATOM     13  C   UNL     1       6.574   6.333  16.708  0.00  0.00    +0.000 A 
ENDBRANCH   6   8
BRANCH   7  14
ATOM     14  C   UNL     1       4.589   4.603  19.248  0.00  0.00    +0.000 C 
ATOM     15  N   UNL     1       5.187   3.681  19.629  0.00  0.00    +0.000 NA
ENDBRANCH   7  14
BRANCH   1  16
ATOM     16  S   UNL     1       2.354   5.529  21.127  0.00  0.00    +0.000 S 
BRANCH  16  17
ATOM     17  C   UNL     1       0.821   4.688  20.610  0.00  0.00    +0.000 C 
BRANCH  17  18
ATOM     18  C   UNL     1       1.165   3.254  20.265  0.00  0.00    +0.000 C 
ATOM     19  O   UNL     1       1.753   2.520  21.064  0.00  0.00    +0.000 OA
BRANCH  18  20
ATOM     20  C   UNL     1       0.755   2.742  18.914  0.00  0.00    +0.000 C 
BRANCH  20  21
ATOM     21  C   UNL     1       1.428   3.479  17.802  0.00  0.00    +0.000 C 
ATOM     22  O   UNL     1       0.972   4.468  17.247  0.00  0.00    +0.000 OA
BRANCH  21  23
ATOM     23  O   UNL     1       2.537   2.789  17.415  0.00  0.00    +0.000 OA
BRANCH  23  25
ATOM     24  C   UNL     1       3.999   1.160  18.356  0.00  0.00    +0.000 C 
ATOM     25  C   UNL     1       2.598   1.418  17.834  0.00  0.00    +0.000 C 
ENDBRANCH  23  25
ENDBRANCH  21  23
ENDBRANCH  20  21
ENDBRANCH  18  20
ENDBRANCH  17  18
ENDBRANCH  16  17
ENDBRANCH   1  16
TORSDOF 9
ENDMDL
MODEL 8
REMARK VINA RESULT:      -6.8      2.109      4.265
REMARK  Name = 
REMARK  11 active torsions:
REMARK  status: ('A' for Active; 'I' for Inactive)
REMARK    1  A    between atoms: C_1  and  C_2
REMARK    2  A    between atoms: C_2  and  O_3
REMARK    3  A    between atoms: O_3  and  C_4
REMARK    4  A    between atoms: C_4  and  C_6
REMARK    5  A    between atoms: C_6  and  C_7
REMARK    6  A    between atoms: C_7  and  C_9
REMARK    7  A    between atoms: C_9  and  S_10
REMARK    8  A    between atoms: S_10  and  C_11
REMARK    9  A    between atoms: C_13  and  C_14
REMARK   10  A    between atoms: C_16  and  C_17
REMARK   11  A    between atoms: C_23  and  C_24
REMARK                            x       y       z     vdW  Elec       q    Type
REMARK                         _______ _______ _______ _____ _____    ______ ____
ROOT
ATOM      1  C   UNL     1       4.491   6.503  17.526  0.00  0.00    +0.000 A 
ATOM      2  N   UNL     1       3.797   7.653  17.365  0.00  0.00    +0.000 NA
ATOM      3  C   UNL     1       2.634   7.800  18.023  0.00  0.00    +0.000 A 
ATOM      4  C   UNL     1       1.878   9.075  17.794  0.00  0.00    +0.000 C 
ATOM      5  C   UNL     1       2.131   6.818  18.869  0.00  0.00    +0.000 A 
ATOM      6  C   UNL     1       2.817   5.599  19.045  0.00  0.00    +0.000 A 
ATOM      7  C   UNL     1       4.031   5.447  18.328  0.00  0.00    +0.000 A 
ENDROOT
BRANCH   6   8
ATOM      8  C   UNL     1       2.230   4.553  19.931  0.00  0.00    +0.000 A 
ATOM      9  C   UNL     1       1.162   3.726  19.550  0.00  0.00    +0.000 A 
ATOM     10  C   UNL     1       0.600   2.813  20.444  0.00  0.00    +0.000 A 
ATOM     11  C   UNL     1       1.159   2.695  21.701  0.00  0.00    +0.000 A 
ATOM     12  N   UNL     1       2.220   3.417  22.107  0.00  0.00    +0.000 NA
ATOM     13  C   UNL     1       2.715   4.323  21.225  0.00  0.00    +0.000 A 
ENDBRANCH   6   8
BRANCH   7  14
ATOM     14  C   UNL     1       4.786   4.228  18.368  0.00  0.00    +0.000 C 
ATOM     15  N   UNL     1       5.383   3.230  18.386  0.00  0.00    +0.000 NA
ENDBRANCH   7  14
BRANCH   1  16
ATOM     16  S   UNL     1       6.045   6.418  16.636  0.00  0.00    +0.000 S 
BRANCH  16  17
ATOM     17  C   UNL     1       5.471   5.907  14.983  0.00  0.00    +0.000 C 
BRANCH  17  18
ATOM     18  C   UNL     1       6.232   4.660  14.585  0.00  0.00    +0.000 C 
ATOM     19  O   UNL     1       6.317   3.686  15.339  0.00  0.00    +0.000 OA
BRANCH  18  20
ATOM     20  C   UNL     1       6.878   4.637  13.229  0.00  0.00    +0.000 C 
BRANCH  20  21
ATOM     21  C   UNL     1       6.322   3.559  12.356  0.00  0.00    +0.000 C 
ATOM     22  O   UNL     1       6.986   2.865  11.601  0.00  0.00    +0.000 OA
BRANCH  21  23
ATOM     23  O   UNL     1       4.962   3.583  12.427  0.00  0.00    +0.000 OA
BRANCH  23  25
ATOM     24  C   UNL     1       3.695   3.792  10.419  0.00  0.00    +0.000 C 
ATOM     25  C   UNL     1       4.270   2.818  11.429  0.00  0.00    +0.000 C 
ENDBRANCH  23  25
ENDBRANCH  21  23
ENDBRANCH  20  21
ENDBRANCH  18  20
ENDBRANCH  17  18
ENDBRANCH  16  17
ENDBRANCH   1  16
TORSDOF 9
ENDMDL
MODEL 9
REMARK VINA RESULT:      -6.7      2.132      4.140
REMARK  Name = 
REMARK  11 active torsions:
REMARK  status: ('A' for Active; 'I' for Inactive)
REMARK    1  A    between atoms: C_1  and  C_2
REMARK    2  A    between atoms: C_2  and  O_3
REMARK    3  A    between atoms: O_3  and  C_4
REMARK    4  A    between atoms: C_4  and  C_6
REMARK    5  A    between atoms: C_6  and  C_7
REMARK    6  A    between atoms: C_7  and  C_9
REMARK    7  A    between atoms: C_9  and  S_10
REMARK    8  A    between atoms: S_10  and  C_11
REMARK    9  A    between atoms: C_13  and  C_14
REMARK   10  A    between atoms: C_16  and  C_17
REMARK   11  A    between atoms: C_23  and  C_24
REMARK                            x       y       z     vdW  Elec       q    Type
REMARK                         _______ _______ _______ _____ _____    ______ ____
ROOT
ATOM      1  C   UNL     1       4.947   6.626  18.181  0.00  0.00    +0.000 A 
ATOM      2  N   UNL     1       4.313   7.767  17.824  0.00  0.00    +0.000 NA
ATOM      3  C   UNL     1       2.972   7.805  17.893  0.00  0.00    +0.000 A 
ATOM      4  C   UNL     1       2.304   9.076  17.458  0.00  0.00    +0.000 C 
ATOM      5  C   UNL     1       2.219   6.720  18.327  0.00  0.00    +0.000 A 
ATOM      6  C   UNL     1       2.845   5.509  18.688  0.00  0.00    +0.000 A 
ATOM      7  C   UNL     1       4.259   5.473  18.590  0.00  0.00    +0.000 A 
ENDROOT
BRANCH   6   8
ATOM      8  C   UNL     1       2.004   4.353  19.114  0.00  0.00    +0.000 A 
ATOM      9  C   UNL     1       1.772   4.018  20.457  0.00  0.00    +0.000 A 
ATOM     10  C   UNL     1       1.039   2.880  20.801  0.00  0.00    +0.000 A 
ATOM     11  C   UNL     1       0.492   2.119  19.788  0.00  0.00    +0.000 A 
ATOM     12  N   UNL     1       0.630   2.420  18.483  0.00  0.00    +0.000 NA
ATOM     13  C   UNL     1       1.381   3.510  18.184  0.00  0.00    +0.000 A 
ENDBRANCH   6   8
BRANCH   7  14
ATOM     14  C   UNL     1       5.006   4.280  18.861  0.00  0.00    +0.000 C 
ATOM     15  N   UNL     1       5.604   3.312  19.102  0.00  0.00    +0.000 NA
ENDBRANCH   7  14
BRANCH   1  16
ATOM     16  S   UNL     1       6.737   6.686  18.090  0.00  0.00    +0.000 S 
BRANCH  16  17
ATOM     17  C   UNL     1       7.006   6.350  16.319  0.00  0.00    +0.000 C 
BRANCH  17  18
ATOM     18  C   UNL     1       7.060   4.849  16.127  0.00  0.00    +0.000 C 
ATOM     19  O   UNL     1       7.977   4.170  16.597  0.00  0.00    +0.000 OA
BRANCH  18  20
ATOM     20  C   UNL     1       5.947   4.203  15.352  0.00  0.00    +0.000 C 
BRANCH  20  21
ATOM     21  C   UNL     1       6.216   4.189  13.882  0.00  0.00    +0.000 C 
ATOM     22  O   UNL     1       7.182   4.714  13.348  0.00  0.00    +0.000 OA
BRANCH  21  23
ATOM     23  O   UNL     1       5.148   3.642  13.237  0.00  0.00    +0.000 OA
BRANCH  23  25
ATOM     24  C   UNL     1       4.082   3.132  11.168  0.00  0.00    +0.000 C 
ATOM     25  C   UNL     1       5.403   3.150  11.913  0.00  0.00    +0.000 C 
ENDBRANCH  23  25
ENDBRANCH  21  23
ENDBRANCH  20  21
ENDBRANCH  18  20
ENDBRANCH  17  18
ENDBRANCH  16  17
ENDBRANCH   1  16
TORSDOF 9
ENDMDL
