MODEL 1
REMARK VINA RESULT:      -7.4      0.000      0.000
REMARK  Name = 
REMARK  5 active torsions:
REMARK  status: ('A' for Active; 'I' for Inactive)
REMARK    1  A    between atoms: C_1  and  C_2
REMARK    2  A    between atoms: C_2  and  C_3
REMARK    3  A    between atoms: C_3  and  C_4
REMARK    4  A    between atoms: C_3  and  C_24
REMARK    5  A    between atoms: N_14  and  C_15
REMARK                            x       y       z     vdW  Elec       q    Type
REMARK                         _______ _______ _______ _____ _____    ______ ____
ROOT
ATOM      1  C   UNL     1       1.141  10.794  18.831  0.00  0.00    +0.000 C 
ATOM      2  O   UNL     1       2.184  10.760  18.176  0.00  0.00    +0.000 OA
ATOM      3  N   UNL     1       0.926   9.977  19.942  0.00  0.00    +0.000 N 
ATOM      4  C   UNL     1       0.384  10.495  21.169  0.00  0.00    +0.000 C 
ATOM      5  C   UNL     1       0.073   9.261  21.967  0.00  0.00    +0.000 C 
ATOM      6  N   UNL     1       0.857   8.186  21.345  0.00  0.00    +0.000 NA
ATOM      7  C   UNL     1       1.233   8.618  20.170  0.00  0.00    +0.000 C 
ATOM      8  N   UNL     1       1.842   7.753  19.291  0.00  0.00    +0.000 N 
ATOM      9  C   UNL     1       1.999   7.908  17.843  0.00  0.00    +0.000 C 
ATOM     10  C   UNL     1       3.501   7.996  17.518  0.00  0.00    +0.000 C 
ATOM     11  N   UNL     1       4.190   6.756  17.945  0.00  0.00    +0.000 N 
ATOM     12  C   UNL     1       3.936   6.371  19.357  0.00  0.00    +0.000 C 
ATOM     13  C   UNL     1       2.436   6.477  19.751  0.00  0.00    +0.000 C 
ENDROOT
BRANCH  11  14
ATOM     14  C   UNL     1       4.564   5.787  17.021  0.00  0.00    +0.000 A 
ATOM     15  C   UNL     1       4.450   4.426  17.357  0.00  0.00    +0.000 A 
ATOM     16  C   UNL     1       4.877   3.408  16.494  0.00  0.00    +0.000 A 
ATOM     17  C   UNL     1       5.431   3.725  15.258  0.00  0.00    +0.000 A 
ATOM     18  C   UNL     1       5.552   5.060  14.890  0.00  0.00    +0.000 A 
ATOM     19  C   UNL     1       5.126   6.066  15.759  0.00  0.00    +0.000 A 
ATOM     20  F   UNL     1       5.245   7.332  15.325  0.00  0.00    +0.000 F 
ENDBRANCH  11  14
BRANCH   1  21
ATOM     21  C   UNL     1       0.075  11.868  18.495  0.00  0.00    +0.000 C 
BRANCH  21  22
ATOM     22  C   UNL     1      -1.354  11.330  18.256  0.00  0.00    +0.000 A 
ATOM     23  C   UNL     1      -1.571  10.153  17.515  0.00  0.00    +0.000 A 
ATOM     24  C   UNL     1      -2.862   9.706  17.213  0.00  0.00    +0.000 A 
ATOM     25  C   UNL     1      -3.968  10.416  17.661  0.00  0.00    +0.000 A 
ATOM     26  C   UNL     1      -3.783  11.548  18.447  0.00  0.00    +0.000 A 
ATOM     27  C   UNL     1      -2.493  11.981  18.768  0.00  0.00    +0.000 A 
ENDBRANCH  21  22
BRANCH  21  29
ATOM     28  C   UNL     1       0.398  14.410  18.941  0.00  0.00    +0.000 C 
ATOM     29  C   UNL     1       0.131  13.029  19.522  0.00  0.00    +0.000 C 
ENDBRANCH  21  29
ENDBRANCH   1  21
TORSDOF 4
ENDMDL
MODEL 2
REMARK VINA RESULT:      -7.4      5.196      7.055
REMARK  Name = 
REMARK  5 active torsions:
REMARK  status: ('A' for Active; 'I' for Inactive)
REMARK    1  A    between atoms: C_1  and  C_2
REMARK    2  A    between atoms: C_2  and  C_3
REMARK    3  A    between atoms: C_3  and  C_4
REMARK    4  A    between atoms: C_3  and  C_24
REMARK    5  A    between atoms: N_14  and  C_15
REMARK                            x       y       z     vdW  Elec       q    Type
REMARK                         _______ _______ _______ _____ _____    ______ ____
ROOT
ATOM      1  C   UNL     1      -0.550  12.324  19.516  0.00  0.00    +0.000 C 
ATOM      2  O   UNL     1      -0.110  12.856  18.495  0.00  0.00    +0.000 OA
ATOM      3  N   UNL     1      -0.490  12.940  20.767  0.00  0.00    +0.000 N 
ATOM      4  C   UNL     1      -1.623  12.967  21.652  0.00  0.00    +0.000 C 
ATOM      5  C   UNL     1      -1.048  13.466  22.947  0.00  0.00    +0.000 C 
ATOM      6  N   UNL     1       0.229  14.099  22.590  0.00  0.00    +0.000 NA
ATOM      7  C   UNL     1       0.533  13.692  21.386  0.00  0.00    +0.000 C 
ATOM      8  N   UNL     1       1.766  13.993  20.858  0.00  0.00    +0.000 N 
ATOM      9  C   UNL     1       2.441  13.349  19.729  0.00  0.00    +0.000 C 
ATOM     10  C   UNL     1       2.619  14.386  18.606  0.00  0.00    +0.000 C 
ATOM     11  N   UNL     1       3.451  15.517  19.081  0.00  0.00    +0.000 N 
ATOM     12  C   UNL     1       2.983  16.128  20.351  0.00  0.00    +0.000 C 
ATOM     13  C   UNL     1       2.606  15.072  21.427  0.00  0.00    +0.000 C 
ENDROOT
BRANCH  11  14
ATOM     14  C   UNL     1       4.785  15.633  18.707  0.00  0.00    +0.000 A 
ATOM     15  C   UNL     1       5.398  14.591  17.988  0.00  0.00    +0.000 A 
ATOM     16  C   UNL     1       6.757  14.620  17.646  0.00  0.00    +0.000 A 
ATOM     17  C   UNL     1       7.546  15.705  18.014  0.00  0.00    +0.000 A 
ATOM     18  C   UNL     1       6.973  16.757  18.718  0.00  0.00    +0.000 A 
ATOM     19  C   UNL     1       5.618  16.714  19.056  0.00  0.00    +0.000 A 
ATOM     20  F   UNL     1       5.124  17.779  19.709  0.00  0.00    +0.000 F 
ENDBRANCH  11  14
BRANCH   1  21
ATOM     21  C   UNL     1      -1.312  10.979  19.398  0.00  0.00    +0.000 C 
BRANCH  21  22
ATOM     22  C   UNL     1      -2.222  10.843  18.156  0.00  0.00    +0.000 A 
ATOM     23  C   UNL     1      -1.863  10.006  17.082  0.00  0.00    +0.000 A 
ATOM     24  C   UNL     1      -2.631   9.945  15.915  0.00  0.00    +0.000 A 
ATOM     25  C   UNL     1      -3.787  10.705  15.800  0.00  0.00    +0.000 A 
ATOM     26  C   UNL     1      -4.198  11.492  16.869  0.00  0.00    +0.000 A 
ATOM     27  C   UNL     1      -3.443  11.536  18.046  0.00  0.00    +0.000 A 
ENDBRANCH  21  22
BRANCH  21  29
ATOM     28  C   UNL     1      -0.010   9.420  21.021  0.00  0.00    +0.000 C 
ATOM     29  C   UNL     1      -0.339   9.785  19.581  0.00  0.00    +0.000 C 
ENDBRANCH  21  29
ENDBRANCH   1  21
TORSDOF 4
ENDMDL
MODEL 3
REMARK VINA RESULT:      -7.4      0.896      1.253
REMARK  Name = 
REMARK  5 active torsions:
REMARK  status: ('A' for Active; 'I' for Inactive)
REMARK    1  A    between atoms: C_1  and  C_2
REMARK    2  A    between atoms: C_2  and  C_3
REMARK    3  A    between atoms: C_3  and  C_4
REMARK    4  A    between atoms: C_3  and  C_24
REMARK    5  A    between atoms: N_14  and  C_15
REMARK                            x       y       z     vdW  Elec       q    Type
REMARK                         _______ _______ _______ _____ _____    ______ ____
ROOT
ATOM      1  C   UNL     1       1.196  10.781  18.849  0.00  0.00    +0.000 C 
ATOM      2  O   UNL     1       2.257  10.759  18.222  0.00  0.00    +0.000 OA
ATOM      3  N   UNL     1       0.952   9.944  19.939  0.00  0.00    +0.000 N 
ATOM      4  C   UNL     1       0.378  10.438  21.160  0.00  0.00    +0.000 C 
ATOM      5  C   UNL     1       0.045   9.189  21.926  0.00  0.00    +0.000 C 
ATOM      6  N   UNL     1       0.845   8.126  21.304  0.00  0.00    +0.000 NA
ATOM      7  C   UNL     1       1.253   8.580  20.148  0.00  0.00    +0.000 C 
ATOM      8  N   UNL     1       1.885   7.732  19.270  0.00  0.00    +0.000 N 
ATOM      9  C   UNL     1       2.081   7.915  17.830  0.00  0.00    +0.000 C 
ATOM     10  C   UNL     1       3.591   8.008  17.547  0.00  0.00    +0.000 C 
ATOM     11  N   UNL     1       4.268   6.759  17.968  0.00  0.00    +0.000 N 
ATOM     12  C   UNL     1       3.977   6.348  19.365  0.00  0.00    +0.000 C 
ATOM     13  C   UNL     1       2.466   6.447  19.721  0.00  0.00    +0.000 C 
ENDROOT
BRANCH  11  14
ATOM     14  C   UNL     1       4.667   5.809  17.036  0.00  0.00    +0.000 A 
ATOM     15  C   UNL     1       5.404   6.209  15.907  0.00  0.00    +0.000 A 
ATOM     16  C   UNL     1       5.772   5.308  14.899  0.00  0.00    +0.000 A 
ATOM     17  C   UNL     1       5.413   3.967  14.996  0.00  0.00    +0.000 A 
ATOM     18  C   UNL     1       4.692   3.534  16.101  0.00  0.00    +0.000 A 
ATOM     19  C   UNL     1       4.328   4.442  17.098  0.00  0.00    +0.000 A 
ATOM     20  F   UNL     1       3.658   3.948  18.152  0.00  0.00    +0.000 F 
ENDBRANCH  11  14
BRANCH   1  21
ATOM     21  C   UNL     1       0.140  11.862  18.506  0.00  0.00    +0.000 C 
BRANCH  21  22
ATOM     22  C   UNL     1      -1.299  11.338  18.295  0.00  0.00    +0.000 A 
ATOM     23  C   UNL     1      -1.545  10.187  17.523  0.00  0.00    +0.000 A 
ATOM     24  C   UNL     1      -2.847   9.755  17.248  0.00  0.00    +0.000 A 
ATOM     25  C   UNL     1      -3.935  10.454  17.754  0.00  0.00    +0.000 A 
ATOM     26  C   UNL     1      -3.719  11.558  18.571  0.00  0.00    +0.000 A 
ATOM     27  C   UNL     1      -2.417  11.976  18.865  0.00  0.00    +0.000 A 
ENDBRANCH  21  22
BRANCH  21  29
ATOM     28  C   UNL     1       1.077  14.222  19.069  0.00  0.00    +0.000 C 
ATOM     29  C   UNL     1       0.223  13.042  19.510  0.00  0.00    +0.000 C 
ENDBRANCH  21  29
ENDBRANCH   1  21
TORSDOF 4
ENDMDL
MODEL 4
REMARK VINA RESULT:      -7.3      2.880      8.599
REMARK  Name = 
REMARK  5 active torsions:
REMARK  status: ('A' for Active; 'I' for Inactive)
REMARK    1  A    between atoms: C_1  and  C_2
REMARK    2  A    between atoms: C_2  and  C_3
REMARK    3  A    between atoms: C_3  and  C_4
REMARK    4  A    between atoms: C_3  and  C_24
REMARK    5  A    between atoms: N_14  and  C_15
REMARK                            x       y       z     vdW  Elec       q    Type
REMARK                         _______ _______ _______ _____ _____    ______ ____
ROOT
ATOM      1  C   UNL     1       4.951   4.390  17.099  0.00  0.00    +0.000 C 
ATOM      2  O   UNL     1       4.358   5.382  16.670  0.00  0.00    +0.000 OA
ATOM      3  N   UNL     1       4.374   3.510  18.015  0.00  0.00    +0.000 N 
ATOM      4  C   UNL     1       4.451   2.084  17.847  0.00  0.00    +0.000 C 
ATOM      5  C   UNL     1       3.959   1.546  19.160  0.00  0.00    +0.000 C 
ATOM      6  N   UNL     1       3.233   2.656  19.790  0.00  0.00    +0.000 NA
ATOM      7  C   UNL     1       3.579   3.747  19.158  0.00  0.00    +0.000 C 
ATOM      8  N   UNL     1       3.180   4.970  19.643  0.00  0.00    +0.000 N 
ATOM      9  C   UNL     1       3.740   6.286  19.330  0.00  0.00    +0.000 C 
ATOM     10  C   UNL     1       2.657   7.129  18.634  0.00  0.00    +0.000 C 
ATOM     11  N   UNL     1       1.491   7.305  19.531  0.00  0.00    +0.000 N 
ATOM     12  C   UNL     1       0.954   6.039  20.091  0.00  0.00    +0.000 C 
ATOM     13  C   UNL     1       2.067   5.089  20.614  0.00  0.00    +0.000 C 
ENDROOT
BRANCH  11  14
ATOM     14  C   UNL     1       1.276   8.504  20.202  0.00  0.00    +0.000 A 
ATOM     15  C   UNL     1       1.217   8.513  21.607  0.00  0.00    +0.000 A 
ATOM     16  C   UNL     1       0.932   9.677  22.333  0.00  0.00    +0.000 A 
ATOM     17  C   UNL     1       0.701  10.876  21.668  0.00  0.00    +0.000 A 
ATOM     18  C   UNL     1       0.759  10.907  20.280  0.00  0.00    +0.000 A 
ATOM     19  C   UNL     1       1.040   9.739  19.567  0.00  0.00    +0.000 A 
ATOM     20  F   UNL     1       1.111   9.849  18.230  0.00  0.00    +0.000 F 
ENDBRANCH  11  14
BRANCH   1  21
ATOM     21  C   UNL     1       6.338   4.028  16.509  0.00  0.00    +0.000 C 
BRANCH  21  22
ATOM     22  C   UNL     1       6.469   4.194  14.978  0.00  0.00    +0.000 A 
ATOM     23  C   UNL     1       5.610   3.509  14.098  0.00  0.00    +0.000 A 
ATOM     24  C   UNL     1       5.776   3.578  12.711  0.00  0.00    +0.000 A 
ATOM     25  C   UNL     1       6.797   4.348  12.169  0.00  0.00    +0.000 A 
ATOM     26  C   UNL     1       7.621   5.084  13.012  0.00  0.00    +0.000 A 
ATOM     27  C   UNL     1       7.440   5.034  14.398  0.00  0.00    +0.000 A 
ENDBRANCH  21  22
BRANCH  21  29
ATOM     28  C   UNL     1       7.138   6.130  17.814  0.00  0.00    +0.000 C 
ATOM     29  C   UNL     1       7.468   4.735  17.302  0.00  0.00    +0.000 C 
ENDBRANCH  21  29
ENDBRANCH   1  21
TORSDOF 4
ENDMDL
MODEL 5
REMARK VINA RESULT:      -7.2      4.899      9.984
REMARK  Name = 
REMARK  5 active torsions:
REMARK  status: ('A' for Active; 'I' for Inactive)
REMARK    1  A    between atoms: C_1  and  C_2
REMARK    2  A    between atoms: C_2  and  C_3
REMARK    3  A    between atoms: C_3  and  C_4
REMARK    4  A    between atoms: C_3  and  C_24
REMARK    5  A    between atoms: N_14  and  C_15
REMARK                            x       y       z     vdW  Elec       q    Type
REMARK                         _______ _______ _______ _____ _____    ______ ____
ROOT
ATOM      1  C   UNL     1      -0.444  11.436  20.000  0.00  0.00    +0.000 C 
ATOM      2  O   UNL     1      -1.241  10.862  20.745  0.00  0.00    +0.000 OA
ATOM      3  N   UNL     1       0.126  12.670  20.319  0.00  0.00    +0.000 N 
ATOM      4  C   UNL     1       1.532  12.920  20.153  0.00  0.00    +0.000 C 
ATOM      5  C   UNL     1       1.652  14.405  20.344  0.00  0.00    +0.000 C 
ATOM      6  N   UNL     1       0.419  14.811  21.033  0.00  0.00    +0.000 NA
ATOM      7  C   UNL     1      -0.432  13.827  20.905  0.00  0.00    +0.000 C 
ATOM      8  N   UNL     1      -1.735  13.999  21.310  0.00  0.00    +0.000 N 
ATOM      9  C   UNL     1      -2.904  13.202  20.932  0.00  0.00    +0.000 C 
ATOM     10  C   UNL     1      -3.465  12.523  22.194  0.00  0.00    +0.000 C 
ATOM     11  N   UNL     1      -3.880  13.545  23.183  0.00  0.00    +0.000 N 
ATOM     12  C   UNL     1      -2.835  14.552  23.496  0.00  0.00    +0.000 C 
ATOM     13  C   UNL     1      -2.119  15.095  22.228  0.00  0.00    +0.000 C 
ENDROOT
BRANCH  11  14
ATOM     14  C   UNL     1      -5.221  13.859  23.371  0.00  0.00    +0.000 A 
ATOM     15  C   UNL     1      -5.740  15.046  22.824  0.00  0.00    +0.000 A 
ATOM     16  C   UNL     1      -7.065  15.449  23.040  0.00  0.00    +0.000 A 
ATOM     17  C   UNL     1      -7.916  14.667  23.814  0.00  0.00    +0.000 A 
ATOM     18  C   UNL     1      -7.440  13.483  24.364  0.00  0.00    +0.000 A 
ATOM     19  C   UNL     1      -6.117  13.093  24.144  0.00  0.00    +0.000 A 
ATOM     20  F   UNL     1      -5.734  11.922  24.680  0.00  0.00    +0.000 F 
ENDBRANCH  11  14
BRANCH   1  21
ATOM     21  C   UNL     1       0.049  10.710  18.721  0.00  0.00    +0.000 C 
BRANCH  21  22
ATOM     22  C   UNL     1       0.956   9.484  18.965  0.00  0.00    +0.000 A 
ATOM     23  C   UNL     1       1.694   8.907  17.914  0.00  0.00    +0.000 A 
ATOM     24  C   UNL     1       2.446   7.743  18.101  0.00  0.00    +0.000 A 
ATOM     25  C   UNL     1       2.493   7.135  19.349  0.00  0.00    +0.000 A 
ATOM     26  C   UNL     1       1.824   7.718  20.419  0.00  0.00    +0.000 A 
ATOM     27  C   UNL     1       1.091   8.896  20.238  0.00  0.00    +0.000 A 
ENDBRANCH  21  22
BRANCH  21  29
ATOM     28  C   UNL     1      -2.077  11.586  17.505  0.00  0.00    +0.000 C 
ATOM     29  C   UNL     1      -1.142  10.415  17.772  0.00  0.00    +0.000 C 
ENDBRANCH  21  29
ENDBRANCH   1  21
TORSDOF 4
ENDMDL
MODEL 6
REMARK VINA RESULT:      -7.2      2.917      8.520
REMARK  Name = 
REMARK  5 active torsions:
REMARK  status: ('A' for Active; 'I' for Inactive)
REMARK    1  A    between atoms: C_1  and  C_2
REMARK    2  A    between atoms: C_2  and  C_3
REMARK    3  A    between atoms: C_3  and  C_4
REMARK    4  A    between atoms: C_3  and  C_24
REMARK    5  A    between atoms: N_14  and  C_15
REMARK                            x       y       z     vdW  Elec       q    Type
REMARK                         _______ _______ _______ _____ _____    ______ ____
ROOT
ATOM      1  C   UNL     1       4.904   4.860  16.845  0.00  0.00    +0.000 C 
ATOM      2  O   UNL     1       4.356   5.712  16.143  0.00  0.00    +0.000 OA
ATOM      3  N   UNL     1       4.315   4.352  18.004  0.00  0.00    +0.000 N 
ATOM      4  C   UNL     1       4.293   2.942  18.286  0.00  0.00    +0.000 C 
ATOM      5  C   UNL     1       3.829   2.874  19.713  0.00  0.00    +0.000 C 
ATOM      6  N   UNL     1       3.205   4.177  19.983  0.00  0.00    +0.000 NA
ATOM      7  C   UNL     1       3.590   4.989  19.034  0.00  0.00    +0.000 C 
ATOM      8  N   UNL     1       3.293   6.329  19.124  0.00  0.00    +0.000 N 
ATOM      9  C   UNL     1       3.922   7.438  18.403  0.00  0.00    +0.000 C 
ATOM     10  C   UNL     1       2.864   8.103  17.506  0.00  0.00    +0.000 C 
ATOM     11  N   UNL     1       1.754   8.635  18.332  0.00  0.00    +0.000 N 
ATOM     12  C   UNL     1       1.163   7.648  19.271  0.00  0.00    +0.000 C 
ATOM     13  C   UNL     1       2.237   6.825  20.037  0.00  0.00    +0.000 C 
ENDROOT
BRANCH  11  14
ATOM     14  C   UNL     1       1.647   9.995  18.600  0.00  0.00    +0.000 A 
ATOM     15  C   UNL     1       2.436  10.909  17.880  0.00  0.00    +0.000 A 
ATOM     16  C   UNL     1       2.423  12.283  18.155  0.00  0.00    +0.000 A 
ATOM     17  C   UNL     1       1.610  12.786  19.165  0.00  0.00    +0.000 A 
ATOM     18  C   UNL     1       0.810  11.913  19.893  0.00  0.00    +0.000 A 
ATOM     19  C   UNL     1       0.834  10.545  19.611  0.00  0.00    +0.000 A 
ATOM     20  F   UNL     1       0.013   9.764  20.333  0.00  0.00    +0.000 F 
ENDBRANCH  11  14
BRANCH   1  21
ATOM     21  C   UNL     1       6.236   4.230  16.363  0.00  0.00    +0.000 C 
BRANCH  21  22
ATOM     22  C   UNL     1       6.490   4.304  14.840  0.00  0.00    +0.000 A 
ATOM     23  C   UNL     1       5.753   3.509  13.942  0.00  0.00    +0.000 A 
ATOM     24  C   UNL     1       6.035   3.498  12.573  0.00  0.00    +0.000 A 
ATOM     25  C   UNL     1       7.052   4.296  12.064  0.00  0.00    +0.000 A 
ATOM     26  C   UNL     1       7.755   5.136  12.919  0.00  0.00    +0.000 A 
ATOM     27  C   UNL     1       7.457   5.165  14.286  0.00  0.00    +0.000 A 
ENDBRANCH  21  22
BRANCH  21  29
ATOM     28  C   UNL     1       7.328   6.212  17.645  0.00  0.00    +0.000 C 
ATOM     29  C   UNL     1       7.424   4.756  17.211  0.00  0.00    +0.000 C 
ENDBRANCH  21  29
ENDBRANCH   1  21
TORSDOF 4
ENDMDL
MODEL 7
REMARK VINA RESULT:      -7.1      5.080      6.882
REMARK  Name = 
REMARK  5 active torsions:
REMARK  status: ('A' for Active; 'I' for Inactive)
REMARK    1  A    between atoms: C_1  and  C_2
REMARK    2  A    between atoms: C_2  and  C_3
REMARK    3  A    between atoms: C_3  and  C_4
REMARK    4  A    between atoms: C_3  and  C_24
REMARK    5  A    between atoms: N_14  and  C_15
REMARK                            x       y       z     vdW  Elec       q    Type
REMARK                         _______ _______ _______ _____ _____    ______ ____
ROOT
ATOM      1  C   UNL     1      -0.548  12.281  19.738  0.00  0.00    +0.000 C 
ATOM      2  O   UNL     1       0.075  12.693  18.758  0.00  0.00    +0.000 OA
ATOM      3  N   UNL     1      -0.639  13.007  20.927  0.00  0.00    +0.000 N 
ATOM      4  C   UNL     1      -1.889  13.175  21.618  0.00  0.00    +0.000 C 
ATOM      5  C   UNL     1      -1.486  13.761  22.940  0.00  0.00    +0.000 C 
ATOM      6  N   UNL     1      -0.131  14.292  22.736  0.00  0.00    +0.000 NA
ATOM      7  C   UNL     1       0.325  13.760  21.633  0.00  0.00    +0.000 C 
ATOM      8  N   UNL     1       1.641  13.947  21.282  0.00  0.00    +0.000 N 
ATOM      9  C   UNL     1       2.436  13.167  20.331  0.00  0.00    +0.000 C 
ATOM     10  C   UNL     1       2.850  14.085  19.167  0.00  0.00    +0.000 C 
ATOM     11  N   UNL     1       3.672  15.210  19.670  0.00  0.00    +0.000 N 
ATOM     12  C   UNL     1       3.058  15.960  20.795  0.00  0.00    +0.000 C 
ATOM     13  C   UNL     1       2.454  15.030  21.884  0.00  0.00    +0.000 C 
ENDROOT
BRANCH  11  14
ATOM     14  C   UNL     1       5.052  15.222  19.503  0.00  0.00    +0.000 A 
ATOM     15  C   UNL     1       5.888  15.306  20.631  0.00  0.00    +0.000 A 
ATOM     16  C   UNL     1       7.282  15.393  20.520  0.00  0.00    +0.000 A 
ATOM     17  C   UNL     1       7.885  15.395  19.266  0.00  0.00    +0.000 A 
ATOM     18  C   UNL     1       7.091  15.304  18.129  0.00  0.00    +0.000 A 
ATOM     19  C   UNL     1       5.702  15.221  18.252  0.00  0.00    +0.000 A 
ATOM     20  F   UNL     1       4.999  15.105  17.113  0.00  0.00    +0.000 F 
ENDBRANCH  11  14
BRANCH   1  21
ATOM     21  C   UNL     1      -1.369  10.972  19.615  0.00  0.00    +0.000 C 
BRANCH  21  22
ATOM     22  C   UNL     1      -2.245  10.859  18.347  0.00  0.00    +0.000 A 
ATOM     23  C   UNL     1      -1.862  10.034  17.272  0.00  0.00    +0.000 A 
ATOM     24  C   UNL     1      -2.597   9.994  16.083  0.00  0.00    +0.000 A 
ATOM     25  C   UNL     1      -3.744  10.764  15.945  0.00  0.00    +0.000 A 
ATOM     26  C   UNL     1      -4.180  11.541  17.013  0.00  0.00    +0.000 A 
ATOM     27  C   UNL     1      -3.457  11.563  18.211  0.00  0.00    +0.000 A 
ENDBRANCH  21  22
BRANCH  21  29
ATOM     28  C   UNL     1      -0.021   9.504  21.285  0.00  0.00    +0.000 C 
ATOM     29  C   UNL     1      -0.460   9.737  19.846  0.00  0.00    +0.000 C 
ENDBRANCH  21  29
ENDBRANCH   1  21
TORSDOF 4
ENDMDL
MODEL 8
REMARK VINA RESULT:      -7.0      2.758      8.212
REMARK  Name = 
REMARK  5 active torsions:
REMARK  status: ('A' for Active; 'I' for Inactive)
REMARK    1  A    between atoms: C_1  and  C_2
REMARK    2  A    between atoms: C_2  and  C_3
REMARK    3  A    between atoms: C_3  and  C_4
REMARK    4  A    between atoms: C_3  and  C_24
REMARK    5  A    between atoms: N_14  and  C_15
REMARK                            x       y       z     vdW  Elec       q    Type
REMARK                         _______ _______ _______ _____ _____    ______ ____
ROOT
ATOM      1  C   UNL     1       2.136   4.833  17.878  0.00  0.00    +0.000 C 
ATOM      2  O   UNL     1       1.471   5.608  17.187  0.00  0.00    +0.000 OA
ATOM      3  N   UNL     1       2.079   4.836  19.273  0.00  0.00    +0.000 N 
ATOM      4  C   UNL     1       1.961   3.619  20.028  0.00  0.00    +0.000 C 
ATOM      5  C   UNL     1       2.209   4.055  21.444  0.00  0.00    +0.000 C 
ATOM      6  N   UNL     1       2.003   5.509  21.446  0.00  0.00    +0.000 NA
ATOM      7  C   UNL     1       2.030   5.901  20.199  0.00  0.00    +0.000 C 
ATOM      8  N   UNL     1       2.031   7.245  19.908  0.00  0.00    +0.000 N 
ATOM      9  C   UNL     1       2.424   7.891  18.654  0.00  0.00    +0.000 C 
ATOM     10  C   UNL     1       1.194   8.601  18.062  0.00  0.00    +0.000 C 
ATOM     11  N   UNL     1       0.698   9.636  19.000  0.00  0.00    +0.000 N 
ATOM     12  C   UNL     1       0.460   9.143  20.381  0.00  0.00    +0.000 C 
ATOM     13  C   UNL     1       1.616   8.251  20.913  0.00  0.00    +0.000 C 
ENDROOT
BRANCH  11  14
ATOM     14  C   UNL     1       0.951  10.985  18.780  0.00  0.00    +0.000 A 
ATOM     15  C   UNL     1       2.218  11.388  18.323  0.00  0.00    +0.000 A 
ATOM     16  C   UNL     1       2.553  12.738  18.152  0.00  0.00    +0.000 A 
ATOM     17  C   UNL     1       1.620  13.731  18.432  0.00  0.00    +0.000 A 
ATOM     18  C   UNL     1       0.355  13.369  18.878  0.00  0.00    +0.000 A 
ATOM     19  C   UNL     1       0.033  12.020  19.048  0.00  0.00    +0.000 A 
ATOM     20  F   UNL     1      -1.217  11.742  19.452  0.00  0.00    +0.000 F 
ENDBRANCH  11  14
BRANCH   1  21
ATOM     21  C   UNL     1       2.969   3.727  17.181  0.00  0.00    +0.000 C 
BRANCH  21  22
ATOM     22  C   UNL     1       4.492   3.982  17.127  0.00  0.00    +0.000 A 
ATOM     23  C   UNL     1       5.206   4.359  18.281  0.00  0.00    +0.000 A 
ATOM     24  C   UNL     1       6.566   4.682  18.227  0.00  0.00    +0.000 A 
ATOM     25  C   UNL     1       7.250   4.620  17.020  0.00  0.00    +0.000 A 
ATOM     26  C   UNL     1       6.584   4.191  15.877  0.00  0.00    +0.000 A 
ATOM     27  C   UNL     1       5.230   3.845  15.936  0.00  0.00    +0.000 A 
ENDBRANCH  21  22
BRANCH  21  29
ATOM     28  C   UNL     1       3.775   1.422  18.076  0.00  0.00    +0.000 C 
ATOM     29  C   UNL     1       2.599   2.330  17.747  0.00  0.00    +0.000 C 
ENDBRANCH  21  29
ENDBRANCH   1  21
TORSDOF 4
ENDMDL
MODEL 9
REMARK VINA RESULT:      -7.0      4.910      7.299
REMARK  Name = 
REMARK  5 active torsions:
REMARK  status: ('A' for Active; 'I' for Inactive)
REMARK    1  A    between atoms: C_1  and  C_2
REMARK    2  A    between atoms: C_2  and  C_3
REMARK    3  A    between atoms: C_3  and  C_4
REMARK    4  A    between atoms: C_3  and  C_24
REMARK    5  A    between atoms: N_14  and  C_15
REMARK                            x       y       z     vdW  Elec       q    Type
REMARK                         _______ _______ _______ _____ _____    ______ ____
ROOT
ATOM      1  C   UNL     1      -0.415  12.276  19.698  0.00  0.00    +0.000 C 
ATOM      2  O   UNL     1       0.178  12.817  18.762  0.00  0.00    +0.000 OA
ATOM      3  N   UNL     1      -0.626  12.914  20.921  0.00  0.00    +0.000 N 
ATOM      4  C   UNL     1      -1.904  12.886  21.578  0.00  0.00    +0.000 C 
ATOM      5  C   UNL     1      -1.612  13.439  22.944  0.00  0.00    +0.000 C 
ATOM      6  N   UNL     1      -0.329  14.143  22.814  0.00  0.00    +0.000 NA
ATOM      7  C   UNL     1       0.218  13.736  21.699  0.00  0.00    +0.000 C 
ATOM      8  N   UNL     1       1.510  14.104  21.402  0.00  0.00    +0.000 N 
ATOM      9  C   UNL     1       2.420  13.484  20.436  0.00  0.00    +0.000 C 
ATOM     10  C   UNL     1       2.747  14.512  19.339  0.00  0.00    +0.000 C 
ATOM     11  N   UNL     1       3.409  15.698  19.930  0.00  0.00    +0.000 N 
ATOM     12  C   UNL     1       2.677  16.301  21.073  0.00  0.00    +0.000 C 
ATOM     13  C   UNL     1       2.165  15.241  22.089  0.00  0.00    +0.000 C 
ENDROOT
BRANCH  11  14
ATOM     14  C   UNL     1       4.781  15.889  19.809  0.00  0.00    +0.000 A 
ATOM     15  C   UNL     1       5.272  16.821  18.877  0.00  0.00    +0.000 A 
ATOM     16  C   UNL     1       6.645  17.005  18.661  0.00  0.00    +0.000 A 
ATOM     17  C   UNL     1       7.572  16.258  19.380  0.00  0.00    +0.000 A 
ATOM     18  C   UNL     1       7.123  15.334  20.315  0.00  0.00    +0.000 A 
ATOM     19  C   UNL     1       5.752  15.157  20.520  0.00  0.00    +0.000 A 
ATOM     20  F   UNL     1       5.390  14.269  21.461  0.00  0.00    +0.000 F 
ENDBRANCH  11  14
BRANCH   1  21
ATOM     21  C   UNL     1      -1.063  10.885  19.476  0.00  0.00    +0.000 C 
BRANCH  21  22
ATOM     22  C   UNL     1      -2.046  10.797  18.286  0.00  0.00    +0.000 A 
ATOM     23  C   UNL     1      -1.775   9.965  17.182  0.00  0.00    +0.000 A 
ATOM     24  C   UNL     1      -2.609   9.946  16.060  0.00  0.00    +0.000 A 
ATOM     25  C   UNL     1      -3.743  10.746  16.019  0.00  0.00    +0.000 A 
ATOM     26  C   UNL     1      -4.067  11.530  17.120  0.00  0.00    +0.000 A 
ATOM     27  C   UNL     1      -3.247  11.532  18.253  0.00  0.00    +0.000 A 
ENDBRANCH  21  22
BRANCH  21  29
ATOM     28  C   UNL     1       0.470   9.278  20.828  0.00  0.00    +0.000 C 
ATOM     29  C   UNL     1       0.021   9.776  19.462  0.00  0.00    +0.000 C 
ENDBRANCH  21  29
ENDBRANCH   1  21
TORSDOF 4
ENDMDL
