MODEL 1
REMARK VINA RESULT:      -8.6      0.000      0.000
REMARK  Name = 
REMARK  7 active torsions:
REMARK  status: ('A' for Active; 'I' for Inactive)
REMARK    1  A    between atoms: C_1  and  N_2
REMARK    2  A    between atoms: C_3  and  C_5
REMARK    3  A    between atoms: C_5  and  C_6
REMARK    4  A    between atoms: C_11  and  S_12
REMARK    5  A    between atoms: S_12  and  C_13
REMARK    6  A    between atoms: C_14  and  O_15
REMARK    7  A    between atoms: C_17  and  C_18
REMARK                            x       y       z     vdW  Elec       q    Type
REMARK                         _______ _______ _______ _____ _____    ______ ____
ROOT
ATOM      1  C   UNL     1       1.398   9.652  19.643  0.00  0.00    +0.000 C 
ATOM      2  C   UNL     1       1.761   9.365  18.379  0.00  0.00    +0.000 C 
ATOM      3  C   UNL     1       2.106   7.991  17.883  0.00  0.00    +0.000 C 
ATOM      4  C   UNL     1       2.544   7.042  19.009  0.00  0.00    +0.000 C 
ATOM      5  C   UNL     1       1.649   7.133  20.248  0.00  0.00    +0.000 C 
ATOM      6  C   UNL     1       1.339   8.558  20.669  0.00  0.00    +0.000 C 
ATOM      7  O   UNL     1       0.988   8.784  21.830  0.00  0.00    +0.000 OA
ENDROOT
BRANCH   4   8
ATOM      8  C   UNL     1       2.761   5.600  18.527  0.00  0.00    +0.000 A 
ATOM      9  C   UNL     1       3.712   5.307  17.518  0.00  0.00    +0.000 A 
ATOM     10 CL   UNL     1       4.695   6.522  16.769  0.00  0.00    +0.000 Cl
ATOM     11  C   UNL     1       3.919   3.997  17.060  0.00  0.00    +0.000 A 
ATOM     12  C   UNL     1       3.189   2.940  17.584  0.00  0.00    +0.000 A 
ATOM     13  C   UNL     1       2.251   3.193  18.575  0.00  0.00    +0.000 A 
ATOM     14  C   UNL     1       2.039   4.498  19.046  0.00  0.00    +0.000 A 
ATOM     15 CL   UNL     1       0.849   4.630  20.299  0.00  0.00    +0.000 Cl
ENDBRANCH   4   8
BRANCH   2  16
ATOM     16  O   UNL     1       1.886  10.337  17.397  0.00  0.00    +0.000 OA
ATOM     17  H   UNL     1       2.233   9.915  16.585  0.00  0.00    +0.000 HD
ENDBRANCH   2  16
BRANCH   1  18
ATOM     18  S   UNL     1       1.148  11.285  20.176  0.00  0.00    +0.000 S 
BRANCH  18  24
ATOM     19  C   UNL     1      -2.510  10.718  18.476  0.00  0.00    +0.000 A 
ATOM     20  C   UNL     1      -3.300  11.707  19.070  0.00  0.00    +0.000 A 
ATOM     21  C   UNL     1      -2.722  12.647  19.924  0.00  0.00    +0.000 A 
ATOM     22  C   UNL     1      -1.355  12.589  20.220  0.00  0.00    +0.000 A 
ATOM     23 CL   UNL     1      -0.738  13.773  21.321  0.00  0.00    +0.000 Cl
ATOM     24  C   UNL     1      -0.546  11.586  19.660  0.00  0.00    +0.000 A 
ATOM     25  C   UNL     1      -1.138  10.664  18.781  0.00  0.00    +0.000 A 
BRANCH  19  26
ATOM     26  C   UNL     1      -3.134   9.683  17.571  0.00  0.00    +0.000 C 
BRANCH  26  29
ATOM     27  C   UNL     1      -3.251  10.076  13.802  0.00  0.00    +0.000 C 
ATOM     28  N   UNL     1      -2.922   9.681  15.148  0.00  0.00    +0.000 N 
ATOM     29  C   UNL     1      -3.551  10.260  16.228  0.00  0.00    +0.000 C 
ATOM     30  O   UNL     1      -4.382  11.160  16.127  0.00  0.00    +0.000 OA
ATOM     31  H   UNL     1      -2.354   8.857  15.285  0.00  0.00    +0.000 HD
ENDBRANCH  26  29
ENDBRANCH  19  26
ENDBRANCH  18  24
ENDBRANCH   1  18
TORSDOF 6
ENDMDL
MODEL 2
REMARK VINA RESULT:      -8.4      0.058      1.709
REMARK  Name = 
REMARK  7 active torsions:
REMARK  status: ('A' for Active; 'I' for Inactive)
REMARK    1  A    between atoms: C_1  and  N_2
REMARK    2  A    between atoms: C_3  and  C_5
REMARK    3  A    between atoms: C_5  and  C_6
REMARK    4  A    between atoms: C_11  and  S_12
REMARK    5  A    between atoms: S_12  and  C_13
REMARK    6  A    between atoms: C_14  and  O_15
REMARK    7  A    between atoms: C_17  and  C_18
REMARK                            x       y       z     vdW  Elec       q    Type
REMARK                         _______ _______ _______ _____ _____    ______ ____
ROOT
ATOM      1  C   UNL     1       1.409   9.687  19.628  0.00  0.00    +0.000 C 
ATOM      2  C   UNL     1       1.795   9.404  18.370  0.00  0.00    +0.000 C 
ATOM      3  C   UNL     1       2.150   8.032  17.877  0.00  0.00    +0.000 C 
ATOM      4  C   UNL     1       2.567   7.079  19.008  0.00  0.00    +0.000 C 
ATOM      5  C   UNL     1       1.648   7.166  20.230  0.00  0.00    +0.000 C 
ATOM      6  C   UNL     1       1.331   8.591  20.650  0.00  0.00    +0.000 C 
ATOM      7  O   UNL     1       0.958   8.813  21.805  0.00  0.00    +0.000 OA
ENDROOT
BRANCH   4   8
ATOM      8  C   UNL     1       2.794   5.639  18.526  0.00  0.00    +0.000 A 
ATOM      9  C   UNL     1       2.075   4.561  19.096  0.00  0.00    +0.000 A 
ATOM     10 CL   UNL     1       0.899   4.772  20.351  0.00  0.00    +0.000 Cl
ATOM     11  C   UNL     1       2.274   3.237  18.674  0.00  0.00    +0.000 A 
ATOM     12  C   UNL     1       3.192   2.944  17.676  0.00  0.00    +0.000 A 
ATOM     13  C   UNL     1       3.912   3.978  17.095  0.00  0.00    +0.000 A 
ATOM     14  C   UNL     1       3.717   5.306  17.505  0.00  0.00    +0.000 A 
ATOM     15 CL   UNL     1       4.680   6.472  16.658  0.00  0.00    +0.000 Cl
ENDBRANCH   4   8
BRANCH   2  16
ATOM     16  O   UNL     1       1.938  10.379  17.394  0.00  0.00    +0.000 OA
ATOM     17  H   UNL     1       2.684  10.129  16.813  0.00  0.00    +0.000 HD
ENDBRANCH   2  16
BRANCH   1  18
ATOM     18  S   UNL     1       1.148  11.318  20.161  0.00  0.00    +0.000 S 
BRANCH  18  24
ATOM     19  C   UNL     1      -2.510  10.725  18.473  0.00  0.00    +0.000 A 
ATOM     20  C   UNL     1      -3.307  11.705  19.071  0.00  0.00    +0.000 A 
ATOM     21  C   UNL     1      -2.735  12.648  19.926  0.00  0.00    +0.000 A 
ATOM     22  C   UNL     1      -1.366  12.601  20.218  0.00  0.00    +0.000 A 
ATOM     23 CL   UNL     1      -0.756  13.787  21.320  0.00  0.00    +0.000 Cl
ATOM     24  C   UNL     1      -0.550  11.607  19.652  0.00  0.00    +0.000 A 
ATOM     25  C   UNL     1      -1.137  10.682  18.773  0.00  0.00    +0.000 A 
BRANCH  19  26
ATOM     26  C   UNL     1      -3.128   9.687  17.567  0.00  0.00    +0.000 C 
BRANCH  26  29
ATOM     27  C   UNL     1      -3.229  10.088  13.798  0.00  0.00    +0.000 C 
ATOM     28  N   UNL     1      -2.903   9.694  15.144  0.00  0.00    +0.000 N 
ATOM     29  C   UNL     1      -3.545  10.261  16.222  0.00  0.00    +0.000 C 
ATOM     30  O   UNL     1      -4.387  11.151  16.119  0.00  0.00    +0.000 OA
ATOM     31  H   UNL     1      -2.326   8.876  15.283  0.00  0.00    +0.000 HD
ENDBRANCH  26  29
ENDBRANCH  19  26
ENDBRANCH  18  24
ENDBRANCH   1  18
TORSDOF 6
ENDMDL
MODEL 3
REMARK VINA RESULT:      -7.9      1.181      1.209
REMARK  Name = 
REMARK  7 active torsions:
REMARK  status: ('A' for Active; 'I' for Inactive)
REMARK    1  A    between atoms: C_1  and  N_2
REMARK    2  A    between atoms: C_3  and  C_5
REMARK    3  A    between atoms: C_5  and  C_6
REMARK    4  A    between atoms: C_11  and  S_12
REMARK    5  A    between atoms: S_12  and  C_13
REMARK    6  A    between atoms: C_14  and  O_15
REMARK    7  A    between atoms: C_17  and  C_18
REMARK                            x       y       z     vdW  Elec       q    Type
REMARK                         _______ _______ _______ _____ _____    ______ ____
ROOT
ATOM      1  C   UNL     1       1.643   8.818  19.865  0.00  0.00    +0.000 C 
ATOM      2  C   UNL     1       2.080   8.537  18.624  0.00  0.00    +0.000 C 
ATOM      3  C   UNL     1       2.374   7.155  18.117  0.00  0.00    +0.000 C 
ATOM      4  C   UNL     1       2.666   6.154  19.246  0.00  0.00    +0.000 C 
ATOM      5  C   UNL     1       1.688   6.275  20.418  0.00  0.00    +0.000 C 
ATOM      6  C   UNL     1       1.438   7.708  20.855  0.00  0.00    +0.000 C 
ATOM      7  O   UNL     1       1.016   7.930  21.992  0.00  0.00    +0.000 OA
ENDROOT
BRANCH   4   8
ATOM      8  C   UNL     1       2.827   4.713  18.742  0.00  0.00    +0.000 A 
ATOM      9  C   UNL     1       3.875   4.367  17.854  0.00  0.00    +0.000 A 
ATOM     10 CL   UNL     1       5.043   5.513  17.283  0.00  0.00    +0.000 Cl
ATOM     11  C   UNL     1       4.034   3.057  17.376  0.00  0.00    +0.000 A 
ATOM     12  C   UNL     1       3.158   2.053  17.763  0.00  0.00    +0.000 A 
ATOM     13  C   UNL     1       2.121   2.357  18.633  0.00  0.00    +0.000 A 
ATOM     14  C   UNL     1       1.956   3.663  19.121  0.00  0.00    +0.000 A 
ATOM     15 CL   UNL     1       0.627   3.862  20.215  0.00  0.00    +0.000 Cl
ENDBRANCH   4   8
BRANCH   2  16
ATOM     16  O   UNL     1       2.339   9.521  17.681  0.00  0.00    +0.000 OA
ATOM     17  H   UNL     1       1.612  10.175  17.707  0.00  0.00    +0.000 HD
ENDBRANCH   2  16
BRANCH   1  18
ATOM     18  S   UNL     1       1.457  10.451  20.423  0.00  0.00    +0.000 S 
BRANCH  18  24
ATOM     19  C   UNL     1      -1.843  10.790  18.061  0.00  0.00    +0.000 A 
ATOM     20  C   UNL     1      -1.843  12.140  17.694  0.00  0.00    +0.000 A 
ATOM     21  C   UNL     1      -0.780  12.966  18.063  0.00  0.00    +0.000 A 
ATOM     22  C   UNL     1       0.276  12.461  18.831  0.00  0.00    +0.000 A 
ATOM     23 CL   UNL     1       1.527  13.571  19.273  0.00  0.00    +0.000 Cl
ATOM     24  C   UNL     1       0.283  11.116  19.237  0.00  0.00    +0.000 A 
ATOM     25  C   UNL     1      -0.780  10.292  18.834  0.00  0.00    +0.000 A 
BRANCH  19  26
ATOM     26  C   UNL     1      -3.002   9.898  17.685  0.00  0.00    +0.000 C 
BRANCH  26  29
ATOM     27  C   UNL     1      -3.477  10.035  13.926  0.00  0.00    +0.000 C 
ATOM     28  N   UNL     1      -2.971   9.801  15.254  0.00  0.00    +0.000 N 
ATOM     29  C   UNL     1      -3.633  10.289  16.359  0.00  0.00    +0.000 C 
ATOM     30  O   UNL     1      -4.649  10.978  16.292  0.00  0.00    +0.000 OA
ATOM     31  H   UNL     1      -2.225   9.131  15.377  0.00  0.00    +0.000 HD
ENDBRANCH  26  29
ENDBRANCH  19  26
ENDBRANCH  18  24
ENDBRANCH   1  18
TORSDOF 6
ENDMDL
MODEL 4
REMARK VINA RESULT:      -7.9      1.512      1.876
REMARK  Name = 
REMARK  7 active torsions:
REMARK  status: ('A' for Active; 'I' for Inactive)
REMARK    1  A    between atoms: C_1  and  N_2
REMARK    2  A    between atoms: C_3  and  C_5
REMARK    3  A    between atoms: C_5  and  C_6
REMARK    4  A    between atoms: C_11  and  S_12
REMARK    5  A    between atoms: S_12  and  C_13
REMARK    6  A    between atoms: C_14  and  O_15
REMARK    7  A    between atoms: C_17  and  C_18
REMARK                            x       y       z     vdW  Elec       q    Type
REMARK                         _______ _______ _______ _____ _____    ______ ____
ROOT
ATOM      1  C   UNL     1       1.787   8.590  19.525  0.00  0.00    +0.000 C 
ATOM      2  C   UNL     1       2.303   8.887  18.318  0.00  0.00    +0.000 C 
ATOM      3  C   UNL     1       3.091   7.932  17.471  0.00  0.00    +0.000 C 
ATOM      4  C   UNL     1       3.730   6.796  18.286  0.00  0.00    +0.000 C 
ATOM      5  C   UNL     1       2.771   6.190  19.315  0.00  0.00    +0.000 C 
ATOM      6  C   UNL     1       2.005   7.227  20.116  0.00  0.00    +0.000 C 
ATOM      7  O   UNL     1       1.526   6.916  21.209  0.00  0.00    +0.000 OA
ENDROOT
BRANCH   4   8
ATOM      8  C   UNL     1       4.417   5.742  17.407  0.00  0.00    +0.000 A 
ATOM      9  C   UNL     1       5.738   5.939  16.935  0.00  0.00    +0.000 A 
ATOM     10 CL   UNL     1       6.671   7.350  17.310  0.00  0.00    +0.000 Cl
ATOM     11  C   UNL     1       6.381   4.990  16.125  0.00  0.00    +0.000 A 
ATOM     12  C   UNL     1       5.732   3.819  15.758  0.00  0.00    +0.000 A 
ATOM     13  C   UNL     1       4.438   3.594  16.204  0.00  0.00    +0.000 A 
ATOM     14  C   UNL     1       3.788   4.533  17.019  0.00  0.00    +0.000 A 
ATOM     15 CL   UNL     1       2.186   4.083  17.505  0.00  0.00    +0.000 Cl
ENDBRANCH   4   8
BRANCH   2  16
ATOM     16  O   UNL     1       2.181  10.143  17.741  0.00  0.00    +0.000 OA
ATOM     17  H   UNL     1       3.078  10.496  17.575  0.00  0.00    +0.000 HD
ENDBRANCH   2  16
BRANCH   1  18
ATOM     18  S   UNL     1       1.004   9.788  20.507  0.00  0.00    +0.000 S 
BRANCH  18  24
ATOM     19  C   UNL     1      -2.090  10.583  17.981  0.00  0.00    +0.000 A 
ATOM     20  C   UNL     1      -1.951  11.949  17.717  0.00  0.00    +0.000 A 
ATOM     21  C   UNL     1      -0.851  12.650  18.212  0.00  0.00    +0.000 A 
ATOM     22  C   UNL     1       0.106  12.001  19.002  0.00  0.00    +0.000 A 
ATOM     23 CL   UNL     1       1.413  12.962  19.602  0.00  0.00    +0.000 Cl
ATOM     24  C   UNL     1      -0.028  10.635  19.305  0.00  0.00    +0.000 A 
ATOM     25  C   UNL     1      -1.127   9.939  18.778  0.00  0.00    +0.000 A 
BRANCH  19  26
ATOM     26  C   UNL     1      -3.291   9.825  17.469  0.00  0.00    +0.000 C 
BRANCH  26  29
ATOM     27  C   UNL     1      -3.423  10.042  13.686  0.00  0.00    +0.000 C 
ATOM     28  N   UNL     1      -3.070   9.733  15.048  0.00  0.00    +0.000 N 
ATOM     29  C   UNL     1      -3.746  10.308  16.102  0.00  0.00    +0.000 C 
ATOM     30  O   UNL     1      -4.644  11.136  15.961  0.00  0.00    +0.000 OA
ATOM     31  H   UNL     1      -2.441   8.962  15.222  0.00  0.00    +0.000 HD
ENDBRANCH  26  29
ENDBRANCH  19  26
ENDBRANCH  18  24
ENDBRANCH   1  18
TORSDOF 6
ENDMDL
MODEL 5
REMARK VINA RESULT:      -7.7      1.556      1.744
REMARK  Name = 
REMARK  7 active torsions:
REMARK  status: ('A' for Active; 'I' for Inactive)
REMARK    1  A    between atoms: C_1  and  N_2
REMARK    2  A    between atoms: C_3  and  C_5
REMARK    3  A    between atoms: C_5  and  C_6
REMARK    4  A    between atoms: C_11  and  S_12
REMARK    5  A    between atoms: S_12  and  C_13
REMARK    6  A    between atoms: C_14  and  O_15
REMARK    7  A    between atoms: C_17  and  C_18
REMARK                            x       y       z     vdW  Elec       q    Type
REMARK                         _______ _______ _______ _____ _____    ______ ____
ROOT
ATOM      1  C   UNL     1       1.644   8.803  19.826  0.00  0.00    +0.000 C 
ATOM      2  C   UNL     1       2.099   8.499  18.596  0.00  0.00    +0.000 C 
ATOM      3  C   UNL     1       2.391   7.107  18.117  0.00  0.00    +0.000 C 
ATOM      4  C   UNL     1       2.659   6.123  19.267  0.00  0.00    +0.000 C 
ATOM      5  C   UNL     1       1.663   6.270  20.421  0.00  0.00    +0.000 C 
ATOM      6  C   UNL     1       1.416   7.711  20.830  0.00  0.00    +0.000 C 
ATOM      7  O   UNL     1       0.978   7.955  21.957  0.00  0.00    +0.000 OA
ENDROOT
BRANCH   4   8
ATOM      8  C   UNL     1       2.819   4.672  18.789  0.00  0.00    +0.000 A 
ATOM      9  C   UNL     1       3.865   4.310  17.907  0.00  0.00    +0.000 A 
ATOM     10 CL   UNL     1       5.033   5.444  17.313  0.00  0.00    +0.000 Cl
ATOM     11  C   UNL     1       4.023   2.991  17.454  0.00  0.00    +0.000 A 
ATOM     12  C   UNL     1       3.147   1.994  17.860  0.00  0.00    +0.000 A 
ATOM     13  C   UNL     1       2.111   2.316  18.725  0.00  0.00    +0.000 A 
ATOM     14  C   UNL     1       1.947   3.630  19.190  0.00  0.00    +0.000 A 
ATOM     15 CL   UNL     1       0.619   3.850  20.281  0.00  0.00    +0.000 Cl
ENDBRANCH   4   8
BRANCH   2  16
ATOM     16  O   UNL     1       2.379   9.465  17.641  0.00  0.00    +0.000 OA
ATOM     17  H   UNL     1       1.858   9.266  16.837  0.00  0.00    +0.000 HD
ENDBRANCH   2  16
BRANCH   1  18
ATOM     18  S   UNL     1       1.459  10.447  20.353  0.00  0.00    +0.000 S 
BRANCH  18  24
ATOM     19  C   UNL     1      -1.881  10.700  18.038  0.00  0.00    +0.000 A 
ATOM     20  C   UNL     1      -1.916  12.047  17.663  0.00  0.00    +0.000 A 
ATOM     21  C   UNL     1      -0.866  12.898  18.012  0.00  0.00    +0.000 A 
ATOM     22  C   UNL     1       0.212  12.421  18.767  0.00  0.00    +0.000 A 
ATOM     23 CL   UNL     1       1.444  13.561  19.185  0.00  0.00    +0.000 Cl
ATOM     24  C   UNL     1       0.254  11.079  19.181  0.00  0.00    +0.000 A 
ATOM     25  C   UNL     1      -0.797  10.229  18.798  0.00  0.00    +0.000 A 
BRANCH  19  26
ATOM     26  C   UNL     1      -3.025   9.780  17.684  0.00  0.00    +0.000 C 
BRANCH  26  29
ATOM     27  C   UNL     1      -6.313  11.661  17.838  0.00  0.00    +0.000 C 
ATOM     28  N   UNL     1      -5.138  10.892  18.154  0.00  0.00    +0.000 N 
ATOM     29  C   UNL     1      -4.242  10.534  17.172  0.00  0.00    +0.000 C 
ATOM     30  O   UNL     1      -4.398  10.799  15.981  0.00  0.00    +0.000 OA
ATOM     31  H   UNL     1      -4.888  10.767  19.125  0.00  0.00    +0.000 HD
ENDBRANCH  26  29
ENDBRANCH  19  26
ENDBRANCH  18  24
ENDBRANCH   1  18
TORSDOF 6
ENDMDL
MODEL 6
REMARK VINA RESULT:      -7.7      2.858      3.877
REMARK  Name = 
REMARK  7 active torsions:
REMARK  status: ('A' for Active; 'I' for Inactive)
REMARK    1  A    between atoms: C_1  and  N_2
REMARK    2  A    between atoms: C_3  and  C_5
REMARK    3  A    between atoms: C_5  and  C_6
REMARK    4  A    between atoms: C_11  and  S_12
REMARK    5  A    between atoms: S_12  and  C_13
REMARK    6  A    between atoms: C_14  and  O_15
REMARK    7  A    between atoms: C_17  and  C_18
REMARK                            x       y       z     vdW  Elec       q    Type
REMARK                         _______ _______ _______ _____ _____    ______ ____
ROOT
ATOM      1  C   UNL     1       1.417  10.001  19.794  0.00  0.00    +0.000 C 
ATOM      2  C   UNL     1       1.701   9.689  18.516  0.00  0.00    +0.000 C 
ATOM      3  C   UNL     1       1.990   8.301  18.022  0.00  0.00    +0.000 C 
ATOM      4  C   UNL     1       2.473   7.359  19.135  0.00  0.00    +0.000 C 
ATOM      5  C   UNL     1       1.652   7.486  20.421  0.00  0.00    +0.000 C 
ATOM      6  C   UNL     1       1.395   8.923  20.838  0.00  0.00    +0.000 C 
ATOM      7  O   UNL     1       1.115   9.172  22.014  0.00  0.00    +0.000 OA
ENDROOT
BRANCH   4   8
ATOM      8  C   UNL     1       2.634   5.907  18.663  0.00  0.00    +0.000 A 
ATOM      9  C   UNL     1       3.547   5.576  17.633  0.00  0.00    +0.000 A 
ATOM     10 CL   UNL     1       4.545   6.753  16.843  0.00  0.00    +0.000 Cl
ATOM     11  C   UNL     1       3.703   4.255  17.183  0.00  0.00    +0.000 A 
ATOM     12  C   UNL     1       2.957   3.226  17.739  0.00  0.00    +0.000 A 
ATOM     13  C   UNL     1       2.054   3.517  18.752  0.00  0.00    +0.000 A 
ATOM     14  C   UNL     1       1.894   4.832  19.214  0.00  0.00    +0.000 A 
ATOM     15 CL   UNL     1       0.744   5.013  20.497  0.00  0.00    +0.000 Cl
ENDBRANCH   4   8
BRANCH   2  16
ATOM     16  O   UNL     1       1.788  10.645  17.514  0.00  0.00    +0.000 OA
ATOM     17  H   UNL     1       2.098  11.483  17.911  0.00  0.00    +0.000 HD
ENDBRANCH   2  16
BRANCH   1  18
ATOM     18  S   UNL     1       1.229  11.646  20.315  0.00  0.00    +0.000 S 
BRANCH  18  24
ATOM     19  C   UNL     1      -2.392  12.010  22.144  0.00  0.00    +0.000 A 
ATOM     20  C   UNL     1      -3.258  12.317  21.091  0.00  0.00    +0.000 A 
ATOM     21  C   UNL     1      -2.791  12.316  19.776  0.00  0.00    +0.000 A 
ATOM     22  C   UNL     1      -1.445  12.042  19.503  0.00  0.00    +0.000 A 
ATOM     23 CL   UNL     1      -0.951  12.104  17.846  0.00  0.00    +0.000 Cl
ATOM     24  C   UNL     1      -0.549  11.760  20.547  0.00  0.00    +0.000 A 
ATOM     25  C   UNL     1      -1.041  11.738  21.862  0.00  0.00    +0.000 A 
BRANCH  19  26
ATOM     26  C   UNL     1      -2.886  12.033  23.571  0.00  0.00    +0.000 C 
BRANCH  26  29
ATOM     27  C   UNL     1      -6.519  13.001  24.059  0.00  0.00    +0.000 C 
ATOM     28  N   UNL     1      -5.292  12.283  23.826  0.00  0.00    +0.000 N 
ATOM     29  C   UNL     1      -4.087  12.946  23.756  0.00  0.00    +0.000 C 
ATOM     30  O   UNL     1      -3.979  14.168  23.840  0.00  0.00    +0.000 OA
ATOM     31  H   UNL     1      -5.303  11.275  23.889  0.00  0.00    +0.000 HD
ENDBRANCH  26  29
ENDBRANCH  19  26
ENDBRANCH  18  24
ENDBRANCH   1  18
TORSDOF 6
ENDMDL
MODEL 7
REMARK VINA RESULT:      -7.7      1.914      2.423
REMARK  Name = 
REMARK  7 active torsions:
REMARK  status: ('A' for Active; 'I' for Inactive)
REMARK    1  A    between atoms: C_1  and  N_2
REMARK    2  A    between atoms: C_3  and  C_5
REMARK    3  A    between atoms: C_5  and  C_6
REMARK    4  A    between atoms: C_11  and  S_12
REMARK    5  A    between atoms: S_12  and  C_13
REMARK    6  A    between atoms: C_14  and  O_15
REMARK    7  A    between atoms: C_17  and  C_18
REMARK                            x       y       z     vdW  Elec       q    Type
REMARK                         _______ _______ _______ _____ _____    ______ ____
ROOT
ATOM      1  C   UNL     1       1.821   8.241  19.536  0.00  0.00    +0.000 C 
ATOM      2  C   UNL     1       2.392   8.679  18.399  0.00  0.00    +0.000 C 
ATOM      3  C   UNL     1       3.270   7.847  17.510  0.00  0.00    +0.000 C 
ATOM      4  C   UNL     1       3.910   6.660  18.246  0.00  0.00    +0.000 C 
ATOM      5  C   UNL     1       2.922   5.915  19.148  0.00  0.00    +0.000 C 
ATOM      6  C   UNL     1       2.066   6.835  20.000  0.00  0.00    +0.000 C 
ATOM      7  O   UNL     1       1.539   6.394  21.025  0.00  0.00    +0.000 OA
ENDROOT
BRANCH   4   8
ATOM      8  C   UNL     1       4.694   5.728  17.311  0.00  0.00    +0.000 A 
ATOM      9  C   UNL     1       6.006   6.056  16.890  0.00  0.00    +0.000 A 
ATOM     10 CL   UNL     1       6.823   7.500  17.393  0.00  0.00    +0.000 Cl
ATOM     11  C   UNL     1       6.735   5.221  16.031  0.00  0.00    +0.000 A 
ATOM     12  C   UNL     1       6.184   4.037  15.560  0.00  0.00    +0.000 A 
ATOM     13  C   UNL     1       4.901   3.685  15.953  0.00  0.00    +0.000 A 
ATOM     14  C   UNL     1       4.165   4.510  16.818  0.00  0.00    +0.000 A 
ATOM     15 CL   UNL     1       2.592   3.908  17.226  0.00  0.00    +0.000 Cl
ENDBRANCH   4   8
BRANCH   2  16
ATOM     16  O   UNL     1       2.248   9.982  17.943  0.00  0.00    +0.000 OA
ATOM     17  H   UNL     1       2.744  10.074  17.105  0.00  0.00    +0.000 HD
ENDBRANCH   2  16
BRANCH   1  18
ATOM     18  S   UNL     1       0.931   9.301  20.582  0.00  0.00    +0.000 S 
BRANCH  18  24
ATOM     19  C   UNL     1      -1.911  10.500  17.922  0.00  0.00    +0.000 A 
ATOM     20  C   UNL     1      -1.701  11.879  17.823  0.00  0.00    +0.000 A 
ATOM     21  C   UNL     1      -0.621  12.472  18.477  0.00  0.00    +0.000 A 
ATOM     22  C   UNL     1       0.242  11.700  19.264  0.00  0.00    +0.000 A 
ATOM     23 CL   UNL     1       1.528  12.532  20.068  0.00  0.00    +0.000 Cl
ATOM     24  C   UNL     1       0.034  10.318  19.403  0.00  0.00    +0.000 A 
ATOM     25  C   UNL     1      -1.042   9.732  18.717  0.00  0.00    +0.000 A 
BRANCH  19  26
ATOM     26  C   UNL     1      -3.092   9.856  17.237  0.00  0.00    +0.000 C 
BRANCH  26  29
ATOM     27  C   UNL     1      -5.926  12.373  17.148  0.00  0.00    +0.000 C 
ATOM     28  N   UNL     1      -4.983  11.357  17.538  0.00  0.00    +0.000 N 
ATOM     29  C   UNL     1      -4.050  10.877  16.646  0.00  0.00    +0.000 C 
ATOM     30  O   UNL     1      -3.985  11.239  15.473  0.00  0.00    +0.000 OA
ATOM     31  H   UNL     1      -4.900  11.125  18.518  0.00  0.00    +0.000 HD
ENDBRANCH  26  29
ENDBRANCH  19  26
ENDBRANCH  18  24
ENDBRANCH   1  18
TORSDOF 6
ENDMDL
MODEL 8
REMARK VINA RESULT:      -7.6      1.578      2.456
REMARK  Name = 
REMARK  7 active torsions:
REMARK  status: ('A' for Active; 'I' for Inactive)
REMARK    1  A    between atoms: C_1  and  N_2
REMARK    2  A    between atoms: C_3  and  C_5
REMARK    3  A    between atoms: C_5  and  C_6
REMARK    4  A    between atoms: C_11  and  S_12
REMARK    5  A    between atoms: S_12  and  C_13
REMARK    6  A    between atoms: C_14  and  O_15
REMARK    7  A    between atoms: C_17  and  C_18
REMARK                            x       y       z     vdW  Elec       q    Type
REMARK                         _______ _______ _______ _____ _____    ______ ____
ROOT
ATOM      1  C   UNL     1       1.589   8.808  19.814  0.00  0.00    +0.000 C 
ATOM      2  C   UNL     1       2.022   8.526  18.572  0.00  0.00    +0.000 C 
ATOM      3  C   UNL     1       2.347   7.147  18.077  0.00  0.00    +0.000 C 
ATOM      4  C   UNL     1       2.675   6.165  19.213  0.00  0.00    +0.000 C 
ATOM      5  C   UNL     1       1.704   6.273  20.392  0.00  0.00    +0.000 C 
ATOM      6  C   UNL     1       1.421   7.703  20.817  0.00  0.00    +0.000 C 
ATOM      7  O   UNL     1       1.004   7.926  21.956  0.00  0.00    +0.000 OA
ENDROOT
BRANCH   4   8
ATOM      8  C   UNL     1       2.869   4.724  18.722  0.00  0.00    +0.000 A 
ATOM      9  C   UNL     1       2.009   3.686  19.157  0.00  0.00    +0.000 A 
ATOM     10 CL   UNL     1       0.687   3.953  20.246  0.00  0.00    +0.000 Cl
ATOM     11  C   UNL     1       2.174   2.361  18.725  0.00  0.00    +0.000 A 
ATOM     12  C   UNL     1       3.200   2.025  17.852  0.00  0.00    +0.000 A 
ATOM     13  C   UNL     1       4.060   3.018  17.405  0.00  0.00    +0.000 A 
ATOM     14  C   UNL     1       3.900   4.348  17.826  0.00  0.00    +0.000 A 
ATOM     15 CL   UNL     1       5.045   5.461  17.154  0.00  0.00    +0.000 Cl
ENDBRANCH   4   8
BRANCH   2  16
ATOM     16  O   UNL     1       2.247   9.506  17.617  0.00  0.00    +0.000 OA
ATOM     17  H   UNL     1       3.144   9.379  17.247  0.00  0.00    +0.000 HD
ENDBRANCH   2  16
BRANCH   1  18
ATOM     18  S   UNL     1       1.365  10.442  20.357  0.00  0.00    +0.000 S 
BRANCH  18  24
ATOM     19  C   UNL     1      -2.001  10.690  18.079  0.00  0.00    +0.000 A 
ATOM     20  C   UNL     1      -2.013  12.025  17.661  0.00  0.00    +0.000 A 
ATOM     21  C   UNL     1      -0.941  12.864  17.968  0.00  0.00    +0.000 A 
ATOM     22  C   UNL     1       0.137  12.389  18.724  0.00  0.00    +0.000 A 
ATOM     23 CL   UNL     1       1.399  13.516  19.088  0.00  0.00    +0.000 Cl
ATOM     24  C   UNL     1       0.157  11.060  19.181  0.00  0.00    +0.000 A 
ATOM     25  C   UNL     1      -0.917  10.221  18.840  0.00  0.00    +0.000 A 
BRANCH  19  26
ATOM     26  C   UNL     1      -3.169   9.784  17.771  0.00  0.00    +0.000 C 
BRANCH  26  29
ATOM     27  C   UNL     1      -6.548  11.480  18.067  0.00  0.00    +0.000 C 
ATOM     28  N   UNL     1      -5.348  10.722  18.313  0.00  0.00    +0.000 N 
ATOM     29  C   UNL     1      -4.402  10.554  17.326  0.00  0.00    +0.000 C 
ATOM     30  O   UNL     1      -4.530  10.987  16.183  0.00  0.00    +0.000 OA
ATOM     31  H   UNL     1      -5.125  10.464  19.265  0.00  0.00    +0.000 HD
ENDBRANCH  26  29
ENDBRANCH  19  26
ENDBRANCH  18  24
ENDBRANCH   1  18
TORSDOF 6
ENDMDL
MODEL 9
REMARK VINA RESULT:      -7.6      1.181      1.222
REMARK  Name = 
REMARK  7 active torsions:
REMARK  status: ('A' for Active; 'I' for Inactive)
REMARK    1  A    between atoms: C_1  and  N_2
REMARK    2  A    between atoms: C_3  and  C_5
REMARK    3  A    between atoms: C_5  and  C_6
REMARK    4  A    between atoms: C_11  and  S_12
REMARK    5  A    between atoms: S_12  and  C_13
REMARK    6  A    between atoms: C_14  and  O_15
REMARK    7  A    between atoms: C_17  and  C_18
REMARK                            x       y       z     vdW  Elec       q    Type
REMARK                         _______ _______ _______ _____ _____    ______ ____
ROOT
ATOM      1  C   UNL     1       1.543   9.303  19.405  0.00  0.00    +0.000 C 
ATOM      2  C   UNL     1       2.055   9.065  18.183  0.00  0.00    +0.000 C 
ATOM      3  C   UNL     1       2.547   7.727  17.713  0.00  0.00    +0.000 C 
ATOM      4  C   UNL     1       2.932   6.791  18.869  0.00  0.00    +0.000 C 
ATOM      5  C   UNL     1       1.908   6.798  20.008  0.00  0.00    +0.000 C 
ATOM      6  C   UNL     1       1.455   8.191  20.409  0.00  0.00    +0.000 C 
ATOM      7  O   UNL     1       0.970   8.372  21.529  0.00  0.00    +0.000 OA
ENDROOT
BRANCH   4   8
ATOM      8  C   UNL     1       3.301   5.377  18.399  0.00  0.00    +0.000 A 
ATOM      9  C   UNL     1       4.598   4.853  18.621  0.00  0.00    +0.000 A 
ATOM     10 CL   UNL     1       5.845   5.739  19.434  0.00  0.00    +0.000 Cl
ATOM     11  C   UNL     1       4.956   3.566  18.192  0.00  0.00    +0.000 A 
ATOM     12  C   UNL     1       4.040   2.762  17.527  0.00  0.00    +0.000 A 
ATOM     13  C   UNL     1       2.760   3.245  17.295  0.00  0.00    +0.000 A 
ATOM     14  C   UNL     1       2.389   4.528  17.724  0.00  0.00    +0.000 A 
ATOM     15 CL   UNL     1       0.749   4.962  17.373  0.00  0.00    +0.000 Cl
ENDBRANCH   4   8
BRANCH   2  16
ATOM     16  O   UNL     1       2.211  10.060  17.229  0.00  0.00    +0.000 OA
ATOM     17  H   UNL     1       1.579   9.893  16.501  0.00  0.00    +0.000 HD
ENDBRANCH   2  16
BRANCH   1  18
ATOM     18  S   UNL     1       1.122  10.905  19.924  0.00  0.00    +0.000 S 
BRANCH  18  24
ATOM     19  C   UNL     1      -2.170  10.269  17.613  0.00  0.00    +0.000 A 
ATOM     20  C   UNL     1      -3.165  11.013  18.254  0.00  0.00    +0.000 A 
ATOM     21  C   UNL     1      -2.844  11.819  19.346  0.00  0.00    +0.000 A 
ATOM     22  C   UNL     1      -1.531  11.865  19.831  0.00  0.00    +0.000 A 
ATOM     23 CL   UNL     1      -1.238  12.861  21.214  0.00  0.00    +0.000 Cl
ATOM     24  C   UNL     1      -0.519  11.103  19.223  0.00  0.00    +0.000 A 
ATOM     25  C   UNL     1      -0.855  10.317  18.108  0.00  0.00    +0.000 A 
BRANCH  19  26
ATOM     26  C   UNL     1      -2.517   9.376  16.446  0.00  0.00    +0.000 C 
BRANCH  26  29
ATOM     27  C   UNL     1      -3.823   9.964  12.936  0.00  0.00    +0.000 C 
ATOM     28  N   UNL     1      -3.293   9.379  14.141  0.00  0.00    +0.000 N 
ATOM     29  C   UNL     1      -3.006  10.159  15.238  0.00  0.00    +0.000 C 
ATOM     30  O   UNL     1      -3.134  11.381  15.255  0.00  0.00    +0.000 OA
ATOM     31  H   UNL     1      -3.299   8.372  14.233  0.00  0.00    +0.000 HD
ENDBRANCH  26  29
ENDBRANCH  19  26
ENDBRANCH  18  24
ENDBRANCH   1  18
TORSDOF 6
ENDMDL
