MODEL 1
REMARK VINA RESULT:      -4.2      0.000      0.000
REMARK  Name = 
REMARK  4 active torsions:
REMARK  status: ('A' for Active; 'I' for Inactive)
REMARK    1  A    between atoms: C_2  and  O_3
REMARK    2  A    between atoms: C_2  and  C_4
REMARK    3  A    between atoms: C_4  and  C_5
REMARK    4  A    between atoms: C_5  and  N_6
REMARK                            x       y       z     vdW  Elec       q    Type
REMARK                         _______ _______ _______ _____ _____    ______ ____
ROOT
ATOM      1  C   UNL     1       6.557   3.705  12.605  0.00  0.00    +0.000 C 
ENDROOT
BRANCH   1   3
ATOM      2  O   UNL     1       4.373   3.340  11.651  0.00  0.00    +0.000 OA
ATOM      3  C   UNL     1       5.481   2.906  11.927  0.00  0.00    +0.000 C 
BRANCH   3   4
ATOM      4  O   UNL     1       5.854   1.643  11.642  0.00  0.00    +0.000 OA
ATOM      5  H   UNL     1       5.135   1.050  11.348  0.00  0.00    +0.000 HD
ENDBRANCH   3   4
ENDBRANCH   1   3
BRANCH   1   6
ATOM      6  C   UNL     1       6.172   3.936  14.057  0.00  0.00    +0.000 C 
BRANCH   6   7
ATOM      7  N   UNL     1       7.219   4.796  14.680  0.00  0.00    +0.000 N 
ATOM      8  O   UNL     1       7.833   5.567  13.933  0.00  0.00    +0.000 OA
ATOM      9  O   UNL     1       7.423   4.645  15.891  0.00  0.00    +0.000 OA
ENDBRANCH   6   7
ENDBRANCH   1   6
TORSDOF 4
ENDMDL
MODEL 2
REMARK VINA RESULT:      -4.2      2.963      4.758
REMARK  Name = 
REMARK  4 active torsions:
REMARK  status: ('A' for Active; 'I' for Inactive)
REMARK    1  A    between atoms: C_2  and  O_3
REMARK    2  A    between atoms: C_2  and  C_4
REMARK    3  A    between atoms: C_4  and  C_5
REMARK    4  A    between atoms: C_5  and  N_6
REMARK                            x       y       z     vdW  Elec       q    Type
REMARK                         _______ _______ _______ _____ _____    ______ ____
ROOT
ATOM      1  C   UNL     1       7.054   5.903  16.960  0.00  0.00    +0.000 C 
ENDROOT
BRANCH   1   3
ATOM      2  O   UNL     1       6.418   4.468  18.790  0.00  0.00    +0.000 OA
ATOM      3  C   UNL     1       7.212   4.746  17.904  0.00  0.00    +0.000 C 
BRANCH   3   4
ATOM      4  O   UNL     1       8.329   4.025  17.682  0.00  0.00    +0.000 OA
ATOM      5  H   UNL     1       9.156   4.421  18.015  0.00  0.00    +0.000 HD
ENDBRANCH   3   4
ENDBRANCH   1   3
BRANCH   1   6
ATOM      6  C   UNL     1       6.075   5.526  15.862  0.00  0.00    +0.000 C 
BRANCH   6   7
ATOM      7  N   UNL     1       6.844   4.875  14.762  0.00  0.00    +0.000 N 
ATOM      8  O   UNL     1       7.823   5.488  14.320  0.00  0.00    +0.000 OA
ATOM      9  O   UNL     1       6.423   3.788  14.347  0.00  0.00    +0.000 OA
ENDBRANCH   6   7
ENDBRANCH   1   6
TORSDOF 4
ENDMDL
MODEL 3
REMARK VINA RESULT:      -4.2      4.096      5.122
REMARK  Name = 
REMARK  4 active torsions:
REMARK  status: ('A' for Active; 'I' for Inactive)
REMARK    1  A    between atoms: C_2  and  O_3
REMARK    2  A    between atoms: C_2  and  C_4
REMARK    3  A    between atoms: C_4  and  C_5
REMARK    4  A    between atoms: C_5  and  N_6
REMARK                            x       y       z     vdW  Elec       q    Type
REMARK                         _______ _______ _______ _____ _____    ______ ____
ROOT
ATOM      1  C   UNL     1       5.707   4.897  16.766  0.00  0.00    +0.000 C 
ENDROOT
BRANCH   1   3
ATOM      2  O   UNL     1       7.562   5.540  15.367  0.00  0.00    +0.000 OA
ATOM      3  C   UNL     1       7.142   4.906  16.323  0.00  0.00    +0.000 C 
BRANCH   3   4
ATOM      4  O   UNL     1       7.942   4.140  17.091  0.00  0.00    +0.000 OA
ATOM      5  H   UNL     1       7.864   4.287  18.053  0.00  0.00    +0.000 HD
ENDBRANCH   3   4
ENDBRANCH   1   3
BRANCH   1   6
ATOM      6  C   UNL     1       5.566   5.726  18.031  0.00  0.00    +0.000 C 
BRANCH   6   7
ATOM      7  N   UNL     1       6.081   4.916  19.173  0.00  0.00    +0.000 N 
ATOM      8  O   UNL     1       5.551   3.815  19.367  0.00  0.00    +0.000 OA
ATOM      9  O   UNL     1       6.974   5.422  19.864  0.00  0.00    +0.000 OA
ENDBRANCH   6   7
ENDBRANCH   1   6
TORSDOF 4
ENDMDL
MODEL 4
REMARK VINA RESULT:      -4.1      4.132      6.038
REMARK  Name = 
REMARK  4 active torsions:
REMARK  status: ('A' for Active; 'I' for Inactive)
REMARK    1  A    between atoms: C_2  and  O_3
REMARK    2  A    between atoms: C_2  and  C_4
REMARK    3  A    between atoms: C_4  and  C_5
REMARK    4  A    between atoms: C_5  and  N_6
REMARK                            x       y       z     vdW  Elec       q    Type
REMARK                         _______ _______ _______ _____ _____    ______ ____
ROOT
ATOM      1  C   UNL     1       7.595   4.827  17.980  0.00  0.00    +0.000 C 
ENDROOT
BRANCH   1   3
ATOM      2  O   UNL     1       8.184   7.054  18.692  0.00  0.00    +0.000 OA
ATOM      3  C   UNL     1       7.887   5.905  18.984  0.00  0.00    +0.000 C 
BRANCH   3   4
ATOM      4  O   UNL     1       7.789   5.486  20.261  0.00  0.00    +0.000 OA
ATOM      5  H   UNL     1       8.119   6.112  20.933  0.00  0.00    +0.000 HD
ENDBRANCH   3   4
ENDBRANCH   1   3
BRANCH   1   6
ATOM      6  C   UNL     1       6.236   5.081  17.350  0.00  0.00    +0.000 C 
BRANCH   6   7
ATOM      7  N   UNL     1       6.456   5.736  16.028  0.00  0.00    +0.000 N 
ATOM      8  O   UNL     1       5.541   6.445  15.592  0.00  0.00    +0.000 OA
ATOM      9  O   UNL     1       7.520   5.489  15.447  0.00  0.00    +0.000 OA
ENDBRANCH   6   7
ENDBRANCH   1   6
TORSDOF 4
ENDMDL
MODEL 5
REMARK VINA RESULT:      -4.1      3.904      4.979
REMARK  Name = 
REMARK  4 active torsions:
REMARK  status: ('A' for Active; 'I' for Inactive)
REMARK    1  A    between atoms: C_2  and  O_3
REMARK    2  A    between atoms: C_2  and  C_4
REMARK    3  A    between atoms: C_4  and  C_5
REMARK    4  A    between atoms: C_5  and  N_6
REMARK                            x       y       z     vdW  Elec       q    Type
REMARK                         _______ _______ _______ _____ _____    ______ ____
ROOT
ATOM      1  C   UNL     1       5.777   4.086  16.230  0.00  0.00    +0.000 C 
ENDROOT
BRANCH   1   3
ATOM      2  O   UNL     1       7.539   5.469  15.338  0.00  0.00    +0.000 OA
ATOM      3  C   UNL     1       7.166   4.655  16.168  0.00  0.00    +0.000 C 
BRANCH   3   4
ATOM      4  O   UNL     1       7.980   4.180  17.132  0.00  0.00    +0.000 OA
ATOM      5  H   UNL     1       7.973   3.210  17.245  0.00  0.00    +0.000 HD
ENDBRANCH   3   4
ENDBRANCH   1   3
BRANCH   1   6
ATOM      6  C   UNL     1       4.981   4.817  17.298  0.00  0.00    +0.000 C 
BRANCH   6   7
ATOM      7  N   UNL     1       4.857   3.913  18.479  0.00  0.00    +0.000 N 
ATOM      8  O   UNL     1       3.817   3.250  18.573  0.00  0.00    +0.000 OA
ATOM      9  O   UNL     1       5.786   3.924  19.296  0.00  0.00    +0.000 OA
ENDBRANCH   6   7
ENDBRANCH   1   6
TORSDOF 4
ENDMDL
MODEL 6
REMARK VINA RESULT:      -4.1      7.349      8.764
REMARK  Name = 
REMARK  4 active torsions:
REMARK  status: ('A' for Active; 'I' for Inactive)
REMARK    1  A    between atoms: C_2  and  O_3
REMARK    2  A    between atoms: C_2  and  C_4
REMARK    3  A    between atoms: C_4  and  C_5
REMARK    4  A    between atoms: C_5  and  N_6
REMARK                            x       y       z     vdW  Elec       q    Type
REMARK                         _______ _______ _______ _____ _____    ______ ____
ROOT
ATOM      1  C   UNL     1       0.922   3.731  20.210  0.00  0.00    +0.000 C 
ENDROOT
BRANCH   1   3
ATOM      2  O   UNL     1       2.279   3.130  22.110  0.00  0.00    +0.000 OA
ATOM      3  C   UNL     1       1.953   3.962  21.277  0.00  0.00    +0.000 C 
BRANCH   3   4
ATOM      4  O   UNL     1       2.500   5.193  21.232  0.00  0.00    +0.000 OA
ATOM      5  H   UNL     1       2.199   5.758  20.495  0.00  0.00    +0.000 HD
ENDBRANCH   3   4
ENDBRANCH   1   3
BRANCH   1   6
ATOM      6  C   UNL     1       1.245   2.444  19.469  0.00  0.00    +0.000 C 
BRANCH   6   7
ATOM      7  N   UNL     1       1.744   2.806  18.111  0.00  0.00    +0.000 N 
ATOM      8  O   UNL     1       1.222   3.783  17.561  0.00  0.00    +0.000 OA
ATOM      9  O   UNL     1       2.617   2.080  17.620  0.00  0.00    +0.000 OA
ENDBRANCH   6   7
ENDBRANCH   1   6
TORSDOF 4
ENDMDL
MODEL 7
REMARK VINA RESULT:      -4.1      3.668      4.822
REMARK  Name = 
REMARK  4 active torsions:
REMARK  status: ('A' for Active; 'I' for Inactive)
REMARK    1  A    between atoms: C_2  and  O_3
REMARK    2  A    between atoms: C_2  and  C_4
REMARK    3  A    between atoms: C_4  and  C_5
REMARK    4  A    between atoms: C_5  and  N_6
REMARK                            x       y       z     vdW  Elec       q    Type
REMARK                         _______ _______ _______ _____ _____    ______ ____
ROOT
ATOM      1  C   UNL     1       5.039   4.062  16.677  0.00  0.00    +0.000 C 
ENDROOT
BRANCH   1   3
ATOM      2  O   UNL     1       3.528   3.914  18.550  0.00  0.00    +0.000 OA
ATOM      3  C   UNL     1       4.668   3.854  18.118  0.00  0.00    +0.000 C 
BRANCH   3   4
ATOM      4  O   UNL     1       5.727   3.586  18.908  0.00  0.00    +0.000 OA
ATOM      5  H   UNL     1       6.053   2.667  18.874  0.00  0.00    +0.000 HD
ENDBRANCH   3   4
ENDBRANCH   1   3
BRANCH   1   6
ATOM      6  C   UNL     1       5.892   5.313  16.553  0.00  0.00    +0.000 C 
BRANCH   6   7
ATOM      7  N   UNL     1       7.248   4.902  16.088  0.00  0.00    +0.000 N 
ATOM      8  O   UNL     1       7.943   4.253  16.880  0.00  0.00    +0.000 OA
ATOM      9  O   UNL     1       7.593   5.274  14.960  0.00  0.00    +0.000 OA
ENDBRANCH   6   7
ENDBRANCH   1   6
TORSDOF 4
ENDMDL
MODEL 8
REMARK VINA RESULT:      -4.1      2.472      3.578
REMARK  Name = 
REMARK  4 active torsions:
REMARK  status: ('A' for Active; 'I' for Inactive)
REMARK    1  A    between atoms: C_2  and  O_3
REMARK    2  A    between atoms: C_2  and  C_4
REMARK    3  A    between atoms: C_4  and  C_5
REMARK    4  A    between atoms: C_5  and  N_6
REMARK                            x       y       z     vdW  Elec       q    Type
REMARK                         _______ _______ _______ _____ _____    ______ ____
ROOT
ATOM      1  C   UNL     1       5.791   5.251  15.768  0.00  0.00    +0.000 C 
ENDROOT
BRANCH   1   3
ATOM      2  O   UNL     1       6.253   3.860  13.854  0.00  0.00    +0.000 OA
ATOM      3  C   UNL     1       6.603   4.758  14.605  0.00  0.00    +0.000 C 
BRANCH   3   4
ATOM      4  O   UNL     1       7.775   5.407  14.459  0.00  0.00    +0.000 OA
ATOM      5  H   UNL     1       8.494   5.112  15.050  0.00  0.00    +0.000 HD
ENDBRANCH   3   4
ENDBRANCH   1   3
BRANCH   1   6
ATOM      6  C   UNL     1       6.722   5.826  16.823  0.00  0.00    +0.000 C 
BRANCH   6   7
ATOM      7  N   UNL     1       7.188   4.702  17.687  0.00  0.00    +0.000 N 
ATOM      8  O   UNL     1       8.266   4.173  17.389  0.00  0.00    +0.000 OA
ATOM      9  O   UNL     1       6.444   4.359  18.614  0.00  0.00    +0.000 OA
ENDBRANCH   6   7
ENDBRANCH   1   6
TORSDOF 4
ENDMDL
MODEL 9
REMARK VINA RESULT:      -4.1      3.232      4.884
REMARK  Name = 
REMARK  4 active torsions:
REMARK  status: ('A' for Active; 'I' for Inactive)
REMARK    1  A    between atoms: C_2  and  O_3
REMARK    2  A    between atoms: C_2  and  C_4
REMARK    3  A    between atoms: C_4  and  C_5
REMARK    4  A    between atoms: C_5  and  N_6
REMARK                            x       y       z     vdW  Elec       q    Type
REMARK                         _______ _______ _______ _____ _____    ______ ____
ROOT
ATOM      1  C   UNL     1       7.151   5.955  17.186  0.00  0.00    +0.000 C 
ENDROOT
BRANCH   1   3
ATOM      2  O   UNL     1       8.537   4.106  17.873  0.00  0.00    +0.000 OA
ATOM      3  C   UNL     1       7.426   4.607  17.789  0.00  0.00    +0.000 C 
BRANCH   3   4
ATOM      4  O   UNL     1       6.318   3.988  18.241  0.00  0.00    +0.000 OA
ATOM      5  H   UNL     1       5.472   4.384  17.958  0.00  0.00    +0.000 HD
ENDBRANCH   3   4
ENDBRANCH   1   3
BRANCH   1   6
ATOM      6  C   UNL     1       6.133   5.806  16.068  0.00  0.00    +0.000 C 
BRANCH   6   7
ATOM      7  N   UNL     1       6.727   4.927  15.019  0.00  0.00    +0.000 N 
ATOM      8  O   UNL     1       6.263   3.785  14.913  0.00  0.00    +0.000 OA
ATOM      9  O   UNL     1       7.664   5.392  14.358  0.00  0.00    +0.000 OA
ENDBRANCH   6   7
ENDBRANCH   1   6
TORSDOF 4
ENDMDL
