MODEL 1
REMARK VINA RESULT:      -8.1      0.000      0.000
REMARK  Name = 
REMARK  8 active torsions:
REMARK  status: ('A' for Active; 'I' for Inactive)
REMARK    1  A    between atoms: C_1  and  O_2
REMARK    2  A    between atoms: O_2  and  C_3
REMARK    3  A    between atoms: C_8  and  O_9
REMARK    4  A    between atoms: O_9  and  C_10
REMARK    5  A    between atoms: C_16  and  O_17
REMARK    6  A    between atoms: O_17  and  C_18
REMARK    7  A    between atoms: C_19  and  O_20
REMARK    8  A    between atoms: O_20  and  C_21
REMARK                            x       y       z     vdW  Elec       q    Type
REMARK                         _______ _______ _______ _____ _____    ______ ____
ROOT
ATOM      1  C   UNL     1       3.733   4.155  18.847  0.00  0.00    +0.000 A 
ATOM      2  C   UNL     1       3.812   5.328  18.081  0.00  0.00    +0.000 A 
ATOM      3  C   UNL     1       3.123   6.492  18.457  0.00  0.00    +0.000 A 
ATOM      4  C   UNL     1       2.282   6.498  19.577  0.00  0.00    +0.000 A 
ATOM      5  C   UNL     1       2.153   5.287  20.282  0.00  0.00    +0.000 A 
ATOM      6  C   UNL     1       2.873   4.126  19.947  0.00  0.00    +0.000 A 
ATOM      7  C   UNL     1       1.605   7.739  20.002  0.00  0.00    +0.000 A 
ATOM      8  C   UNL     1       1.060   7.922  21.274  0.00  0.00    +0.000 A 
ATOM      9  C   UNL     1       0.455   9.124  21.629  0.00  0.00    +0.000 A 
ATOM     10  C   UNL     1      -0.087   9.257  22.901  0.00  0.00    +0.000 A 
ATOM     11  C   UNL     1      -0.698  10.445  23.282  0.00  0.00    +0.000 A 
ATOM     12  C   UNL     1      -0.786  11.525  22.398  0.00  0.00    +0.000 A 
ATOM     13  C   UNL     1      -0.228  11.408  21.105  0.00  0.00    +0.000 A 
ATOM     14  C   UNL     1       0.402  10.184  20.711  0.00  0.00    +0.000 A 
ATOM     15  C   UNL     1       0.967   9.954  19.442  0.00  0.00    +0.000 A 
ATOM     16  N   UNL     1       1.551   8.769  19.109  0.00  0.00    +0.000 N 
ATOM     17  C   UNL     1       2.061   8.593  17.721  0.00  0.00    +0.000 C 
ATOM     18  C   UNL     1       3.346   7.782  17.720  0.00  0.00    +0.000 C 
ENDROOT
BRANCH   1  20
ATOM     19  C   UNL     1       3.731   1.973  17.917  0.00  0.00    +0.000 C 
ATOM     20  O   UNL     1       4.458   3.043  18.523  0.00  0.00    +0.000 OA
ENDBRANCH   1  20
BRANCH   6  21
ATOM     21  O   UNL     1       2.621   3.111  20.831  0.00  0.00    +0.000 OA
ATOM     22  C   UNL     1       1.398   3.087  21.551  0.00  0.00    +0.000 C 
ENDBRANCH   6  21
BRANCH  12  23
ATOM     23  O   UNL     1      -1.340  12.711  22.801  0.00  0.00    +0.000 OA
ATOM     24  C   UNL     1      -2.738  12.702  23.088  0.00  0.00    +0.000 C 
ENDBRANCH  12  23
BRANCH  13  25
ATOM     25  O   UNL     1      -0.218  12.373  20.122  0.00  0.00    +0.000 OA
ATOM     26  C   UNL     1      -1.420  12.636  19.399  0.00  0.00    +0.000 C 
ENDBRANCH  13  25
TORSDOF 4
ENDMDL
MODEL 2
REMARK VINA RESULT:      -7.7      1.000      1.079
REMARK  Name = 
REMARK  8 active torsions:
REMARK  status: ('A' for Active; 'I' for Inactive)
REMARK    1  A    between atoms: C_1  and  O_2
REMARK    2  A    between atoms: O_2  and  C_3
REMARK    3  A    between atoms: C_8  and  O_9
REMARK    4  A    between atoms: O_9  and  C_10
REMARK    5  A    between atoms: C_16  and  O_17
REMARK    6  A    between atoms: O_17  and  C_18
REMARK    7  A    between atoms: C_19  and  O_20
REMARK    8  A    between atoms: O_20  and  C_21
REMARK                            x       y       z     vdW  Elec       q    Type
REMARK                         _______ _______ _______ _____ _____    ______ ____
ROOT
ATOM      1  C   UNL     1       3.357   4.746  19.442  0.00  0.00    +0.000 A 
ATOM      2  C   UNL     1       3.410   5.834  18.557  0.00  0.00    +0.000 A 
ATOM      3  C   UNL     1       2.694   7.015  18.808  0.00  0.00    +0.000 A 
ATOM      4  C   UNL     1       1.853   7.120  19.923  0.00  0.00    +0.000 A 
ATOM      5  C   UNL     1       1.751   5.988  20.752  0.00  0.00    +0.000 A 
ATOM      6  C   UNL     1       2.498   4.815  20.541  0.00  0.00    +0.000 A 
ATOM      7  C   UNL     1       1.147   8.383  20.215  0.00  0.00    +0.000 A 
ATOM      8  C   UNL     1       0.597   8.688  21.461  0.00  0.00    +0.000 A 
ATOM      9  C   UNL     1      -0.036   9.906  21.687  0.00  0.00    +0.000 A 
ATOM     10  C   UNL     1      -0.581  10.162  22.939  0.00  0.00    +0.000 A 
ATOM     11  C   UNL     1      -1.219  11.369  23.194  0.00  0.00    +0.000 A 
ATOM     12  C   UNL     1      -1.331  12.347  22.201  0.00  0.00    +0.000 A 
ATOM     13  C   UNL     1      -0.770  12.106  20.926  0.00  0.00    +0.000 A 
ATOM     14  C   UNL     1      -0.113  10.862  20.662  0.00  0.00    +0.000 A 
ATOM     15  C   UNL     1       0.459  10.512  19.425  0.00  0.00    +0.000 A 
ATOM     16  N   UNL     1       1.070   9.312  19.218  0.00  0.00    +0.000 N 
ATOM     17  C   UNL     1       1.585   9.001  17.855  0.00  0.00    +0.000 C 
ATOM     18  C   UNL     1       2.887   8.224  17.938  0.00  0.00    +0.000 C 
ENDROOT
BRANCH   1  20
ATOM     19  C   UNL     1       4.804   3.552  17.992  0.00  0.00    +0.000 C 
ATOM     20  O   UNL     1       4.108   3.623  19.237  0.00  0.00    +0.000 OA
ENDBRANCH   1  20
BRANCH   6  21
ATOM     21  O   UNL     1       2.269   3.894  21.528  0.00  0.00    +0.000 OA
ATOM     22  C   UNL     1       1.352   2.834  21.307  0.00  0.00    +0.000 C 
ENDBRANCH   6  21
BRANCH  12  23
ATOM     23  O   UNL     1      -1.913  13.556  22.476  0.00  0.00    +0.000 OA
ATOM     24  C   UNL     1      -1.505  14.207  23.678  0.00  0.00    +0.000 C 
ENDBRANCH  12  23
BRANCH  13  25
ATOM     25  O   UNL     1      -0.782  12.961  19.846  0.00  0.00    +0.000 OA
ATOM     26  C   UNL     1       0.115  14.071  19.833  0.00  0.00    +0.000 C 
ENDBRANCH  13  25
TORSDOF 4
ENDMDL
MODEL 3
REMARK VINA RESULT:      -7.5      0.979      1.046
REMARK  Name = 
REMARK  8 active torsions:
REMARK  status: ('A' for Active; 'I' for Inactive)
REMARK    1  A    between atoms: C_1  and  O_2
REMARK    2  A    between atoms: O_2  and  C_3
REMARK    3  A    between atoms: C_8  and  O_9
REMARK    4  A    between atoms: O_9  and  C_10
REMARK    5  A    between atoms: C_16  and  O_17
REMARK    6  A    between atoms: O_17  and  C_18
REMARK    7  A    between atoms: C_19  and  O_20
REMARK    8  A    between atoms: O_20  and  C_21
REMARK                            x       y       z     vdW  Elec       q    Type
REMARK                         _______ _______ _______ _____ _____    ______ ____
ROOT
ATOM      1  C   UNL     1       4.106   5.049  18.626  0.00  0.00    +0.000 A 
ATOM      2  C   UNL     1       3.933   6.218  17.869  0.00  0.00    +0.000 A 
ATOM      3  C   UNL     1       3.080   7.246  18.298  0.00  0.00    +0.000 A 
ATOM      4  C   UNL     1       2.323   7.108  19.469  0.00  0.00    +0.000 A 
ATOM      5  C   UNL     1       2.449   5.894  20.168  0.00  0.00    +0.000 A 
ATOM      6  C   UNL     1       3.335   4.874  19.778  0.00  0.00    +0.000 A 
ATOM      7  C   UNL     1       1.470   8.214  19.947  0.00  0.00    +0.000 A 
ATOM      8  C   UNL     1       0.984   8.302  21.252  0.00  0.00    +0.000 A 
ATOM      9  C   UNL     1       0.204   9.382  21.656  0.00  0.00    +0.000 A 
ATOM     10  C   UNL     1      -0.271   9.422  22.961  0.00  0.00    +0.000 A 
ATOM     11  C   UNL     1      -1.052  10.487  23.391  0.00  0.00    +0.000 A 
ATOM     12  C   UNL     1      -1.379  11.535  22.525  0.00  0.00    +0.000 A 
ATOM     13  C   UNL     1      -0.893  11.515  21.199  0.00  0.00    +0.000 A 
ATOM     14  C   UNL     1      -0.088  10.417  20.754  0.00  0.00    +0.000 A 
ATOM     15  C   UNL     1       0.427  10.286  19.450  0.00  0.00    +0.000 A 
ATOM     16  N   UNL     1       1.184   9.219  19.070  0.00  0.00    +0.000 N 
ATOM     17  C   UNL     1       1.628   9.132  17.650  0.00  0.00    +0.000 C 
ATOM     18  C   UNL     1       3.030   8.554  17.562  0.00  0.00    +0.000 C 
ENDROOT
BRANCH   1  20
ATOM     19  C   UNL     1       6.370   4.446  18.258  0.00  0.00    +0.000 C 
ATOM     20  O   UNL     1       4.990   4.078  18.247  0.00  0.00    +0.000 OA
ENDBRANCH   1  20
BRANCH   6  21
ATOM     21  O   UNL     1       3.318   3.832  20.665  0.00  0.00    +0.000 OA
ATOM     22  C   UNL     1       2.262   2.884  20.623  0.00  0.00    +0.000 C 
ENDBRANCH   6  21
BRANCH  12  23
ATOM     23  O   UNL     1      -2.103  12.608  22.973  0.00  0.00    +0.000 OA
ATOM     24  C   UNL     1      -3.334  12.322  23.637  0.00  0.00    +0.000 C 
ENDBRANCH  12  23
BRANCH  13  25
ATOM     25  O   UNL     1      -1.111  12.465  20.226  0.00  0.00    +0.000 OA
ATOM     26  C   UNL     1      -2.394  12.539  19.606  0.00  0.00    +0.000 C 
ENDBRANCH  13  25
TORSDOF 4
ENDMDL
MODEL 4
REMARK VINA RESULT:      -7.1      1.298      7.804
REMARK  Name = 
REMARK  8 active torsions:
REMARK  status: ('A' for Active; 'I' for Inactive)
REMARK    1  A    between atoms: C_1  and  O_2
REMARK    2  A    between atoms: O_2  and  C_3
REMARK    3  A    between atoms: C_8  and  O_9
REMARK    4  A    between atoms: O_9  and  C_10
REMARK    5  A    between atoms: C_16  and  O_17
REMARK    6  A    between atoms: O_17  and  C_18
REMARK    7  A    between atoms: C_19  and  O_20
REMARK    8  A    between atoms: O_20  and  C_21
REMARK                            x       y       z     vdW  Elec       q    Type
REMARK                         _______ _______ _______ _____ _____    ______ ____
ROOT
ATOM      1  C   UNL     1      -0.083  11.676  20.630  0.00  0.00    +0.000 A 
ATOM      2  C   UNL     1       0.392  11.349  19.351  0.00  0.00    +0.000 A 
ATOM      3  C   UNL     1       0.980  10.103  19.087  0.00  0.00    +0.000 A 
ATOM      4  C   UNL     1       1.169   9.167  20.112  0.00  0.00    +0.000 A 
ATOM      5  C   UNL     1       0.761   9.548  21.404  0.00  0.00    +0.000 A 
ATOM      6  C   UNL     1       0.126  10.773  21.676  0.00  0.00    +0.000 A 
ATOM      7  C   UNL     1       1.735   7.836  19.819  0.00  0.00    +0.000 A 
ATOM      8  C   UNL     1       1.622   6.744  20.682  0.00  0.00    +0.000 A 
ATOM      9  C   UNL     1       2.154   5.504  20.342  0.00  0.00    +0.000 A 
ATOM     10  C   UNL     1       2.030   4.449  21.237  0.00  0.00    +0.000 A 
ATOM     11  C   UNL     1       2.552   3.200  20.926  0.00  0.00    +0.000 A 
ATOM     12  C   UNL     1       3.214   2.978  19.714  0.00  0.00    +0.000 A 
ATOM     13  C   UNL     1       3.336   4.038  18.788  0.00  0.00    +0.000 A 
ATOM     14  C   UNL     1       2.799   5.327  19.109  0.00  0.00    +0.000 A 
ATOM     15  C   UNL     1       2.886   6.455  18.271  0.00  0.00    +0.000 A 
ATOM     16  N   UNL     1       2.365   7.664  18.621  0.00  0.00    +0.000 N 
ATOM     17  C   UNL     1       2.566   8.818  17.701  0.00  0.00    +0.000 C 
ATOM     18  C   UNL     1       1.335   9.709  17.682  0.00  0.00    +0.000 C 
ENDROOT
BRANCH   1  20
ATOM     19  C   UNL     1      -0.904  13.717  19.746  0.00  0.00    +0.000 C 
ATOM     20  O   UNL     1      -0.720  12.860  20.874  0.00  0.00    +0.000 OA
ENDBRANCH   1  20
BRANCH   6  21
ATOM     21  O   UNL     1      -0.232  10.866  22.994  0.00  0.00    +0.000 OA
ATOM     22  C   UNL     1      -1.597  11.032  23.346  0.00  0.00    +0.000 C 
ENDBRANCH   6  21
BRANCH  12  23
ATOM     23  O   UNL     1       3.677   1.730  19.391  0.00  0.00    +0.000 OA
ATOM     24  C   UNL     1       4.845   1.280  20.076  0.00  0.00    +0.000 C 
ENDBRANCH  12  23
BRANCH  13  25
ATOM     25  O   UNL     1       3.944   3.989  17.554  0.00  0.00    +0.000 OA
ATOM     26  C   UNL     1       5.359   4.153  17.472  0.00  0.00    +0.000 C 
ENDBRANCH  13  25
TORSDOF 4
ENDMDL
MODEL 5
REMARK VINA RESULT:      -6.9      1.922      8.546
REMARK  Name = 
REMARK  8 active torsions:
REMARK  status: ('A' for Active; 'I' for Inactive)
REMARK    1  A    between atoms: C_1  and  O_2
REMARK    2  A    between atoms: O_2  and  C_3
REMARK    3  A    between atoms: C_8  and  O_9
REMARK    4  A    between atoms: O_9  and  C_10
REMARK    5  A    between atoms: C_16  and  O_17
REMARK    6  A    between atoms: O_17  and  C_18
REMARK    7  A    between atoms: C_19  and  O_20
REMARK    8  A    between atoms: O_20  and  C_21
REMARK                            x       y       z     vdW  Elec       q    Type
REMARK                         _______ _______ _______ _____ _____    ______ ____
ROOT
ATOM      1  C   UNL     1       0.230  10.981  20.660  0.00  0.00    +0.000 A 
ATOM      2  C   UNL     1       0.413   9.757  21.323  0.00  0.00    +0.000 A 
ATOM      3  C   UNL     1       1.105   8.696  20.720  0.00  0.00    +0.000 A 
ATOM      4  C   UNL     1       1.582   8.805  19.407  0.00  0.00    +0.000 A 
ATOM      5  C   UNL     1       1.314  10.010  18.731  0.00  0.00    +0.000 A 
ATOM      6  C   UNL     1       0.665  11.100  19.338  0.00  0.00    +0.000 A 
ATOM      7  C   UNL     1       2.359   7.709  18.796  0.00  0.00    +0.000 A 
ATOM      8  C   UNL     1       3.161   7.871  17.665  0.00  0.00    +0.000 A 
ATOM      9  C   UNL     1       3.893   6.807  17.147  0.00  0.00    +0.000 A 
ATOM     10  C   UNL     1       4.667   7.010  16.011  0.00  0.00    +0.000 A 
ATOM     11  C   UNL     1       5.407   5.966  15.471  0.00  0.00    +0.000 A 
ATOM     12  C   UNL     1       5.388   4.694  16.052  0.00  0.00    +0.000 A 
ATOM     13  C   UNL     1       4.615   4.476  17.214  0.00  0.00    +0.000 A 
ATOM     14  C   UNL     1       3.850   5.551  17.772  0.00  0.00    +0.000 A 
ATOM     15  C   UNL     1       3.031   5.437  18.911  0.00  0.00    +0.000 A 
ATOM     16  N   UNL     1       2.316   6.488  19.402  0.00  0.00    +0.000 N 
ATOM     17  C   UNL     1       1.422   6.255  20.571  0.00  0.00    +0.000 C 
ATOM     18  C   UNL     1       1.432   7.456  21.501  0.00  0.00    +0.000 C 
ENDROOT
BRANCH   1  20
ATOM     19  C   UNL     1      -1.094  11.743  22.474  0.00  0.00    +0.000 C 
ATOM     20  O   UNL     1      -0.381  12.039  21.272  0.00  0.00    +0.000 OA
ENDBRANCH   1  20
BRANCH   6  21
ATOM     21  O   UNL     1       0.594  12.173  18.490  0.00  0.00    +0.000 OA
ATOM     22  C   UNL     1       1.681  13.082  18.405  0.00  0.00    +0.000 C 
ENDBRANCH   6  21
BRANCH  12  23
ATOM     23  O   UNL     1       6.163   3.685  15.545  0.00  0.00    +0.000 OA
ATOM     24  C   UNL     1       6.436   3.724  14.145  0.00  0.00    +0.000 C 
ENDBRANCH  12  23
BRANCH  13  25
ATOM     25  O   UNL     1       4.492   3.296  17.913  0.00  0.00    +0.000 OA
ATOM     26  C   UNL     1       3.429   2.403  17.584  0.00  0.00    +0.000 C 
ENDBRANCH  13  25
TORSDOF 4
ENDMDL
MODEL 6
REMARK VINA RESULT:      -6.8      1.653      8.359
REMARK  Name = 
REMARK  8 active torsions:
REMARK  status: ('A' for Active; 'I' for Inactive)
REMARK    1  A    between atoms: C_1  and  O_2
REMARK    2  A    between atoms: O_2  and  C_3
REMARK    3  A    between atoms: C_8  and  O_9
REMARK    4  A    between atoms: O_9  and  C_10
REMARK    5  A    between atoms: C_16  and  O_17
REMARK    6  A    between atoms: O_17  and  C_18
REMARK    7  A    between atoms: C_19  and  O_20
REMARK    8  A    between atoms: O_20  and  C_21
REMARK                            x       y       z     vdW  Elec       q    Type
REMARK                         _______ _______ _______ _____ _____    ______ ____
ROOT
ATOM      1  C   UNL     1      -0.941  11.517  20.187  0.00  0.00    +0.000 A 
ATOM      2  C   UNL     1      -0.472  10.613  21.153  0.00  0.00    +0.000 A 
ATOM      3  C   UNL     1       0.414   9.579  20.815  0.00  0.00    +0.000 A 
ATOM      4  C   UNL     1       0.808   9.377  19.485  0.00  0.00    +0.000 A 
ATOM      5  C   UNL     1       0.259  10.243  18.521  0.00  0.00    +0.000 A 
ATOM      6  C   UNL     1      -0.591  11.314  18.850  0.00  0.00    +0.000 A 
ATOM      7  C   UNL     1       1.784   8.325  19.142  0.00  0.00    +0.000 A 
ATOM      8  C   UNL     1       2.490   8.293  17.938  0.00  0.00    +0.000 A 
ATOM      9  C   UNL     1       3.419   7.289  17.678  0.00  0.00    +0.000 A 
ATOM     10  C   UNL     1       4.089   7.288  16.462  0.00  0.00    +0.000 A 
ATOM     11  C   UNL     1       5.020   6.298  16.174  0.00  0.00    +0.000 A 
ATOM     12  C   UNL     1       5.300   5.284  17.096  0.00  0.00    +0.000 A 
ATOM     13  C   UNL     1       4.635   5.279  18.343  0.00  0.00    +0.000 A 
ATOM     14  C   UNL     1       3.675   6.298  18.640  0.00  0.00    +0.000 A 
ATOM     15  C   UNL     1       2.941   6.375  19.839  0.00  0.00    +0.000 A 
ATOM     16  N   UNL     1       2.032   7.361  20.076  0.00  0.00    +0.000 N 
ATOM     17  C   UNL     1       1.253   7.320  21.345  0.00  0.00    +0.000 C 
ATOM     18  C   UNL     1       1.033   8.724  21.883  0.00  0.00    +0.000 C 
ENDROOT
BRANCH   1  20
ATOM     19  C   UNL     1      -2.403  12.473  21.791  0.00  0.00    +0.000 C 
ATOM     20  O   UNL     1      -1.747  12.567  20.525  0.00  0.00    +0.000 OA
ENDBRANCH   1  20
BRANCH   6  21
ATOM     21  O   UNL     1      -0.925  12.043  17.740  0.00  0.00    +0.000 OA
ATOM     22  C   UNL     1      -2.054  11.672  16.964  0.00  0.00    +0.000 C 
ENDBRANCH   6  21
BRANCH  12  23
ATOM     23  O   UNL     1       6.259   4.344  16.827  0.00  0.00    +0.000 OA
ATOM     24  C   UNL     1       7.560   4.581  17.363  0.00  0.00    +0.000 C 
ENDBRANCH  12  23
BRANCH  13  25
ATOM     25  O   UNL     1       4.800   4.366  19.361  0.00  0.00    +0.000 OA
ATOM     26  C   UNL     1       4.241   3.061  19.217  0.00  0.00    +0.000 C 
ENDBRANCH  13  25
TORSDOF 4
ENDMDL
MODEL 7
REMARK VINA RESULT:      -6.8      1.350      1.596
REMARK  Name = 
REMARK  8 active torsions:
REMARK  status: ('A' for Active; 'I' for Inactive)
REMARK    1  A    between atoms: C_1  and  O_2
REMARK    2  A    between atoms: O_2  and  C_3
REMARK    3  A    between atoms: C_8  and  O_9
REMARK    4  A    between atoms: O_9  and  C_10
REMARK    5  A    between atoms: C_16  and  O_17
REMARK    6  A    between atoms: O_17  and  C_18
REMARK    7  A    between atoms: C_19  and  O_20
REMARK    8  A    between atoms: O_20  and  C_21
REMARK                            x       y       z     vdW  Elec       q    Type
REMARK                         _______ _______ _______ _____ _____    ______ ____
ROOT
ATOM      1  C   UNL     1       4.077   3.202  19.673  0.00  0.00    +0.000 A 
ATOM      2  C   UNL     1       4.373   4.197  18.729  0.00  0.00    +0.000 A 
ATOM      3  C   UNL     1       3.742   5.450  18.767  0.00  0.00    +0.000 A 
ATOM      4  C   UNL     1       2.746   5.723  19.714  0.00  0.00    +0.000 A 
ATOM      5  C   UNL     1       2.407   4.682  20.598  0.00  0.00    +0.000 A 
ATOM      6  C   UNL     1       3.064   3.439  20.605  0.00  0.00    +0.000 A 
ATOM      7  C   UNL     1       2.126   7.060  19.787  0.00  0.00    +0.000 A 
ATOM      8  C   UNL     1       1.415   7.519  20.898  0.00  0.00    +0.000 A 
ATOM      9  C   UNL     1       0.872   8.800  20.922  0.00  0.00    +0.000 A 
ATOM     10  C   UNL     1       0.160   9.211  22.041  0.00  0.00    +0.000 A 
ATOM     11  C   UNL     1      -0.394  10.484  22.093  0.00  0.00    +0.000 A 
ATOM     12  C   UNL     1      -0.252  11.374  21.024  0.00  0.00    +0.000 A 
ATOM     13  C   UNL     1       0.480  10.975  19.884  0.00  0.00    +0.000 A 
ATOM     14  C   UNL     1       1.051   9.663  19.828  0.00  0.00    +0.000 A 
ATOM     15  C   UNL     1       1.777   9.157  18.734  0.00  0.00    +0.000 A 
ATOM     16  N   UNL     1       2.297   7.898  18.724  0.00  0.00    +0.000 N 
ATOM     17  C   UNL     1       2.992   7.425  17.494  0.00  0.00    +0.000 C 
ATOM     18  C   UNL     1       4.185   6.556  17.852  0.00  0.00    +0.000 C 
ENDROOT
BRANCH   1  20
ATOM     19  C   UNL     1       5.286   1.601  20.939  0.00  0.00    +0.000 C 
ATOM     20  O   UNL     1       4.742   2.008  19.682  0.00  0.00    +0.000 OA
ENDBRANCH   1  20
BRANCH   6  21
ATOM     21  O   UNL     1       2.593   2.632  21.606  0.00  0.00    +0.000 OA
ATOM     22  C   UNL     1       1.198   2.548  21.851  0.00  0.00    +0.000 C 
ENDBRANCH   6  21
BRANCH  12  23
ATOM     23  O   UNL     1      -0.754  12.646  21.106  0.00  0.00    +0.000 OA
ATOM     24  C   UNL     1      -0.151  13.515  22.064  0.00  0.00    +0.000 C 
ENDBRANCH  12  23
BRANCH  13  25
ATOM     25  O   UNL     1       0.722  11.726  18.755  0.00  0.00    +0.000 OA
ATOM     26  C   UNL     1       1.762  12.703  18.784  0.00  0.00    +0.000 C 
ENDBRANCH  13  25
TORSDOF 4
ENDMDL
MODEL 8
REMARK VINA RESULT:      -6.8      1.426      1.888
REMARK  Name = 
REMARK  8 active torsions:
REMARK  status: ('A' for Active; 'I' for Inactive)
REMARK    1  A    between atoms: C_1  and  O_2
REMARK    2  A    between atoms: O_2  and  C_3
REMARK    3  A    between atoms: C_8  and  O_9
REMARK    4  A    between atoms: O_9  and  C_10
REMARK    5  A    between atoms: C_16  and  O_17
REMARK    6  A    between atoms: O_17  and  C_18
REMARK    7  A    between atoms: C_19  and  O_20
REMARK    8  A    between atoms: O_20  and  C_21
REMARK                            x       y       z     vdW  Elec       q    Type
REMARK                         _______ _______ _______ _____ _____    ______ ____
ROOT
ATOM      1  C   UNL     1       3.144   5.836  19.012  0.00  0.00    +0.000 A 
ATOM      2  C   UNL     1       3.006   6.968  18.194  0.00  0.00    +0.000 A 
ATOM      3  C   UNL     1       2.204   8.054  18.579  0.00  0.00    +0.000 A 
ATOM      4  C   UNL     1       1.464   8.012  19.768  0.00  0.00    +0.000 A 
ATOM      5  C   UNL     1       1.553   6.834  20.531  0.00  0.00    +0.000 A 
ATOM      6  C   UNL     1       2.389   5.758  20.184  0.00  0.00    +0.000 A 
ATOM      7  C   UNL     1       0.667   9.178  20.198  0.00  0.00    +0.000 A 
ATOM      8  C   UNL     1       0.209   9.358  21.504  0.00  0.00    +0.000 A 
ATOM      9  C   UNL     1      -0.517  10.491  21.859  0.00  0.00    +0.000 A 
ATOM     10  C   UNL     1      -0.966  10.622  23.167  0.00  0.00    +0.000 A 
ATOM     11  C   UNL     1      -1.694  11.742  23.550  0.00  0.00    +0.000 A 
ATOM     12  C   UNL     1      -1.994  12.754  22.633  0.00  0.00    +0.000 A 
ATOM     13  C   UNL     1      -1.533  12.640  21.302  0.00  0.00    +0.000 A 
ATOM     14  C   UNL     1      -0.783  11.486  20.906  0.00  0.00    +0.000 A 
ATOM     15  C   UNL     1      -0.298  11.262  19.603  0.00  0.00    +0.000 A 
ATOM     16  N   UNL     1       0.407  10.145  19.270  0.00  0.00    +0.000 N 
ATOM     17  C   UNL     1       0.820   9.961  17.851  0.00  0.00    +0.000 C 
ATOM     18  C   UNL     1       2.195   9.320  17.772  0.00  0.00    +0.000 C 
ENDROOT
BRANCH   1  20
ATOM     19  C   UNL     1       5.283   4.842  19.256  0.00  0.00    +0.000 C 
ATOM     20  O   UNL     1       3.980   4.809  18.673  0.00  0.00    +0.000 OA
ENDBRANCH   1  20
BRANCH   6  21
ATOM     21  O   UNL     1       2.344   4.767  21.128  0.00  0.00    +0.000 OA
ATOM     22  C   UNL     1       1.429   3.692  20.984  0.00  0.00    +0.000 C 
ENDBRANCH   6  21
BRANCH  12  23
ATOM     23  O   UNL     1      -2.664  13.879  23.032  0.00  0.00    +0.000 OA
ATOM     24  C   UNL     1      -2.070  14.644  24.080  0.00  0.00    +0.000 C 
ENDBRANCH  12  23
BRANCH  13  25
ATOM     25  O   UNL     1      -1.729  13.544  20.282  0.00  0.00    +0.000 OA
ATOM     26  C   UNL     1      -0.953  14.741  20.259  0.00  0.00    +0.000 C 
ENDBRANCH  13  25
TORSDOF 4
ENDMDL
MODEL 9
REMARK VINA RESULT:      -6.8      1.511      8.434
REMARK  Name = 
REMARK  8 active torsions:
REMARK  status: ('A' for Active; 'I' for Inactive)
REMARK    1  A    between atoms: C_1  and  O_2
REMARK    2  A    between atoms: O_2  and  C_3
REMARK    3  A    between atoms: C_8  and  O_9
REMARK    4  A    between atoms: O_9  and  C_10
REMARK    5  A    between atoms: C_16  and  O_17
REMARK    6  A    between atoms: O_17  and  C_18
REMARK    7  A    between atoms: C_19  and  O_20
REMARK    8  A    between atoms: O_20  and  C_21
REMARK                            x       y       z     vdW  Elec       q    Type
REMARK                         _______ _______ _______ _____ _____    ______ ____
ROOT
ATOM      1  C   UNL     1      -1.252  13.217  21.119  0.00  0.00    +0.000 A 
ATOM      2  C   UNL     1      -1.162  12.200  22.082  0.00  0.00    +0.000 A 
ATOM      3  C   UNL     1      -0.526  10.981  21.800  0.00  0.00    +0.000 A 
ATOM      4  C   UNL     1      -0.016  10.717  20.523  0.00  0.00    +0.000 A 
ATOM      5  C   UNL     1      -0.191  11.718  19.549  0.00  0.00    +0.000 A 
ATOM      6  C   UNL     1      -0.782  12.963  19.828  0.00  0.00    +0.000 A 
ATOM      7  C   UNL     1       0.703   9.458  20.246  0.00  0.00    +0.000 A 
ATOM      8  C   UNL     1       1.538   9.275  19.142  0.00  0.00    +0.000 A 
ATOM      9  C   UNL     1       2.211   8.073  18.944  0.00  0.00    +0.000 A 
ATOM     10  C   UNL     1       3.021   7.929  17.825  0.00  0.00    +0.000 A 
ATOM     11  C   UNL     1       3.704   6.741  17.601  0.00  0.00    +0.000 A 
ATOM     12  C   UNL     1       3.591   5.667  18.490  0.00  0.00    +0.000 A 
ATOM     13  C   UNL     1       2.781   5.803  19.639  0.00  0.00    +0.000 A 
ATOM     14  C   UNL     1       2.075   7.027  19.871  0.00  0.00    +0.000 A 
ATOM     15  C   UNL     1       1.226   7.260  20.969  0.00  0.00    +0.000 A 
ATOM     16  N   UNL     1       0.569   8.441  21.145  0.00  0.00    +0.000 N 
ATOM     17  C   UNL     1      -0.363   8.571  22.300  0.00  0.00    +0.000 C 
ATOM     18  C   UNL     1      -0.296   9.971  22.887  0.00  0.00    +0.000 C 
ENDROOT
BRANCH   1  20
ATOM     19  C   UNL     1      -1.012  15.307  22.213  0.00  0.00    +0.000 C 
ATOM     20  O   UNL     1      -1.807  14.430  21.413  0.00  0.00    +0.000 OA
ENDBRANCH   1  20
BRANCH   6  21
ATOM     21  O   UNL     1      -0.767  13.780  18.730  0.00  0.00    +0.000 OA
ATOM     22  C   UNL     1       0.162  14.850  18.656  0.00  0.00    +0.000 C 
ENDBRANCH   6  21
BRANCH  12  23
ATOM     23  O   UNL     1       4.311   4.519  18.291  0.00  0.00    +0.000 OA
ATOM     24  C   UNL     1       3.874   3.660  17.239  0.00  0.00    +0.000 C 
ENDBRANCH  12  23
BRANCH  13  25
ATOM     25  O   UNL     1       2.568   4.855  20.615  0.00  0.00    +0.000 OA
ATOM     26  C   UNL     1       1.653   3.791  20.358  0.00  0.00    +0.000 C 
ENDBRANCH  13  25
TORSDOF 4
ENDMDL
