MODEL 1
REMARK VINA RESULT:      -6.7      0.000      0.000
REMARK  Name = 
REMARK  5 active torsions:
REMARK  status: ('A' for Active; 'I' for Inactive)
REMARK    1  A    between atoms: C_1  and  C_2
REMARK    2  A    between atoms: C_2  and  C_3
REMARK    3  A    between atoms: C_2  and  C_4
REMARK    4  A    between atoms: C_4  and  N_5
REMARK    5  A    between atoms: N_16  and  C_17
REMARK                            x       y       z     vdW  Elec       q    Type
REMARK                         _______ _______ _______ _____ _____    ______ ____
ROOT
ATOM      1  N   UNL     1       4.884   4.256  18.148  0.00  0.00    +0.000 N 
ATOM      2  C   UNL     1       4.748   3.903  16.801  0.00  0.00    +0.000 A 
ATOM      3  O   UNL     1       3.861   3.193  16.344  0.00  0.00    +0.000 OA
ATOM      4  C   UNL     1       5.767   4.463  15.984  0.00  0.00    +0.000 A 
ATOM      5  C   UNL     1       6.747   5.296  16.449  0.00  0.00    +0.000 A 
ATOM      6  N   UNL     1       7.588   5.727  15.454  0.00  0.00    +0.000 NA
ATOM      7  C   UNL     1       7.119   5.119  14.395  0.00  0.00    +0.000 A 
ATOM      8  N   UNL     1       6.034   4.348  14.664  0.00  0.00    +0.000 N 
ATOM      9  C   UNL     1       5.438   3.618  13.572  0.00  0.00    +0.000 C 
ATOM     10  C   UNL     1       6.476   3.609  12.443  0.00  0.00    +0.000 C 
ATOM     11  S   UNL     1       7.617   5.025  12.757  0.00  0.00    +0.000 S 
ATOM     12  N   UNL     1       6.837   5.600  17.784  0.00  0.00    +0.000 N 
ATOM     13  C   UNL     1       7.836   6.513  18.299  0.00  0.00    +0.000 C 
ATOM     14  C   UNL     1       5.954   5.002  18.687  0.00  0.00    +0.000 A 
ATOM     15  O   UNL     1       6.103   5.136  19.905  0.00  0.00    +0.000 OA
ENDROOT
BRANCH   1  16
ATOM     16  C   UNL     1       3.878   3.762  19.090  0.00  0.00    +0.000 C 
BRANCH  16  18
ATOM     17  C   UNL     1       1.396   3.882  18.531  0.00  0.00    +0.000 C 
ATOM     18  C   UNL     1       2.593   4.620  19.128  0.00  0.00    +0.000 C 
ATOM     19  C   UNL     1       2.282   5.056  20.562  0.00  0.00    +0.000 C 
ENDBRANCH  16  18
ENDBRANCH   1  16
TORSDOF 2
ENDMDL
MODEL 2
REMARK VINA RESULT:      -6.3      2.685      5.322
REMARK  Name = 
REMARK  5 active torsions:
REMARK  status: ('A' for Active; 'I' for Inactive)
REMARK    1  A    between atoms: C_1  and  C_2
REMARK    2  A    between atoms: C_2  and  C_3
REMARK    3  A    between atoms: C_2  and  C_4
REMARK    4  A    between atoms: C_4  and  N_5
REMARK    5  A    between atoms: N_16  and  C_17
REMARK                            x       y       z     vdW  Elec       q    Type
REMARK                         _______ _______ _______ _____ _____    ______ ____
ROOT
ATOM      1  N   UNL     1       5.901   5.123  15.871  0.00  0.00    +0.000 N 
ATOM      2  C   UNL     1       4.838   4.277  16.206  0.00  0.00    +0.000 A 
ATOM      3  O   UNL     1       4.023   3.821  15.414  0.00  0.00    +0.000 OA
ATOM      4  C   UNL     1       4.791   3.983  17.596  0.00  0.00    +0.000 A 
ATOM      5  C   UNL     1       5.709   4.436  18.503  0.00  0.00    +0.000 A 
ATOM      6  N   UNL     1       5.460   3.984  19.775  0.00  0.00    +0.000 NA
ATOM      7  C   UNL     1       4.366   3.282  19.624  0.00  0.00    +0.000 A 
ATOM      8  N   UNL     1       3.927   3.257  18.339  0.00  0.00    +0.000 N 
ATOM      9  C   UNL     1       2.719   2.521  18.054  0.00  0.00    +0.000 C 
ATOM     10  C   UNL     1       2.027   2.291  19.402  0.00  0.00    +0.000 C 
ATOM     11  S   UNL     1       3.328   2.447  20.702  0.00  0.00    +0.000 S 
ATOM     12  N   UNL     1       6.725   5.274  18.118  0.00  0.00    +0.000 N 
ATOM     13  C   UNL     1       7.737   5.733  19.048  0.00  0.00    +0.000 C 
ATOM     14  C   UNL     1       6.787   5.717  16.795  0.00  0.00    +0.000 A 
ATOM     15  O   UNL     1       7.595   6.585  16.452  0.00  0.00    +0.000 OA
ENDROOT
BRANCH   1  16
ATOM     16  C   UNL     1       6.073   5.480  14.461  0.00  0.00    +0.000 C 
BRANCH  16  18
ATOM     17  C   UNL     1       6.206   3.574  12.776  0.00  0.00    +0.000 C 
ATOM     18  C   UNL     1       6.997   4.511  13.688  0.00  0.00    +0.000 C 
ATOM     19  C   UNL     1       8.030   5.293  12.873  0.00  0.00    +0.000 C 
ENDBRANCH  16  18
ENDBRANCH   1  16
TORSDOF 2
ENDMDL
MODEL 3
REMARK VINA RESULT:      -6.3      0.787      1.280
REMARK  Name = 
REMARK  5 active torsions:
REMARK  status: ('A' for Active; 'I' for Inactive)
REMARK    1  A    between atoms: C_1  and  C_2
REMARK    2  A    between atoms: C_2  and  C_3
REMARK    3  A    between atoms: C_2  and  C_4
REMARK    4  A    between atoms: C_4  and  N_5
REMARK    5  A    between atoms: N_16  and  C_17
REMARK                            x       y       z     vdW  Elec       q    Type
REMARK                         _______ _______ _______ _____ _____    ______ ____
ROOT
ATOM      1  N   UNL     1       4.673   4.449  18.128  0.00  0.00    +0.000 N 
ATOM      2  C   UNL     1       4.529   4.104  16.780  0.00  0.00    +0.000 A 
ATOM      3  O   UNL     1       3.581   3.492  16.306  0.00  0.00    +0.000 OA
ATOM      4  C   UNL     1       5.621   4.545  15.984  0.00  0.00    +0.000 A 
ATOM      5  C   UNL     1       6.676   5.269  16.468  0.00  0.00    +0.000 A 
ATOM      6  N   UNL     1       7.580   5.600  15.491  0.00  0.00    +0.000 NA
ATOM      7  C   UNL     1       7.072   5.040  14.423  0.00  0.00    +0.000 A 
ATOM      8  N   UNL     1       5.903   4.394  14.671  0.00  0.00    +0.000 N 
ATOM      9  C   UNL     1       5.255   3.727  13.568  0.00  0.00    +0.000 C 
ATOM     10  C   UNL     1       6.311   3.597  12.463  0.00  0.00    +0.000 C 
ATOM     11  S   UNL     1       7.592   4.882  12.798  0.00  0.00    +0.000 S 
ATOM     12  N   UNL     1       6.769   5.569  17.804  0.00  0.00    +0.000 N 
ATOM     13  C   UNL     1       7.850   6.372  18.337  0.00  0.00    +0.000 C 
ATOM     14  C   UNL     1       5.806   5.077  18.688  0.00  0.00    +0.000 A 
ATOM     15  O   UNL     1       5.942   5.201  19.909  0.00  0.00    +0.000 OA
ENDROOT
BRANCH   1  16
ATOM     16  C   UNL     1       3.598   4.073  19.049  0.00  0.00    +0.000 C 
BRANCH  16  18
ATOM     17  C   UNL     1       4.405   2.059  20.383  0.00  0.00    +0.000 C 
ATOM     18  C   UNL     1       3.481   2.547  19.269  0.00  0.00    +0.000 C 
ATOM     19  C   UNL     1       2.032   2.161  19.578  0.00  0.00    +0.000 C 
ENDBRANCH  16  18
ENDBRANCH   1  16
TORSDOF 2
ENDMDL
MODEL 4
REMARK VINA RESULT:      -6.0      4.038      5.823
REMARK  Name = 
REMARK  5 active torsions:
REMARK  status: ('A' for Active; 'I' for Inactive)
REMARK    1  A    between atoms: C_1  and  C_2
REMARK    2  A    between atoms: C_2  and  C_3
REMARK    3  A    between atoms: C_2  and  C_4
REMARK    4  A    between atoms: C_4  and  N_5
REMARK    5  A    between atoms: N_16  and  C_17
REMARK                            x       y       z     vdW  Elec       q    Type
REMARK                         _______ _______ _______ _____ _____    ______ ____
ROOT
ATOM      1  N   UNL     1       3.083   5.103  19.378  0.00  0.00    +0.000 N 
ATOM      2  C   UNL     1       2.300   6.132  19.910  0.00  0.00    +0.000 A 
ATOM      3  O   UNL     1       1.628   6.052  20.931  0.00  0.00    +0.000 OA
ATOM      4  C   UNL     1       2.357   7.320  19.132  0.00  0.00    +0.000 A 
ATOM      5  C   UNL     1       3.129   7.463  18.013  0.00  0.00    +0.000 A 
ATOM      6  N   UNL     1       3.035   8.717  17.464  0.00  0.00    +0.000 NA
ATOM      7  C   UNL     1       2.173   9.313  18.249  0.00  0.00    +0.000 A 
ATOM      8  N   UNL     1       1.738   8.515  19.257  0.00  0.00    +0.000 N 
ATOM      9  C   UNL     1       0.774   9.062  20.181  0.00  0.00    +0.000 C 
ATOM     10  C   UNL     1       0.193  10.311  19.507  0.00  0.00    +0.000 C 
ATOM     11  S   UNL     1       1.422  10.853  18.241  0.00  0.00    +0.000 S 
ATOM     12  N   UNL     1       3.871   6.414  17.530  0.00  0.00    +0.000 N 
ATOM     13  C   UNL     1       4.731   6.549  16.373  0.00  0.00    +0.000 C 
ATOM     14  C   UNL     1       3.787   5.168  18.156  0.00  0.00    +0.000 A 
ATOM     15  O   UNL     1       4.320   4.171  17.660  0.00  0.00    +0.000 OA
ENDROOT
BRANCH   1  16
ATOM     16  C   UNL     1       3.128   3.831  20.104  0.00  0.00    +0.000 C 
BRANCH  16  18
ATOM     17  C   UNL     1       1.685   1.977  19.121  0.00  0.00    +0.000 C 
ATOM     18  C   UNL     1       1.767   3.101  20.153  0.00  0.00    +0.000 C 
ATOM     19  C   UNL     1       1.507   2.548  21.557  0.00  0.00    +0.000 C 
ENDBRANCH  16  18
ENDBRANCH   1  16
TORSDOF 2
ENDMDL
MODEL 5
REMARK VINA RESULT:      -6.0      2.490      3.399
REMARK  Name = 
REMARK  5 active torsions:
REMARK  status: ('A' for Active; 'I' for Inactive)
REMARK    1  A    between atoms: C_1  and  C_2
REMARK    2  A    between atoms: C_2  and  C_3
REMARK    3  A    between atoms: C_2  and  C_4
REMARK    4  A    between atoms: C_4  and  N_5
REMARK    5  A    between atoms: N_16  and  C_17
REMARK                            x       y       z     vdW  Elec       q    Type
REMARK                         _______ _______ _______ _____ _____    ______ ____
ROOT
ATOM      1  N   UNL     1       2.929   5.407  19.934  0.00  0.00    +0.000 N 
ATOM      2  C   UNL     1       3.897   4.671  19.243  0.00  0.00    +0.000 A 
ATOM      3  O   UNL     1       4.337   3.583  19.590  0.00  0.00    +0.000 OA
ATOM      4  C   UNL     1       4.338   5.324  18.060  0.00  0.00    +0.000 A 
ATOM      5  C   UNL     1       3.839   6.518  17.616  0.00  0.00    +0.000 A 
ATOM      6  N   UNL     1       4.406   6.918  16.432  0.00  0.00    +0.000 NA
ATOM      7  C   UNL     1       5.271   5.967  16.189  0.00  0.00    +0.000 A 
ATOM      8  N   UNL     1       5.269   4.995  17.138  0.00  0.00    +0.000 N 
ATOM      9  C   UNL     1       6.193   3.898  16.981  0.00  0.00    +0.000 C 
ATOM     10  C   UNL     1       7.234   4.356  15.952  0.00  0.00    +0.000 C 
ATOM     11  S   UNL     1       6.455   5.715  14.976  0.00  0.00    +0.000 S 
ATOM     12  N   UNL     1       2.896   7.201  18.342  0.00  0.00    +0.000 N 
ATOM     13  C   UNL     1       2.317   8.443  17.875  0.00  0.00    +0.000 C 
ATOM     14  C   UNL     1       2.486   6.700  19.580  0.00  0.00    +0.000 A 
ATOM     15  O   UNL     1       1.757   7.362  20.324  0.00  0.00    +0.000 OA
ENDROOT
BRANCH   1  16
ATOM     16  C   UNL     1       2.374   4.827  21.160  0.00  0.00    +0.000 C 
BRANCH  16  18
ATOM     17  C   UNL     1       0.960   3.631  19.412  0.00  0.00    +0.000 C 
ATOM     18  C   UNL     1       1.215   3.837  20.905  0.00  0.00    +0.000 C 
ATOM     19  C   UNL     1       1.499   2.494  21.581  0.00  0.00    +0.000 C 
ENDBRANCH  16  18
ENDBRANCH   1  16
TORSDOF 2
ENDMDL
MODEL 6
REMARK VINA RESULT:      -6.0      2.648      5.454
REMARK  Name = 
REMARK  5 active torsions:
REMARK  status: ('A' for Active; 'I' for Inactive)
REMARK    1  A    between atoms: C_1  and  C_2
REMARK    2  A    between atoms: C_2  and  C_3
REMARK    3  A    between atoms: C_2  and  C_4
REMARK    4  A    between atoms: C_4  and  N_5
REMARK    5  A    between atoms: N_16  and  C_17
REMARK                            x       y       z     vdW  Elec       q    Type
REMARK                         _______ _______ _______ _____ _____    ______ ____
ROOT
ATOM      1  N   UNL     1       6.630   5.302  17.824  0.00  0.00    +0.000 N 
ATOM      2  C   UNL     1       5.655   5.060  18.799  0.00  0.00    +0.000 A 
ATOM      3  O   UNL     1       5.699   5.462  19.955  0.00  0.00    +0.000 OA
ATOM      4  C   UNL     1       4.574   4.280  18.308  0.00  0.00    +0.000 A 
ATOM      5  C   UNL     1       4.467   3.851  17.014  0.00  0.00    +0.000 A 
ATOM      6  N   UNL     1       3.312   3.145  16.786  0.00  0.00    +0.000 NA
ATOM      7  C   UNL     1       2.745   3.130  17.965  0.00  0.00    +0.000 A 
ATOM      8  N   UNL     1       3.465   3.792  18.907  0.00  0.00    +0.000 N 
ATOM      9  C   UNL     1       2.941   3.832  20.251  0.00  0.00    +0.000 C 
ATOM     10  C   UNL     1       1.870   2.736  20.328  0.00  0.00    +0.000 C 
ATOM     11  S   UNL     1       1.329   2.398  18.596  0.00  0.00    +0.000 S 
ATOM     12  N   UNL     1       5.461   4.109  16.103  0.00  0.00    +0.000 N 
ATOM     13  C   UNL     1       5.355   3.705  14.716  0.00  0.00    +0.000 C 
ATOM     14  C   UNL     1       6.622   4.765  16.519  0.00  0.00    +0.000 A 
ATOM     15  O   UNL     1       7.593   4.878  15.765  0.00  0.00    +0.000 OA
ENDROOT
BRANCH   1  16
ATOM     16  C   UNL     1       7.786   6.118  18.200  0.00  0.00    +0.000 C 
BRANCH  16  18
ATOM     17  C   UNL     1       6.337   8.026  17.338  0.00  0.00    +0.000 C 
ATOM     18  C   UNL     1       7.763   7.538  17.591  0.00  0.00    +0.000 C 
ATOM     19  C   UNL     1       8.504   8.522  18.498  0.00  0.00    +0.000 C 
ENDBRANCH  16  18
ENDBRANCH   1  16
TORSDOF 2
ENDMDL
MODEL 7
REMARK VINA RESULT:      -5.9      3.874      6.190
REMARK  Name = 
REMARK  5 active torsions:
REMARK  status: ('A' for Active; 'I' for Inactive)
REMARK    1  A    between atoms: C_1  and  C_2
REMARK    2  A    between atoms: C_2  and  C_3
REMARK    3  A    between atoms: C_2  and  C_4
REMARK    4  A    between atoms: C_4  and  N_5
REMARK    5  A    between atoms: N_16  and  C_17
REMARK                            x       y       z     vdW  Elec       q    Type
REMARK                         _______ _______ _______ _____ _____    ______ ____
ROOT
ATOM      1  N   UNL     1       4.200   5.081  18.006  0.00  0.00    +0.000 N 
ATOM      2  C   UNL     1       3.740   6.350  17.637  0.00  0.00    +0.000 A 
ATOM      3  O   UNL     1       4.036   6.934  16.602  0.00  0.00    +0.000 OA
ATOM      4  C   UNL     1       2.869   6.919  18.606  0.00  0.00    +0.000 A 
ATOM      5  C   UNL     1       2.480   6.280  19.751  0.00  0.00    +0.000 A 
ATOM      6  N   UNL     1       1.608   7.029  20.501  0.00  0.00    +0.000 NA
ATOM      7  C   UNL     1       1.504   8.134  19.808  0.00  0.00    +0.000 A 
ATOM      8  N   UNL     1       2.244   8.115  18.669  0.00  0.00    +0.000 N 
ATOM      9  C   UNL     1       2.216   9.288  17.829  0.00  0.00    +0.000 C 
ATOM     10  C   UNL     1       1.646  10.421  18.690  0.00  0.00    +0.000 C 
ATOM     11  S   UNL     1       0.697   9.625  20.057  0.00  0.00    +0.000 S 
ATOM     12  N   UNL     1       2.972   5.039  20.067  0.00  0.00    +0.000 N 
ATOM     13  C   UNL     1       2.544   4.320  21.249  0.00  0.00    +0.000 C 
ATOM     14  C   UNL     1       3.928   4.447  19.238  0.00  0.00    +0.000 A 
ATOM     15  O   UNL     1       4.500   3.405  19.570  0.00  0.00    +0.000 OA
ENDROOT
BRANCH   1  16
ATOM     16  C   UNL     1       5.087   4.378  17.078  0.00  0.00    +0.000 C 
BRANCH  16  18
ATOM     17  C   UNL     1       7.468   4.691  17.928  0.00  0.00    +0.000 C 
ATOM     18  C   UNL     1       6.444   5.087  16.864  0.00  0.00    +0.000 C 
ATOM     19  C   UNL     1       6.991   4.787  15.467  0.00  0.00    +0.000 C 
ENDBRANCH  16  18
ENDBRANCH   1  16
TORSDOF 2
ENDMDL
MODEL 8
REMARK VINA RESULT:      -5.9      3.615      6.268
REMARK  Name = 
REMARK  5 active torsions:
REMARK  status: ('A' for Active; 'I' for Inactive)
REMARK    1  A    between atoms: C_1  and  C_2
REMARK    2  A    between atoms: C_2  and  C_3
REMARK    3  A    between atoms: C_2  and  C_4
REMARK    4  A    between atoms: C_4  and  N_5
REMARK    5  A    between atoms: N_16  and  C_17
REMARK                            x       y       z     vdW  Elec       q    Type
REMARK                         _______ _______ _______ _____ _____    ______ ____
ROOT
ATOM      1  N   UNL     1       4.338   4.524  18.013  0.00  0.00    +0.000 N 
ATOM      2  C   UNL     1       3.766   5.797  17.917  0.00  0.00    +0.000 A 
ATOM      3  O   UNL     1       3.954   6.587  17.000  0.00  0.00    +0.000 OA
ATOM      4  C   UNL     1       2.918   6.099  19.016  0.00  0.00    +0.000 A 
ATOM      5  C   UNL     1       2.649   5.228  20.035  0.00  0.00    +0.000 A 
ATOM      6  N   UNL     1       1.773   5.747  20.955  0.00  0.00    +0.000 NA
ATOM      7  C   UNL     1       1.547   6.950  20.493  0.00  0.00    +0.000 A 
ATOM      8  N   UNL     1       2.214   7.207  19.338  0.00  0.00    +0.000 N 
ATOM      9  C   UNL     1       2.050   8.510  18.741  0.00  0.00    +0.000 C 
ATOM     10  C   UNL     1       1.454   9.410  19.829  0.00  0.00    +0.000 C 
ATOM     11  S   UNL     1       0.652   8.296  21.062  0.00  0.00    +0.000 S 
ATOM     12  N   UNL     1       3.248   3.994  20.083  0.00  0.00    +0.000 N 
ATOM     13  C   UNL     1       2.948   3.034  21.124  0.00  0.00    +0.000 C 
ATOM     14  C   UNL     1       4.190   3.649  19.111  0.00  0.00    +0.000 A 
ATOM     15  O   UNL     1       4.855   2.614  19.210  0.00  0.00    +0.000 OA
ENDROOT
BRANCH   1  16
ATOM     16  C   UNL     1       5.214   4.083  16.925  0.00  0.00    +0.000 C 
BRANCH  16  18
ATOM     17  C   UNL     1       7.564   4.607  17.755  0.00  0.00    +0.000 C 
ATOM     18  C   UNL     1       6.471   4.966  16.749  0.00  0.00    +0.000 C 
ATOM     19  C   UNL     1       7.009   4.851  15.321  0.00  0.00    +0.000 C 
ENDBRANCH  16  18
ENDBRANCH   1  16
TORSDOF 2
ENDMDL
MODEL 9
REMARK VINA RESULT:      -5.7      3.528      5.462
REMARK  Name = 
REMARK  5 active torsions:
REMARK  status: ('A' for Active; 'I' for Inactive)
REMARK    1  A    between atoms: C_1  and  C_2
REMARK    2  A    between atoms: C_2  and  C_3
REMARK    3  A    between atoms: C_2  and  C_4
REMARK    4  A    between atoms: C_4  and  N_5
REMARK    5  A    between atoms: N_16  and  C_17
REMARK                            x       y       z     vdW  Elec       q    Type
REMARK                         _______ _______ _______ _____ _____    ______ ____
ROOT
ATOM      1  N   UNL     1       3.337   4.354  19.440  0.00  0.00    +0.000 N 
ATOM      2  C   UNL     1       2.656   5.459  19.963  0.00  0.00    +0.000 A 
ATOM      3  O   UNL     1       2.068   5.481  21.036  0.00  0.00    +0.000 OA
ATOM      4  C   UNL     1       2.714   6.591  19.106  0.00  0.00    +0.000 A 
ATOM      5  C   UNL     1       3.398   6.619  17.922  0.00  0.00    +0.000 A 
ATOM      6  N   UNL     1       3.326   7.840  17.300  0.00  0.00    +0.000 NA
ATOM      7  C   UNL     1       2.566   8.533  18.109  0.00  0.00    +0.000 A 
ATOM      8  N   UNL     1       2.172   7.825  19.200  0.00  0.00    +0.000 N 
ATOM      9  C   UNL     1       1.318   8.485  20.158  0.00  0.00    +0.000 C 
ATOM     10  C   UNL     1       0.752   9.722  19.451  0.00  0.00    +0.000 C 
ATOM     11  S   UNL     1       1.900  10.111  18.059  0.00  0.00    +0.000 S 
ATOM     12  N   UNL     1       4.039   5.500  17.453  0.00  0.00    +0.000 N 
ATOM     13  C   UNL     1       4.808   5.512  16.226  0.00  0.00    +0.000 C 
ATOM     14  C   UNL     1       3.940   4.302  18.165  0.00  0.00    +0.000 A 
ATOM     15  O   UNL     1       4.376   3.246  17.696  0.00  0.00    +0.000 OA
ENDROOT
BRANCH   1  16
ATOM     16  C   UNL     1       3.373   3.129  20.243  0.00  0.00    +0.000 C 
BRANCH  16  18
ATOM     17  C   UNL     1       1.267   2.519  21.538  0.00  0.00    +0.000 C 
ATOM     18  C   UNL     1       2.041   2.345  20.232  0.00  0.00    +0.000 C 
ATOM     19  C   UNL     1       1.176   2.776  19.045  0.00  0.00    +0.000 C 
ENDBRANCH  16  18
ENDBRANCH   1  16
TORSDOF 2
ENDMDL
