MODEL 1
REMARK VINA RESULT:      -7.4      0.000      0.000
REMARK  Name = 
REMARK  4 active torsions:
REMARK  status: ('A' for Active; 'I' for Inactive)
REMARK    1  A    between atoms: C_1  and  C_2
REMARK    2  A    between atoms: C_8  and  C_10
REMARK    3  A    between atoms: C_10  and  S_11
REMARK    4  A    between atoms: S_11  and  C_12
REMARK                            x       y       z     vdW  Elec       q    Type
REMARK                         _______ _______ _______ _____ _____    ______ ____
ROOT
ATOM      1  C   UNL     1       5.503   3.338  12.531  0.00  0.00    +0.000 C 
ATOM      2  C   UNL     1       6.551   4.247  13.041  0.00  0.00    +0.000 A 
ATOM      3  N   UNL     1       7.421   4.791  12.185  0.00  0.00    +0.000 NA
ATOM      4  O   UNL     1       8.247   5.580  12.966  0.00  0.00    +0.000 OA
ATOM      5  N   UNL     1       7.883   5.516  14.297  0.00  0.00    +0.000 NA
ATOM      6  C   UNL     1       6.836   4.693  14.358  0.00  0.00    +0.000 A 
ATOM      7  N   UNL     1       6.169   4.340  15.521  0.00  0.00    +0.000 N 
ATOM      8  C   UNL     1       6.529   4.777  16.783  0.00  0.00    +0.000 C 
ATOM      9  O   UNL     1       7.406   5.604  17.034  0.00  0.00    +0.000 OA
ATOM     10  H   UNL     1       5.429   3.652  15.453  0.00  0.00    +0.000 HD
ENDROOT
BRANCH   8  11
ATOM     11  C   UNL     1       5.695   4.219  17.934  0.00  0.00    +0.000 C 
BRANCH  11  12
ATOM     12  S   UNL     1       4.567   5.471  18.635  0.00  0.00    +0.000 S 
BRANCH  12  13
ATOM     13  C   UNL     1       3.070   4.540  18.931  0.00  0.00    +0.000 A 
ATOM     14  C   UNL     1       2.832   3.446  18.088  0.00  0.00    +0.000 A 
ATOM     15  C   UNL     1       1.734   2.607  18.295  0.00  0.00    +0.000 A 
ATOM     16  C   UNL     1       0.861   2.854  19.350  0.00  0.00    +0.000 A 
ATOM     17  C   UNL     1       1.081   3.942  20.192  0.00  0.00    +0.000 A 
ATOM     18  C   UNL     1       2.184   4.781  19.987  0.00  0.00    +0.000 A 
ENDBRANCH  12  13
ENDBRANCH  11  12
ENDBRANCH   8  11
TORSDOF 3
ENDMDL
MODEL 2
REMARK VINA RESULT:      -7.3      1.807      2.863
REMARK  Name = 
REMARK  4 active torsions:
REMARK  status: ('A' for Active; 'I' for Inactive)
REMARK    1  A    between atoms: C_1  and  C_2
REMARK    2  A    between atoms: C_8  and  C_10
REMARK    3  A    between atoms: C_10  and  S_11
REMARK    4  A    between atoms: S_11  and  C_12
REMARK                            x       y       z     vdW  Elec       q    Type
REMARK                         _______ _______ _______ _____ _____    ______ ____
ROOT
ATOM      1  C   UNL     1       5.860   3.917  13.659  0.00  0.00    +0.000 C 
ATOM      2  C   UNL     1       6.425   4.552  14.869  0.00  0.00    +0.000 A 
ATOM      3  N   UNL     1       7.424   5.429  14.743  0.00  0.00    +0.000 NA
ATOM      4  O   UNL     1       7.710   5.835  16.034  0.00  0.00    +0.000 OA
ATOM      5  N   UNL     1       6.887   5.205  16.948  0.00  0.00    +0.000 NA
ATOM      6  C   UNL     1       6.088   4.406  16.240  0.00  0.00    +0.000 A 
ATOM      7  N   UNL     1       5.115   3.577  16.776  0.00  0.00    +0.000 N 
ATOM      8  C   UNL     1       4.869   3.447  18.131  0.00  0.00    +0.000 C 
ATOM      9  O   UNL     1       5.395   4.114  19.023  0.00  0.00    +0.000 OA
ATOM     10  H   UNL     1       4.615   2.963  16.145  0.00  0.00    +0.000 HD
ENDROOT
BRANCH   8  11
ATOM     11  C   UNL     1       3.792   2.433  18.509  0.00  0.00    +0.000 C 
BRANCH  11  12
ATOM     12  S   UNL     1       2.120   3.005  18.052  0.00  0.00    +0.000 S 
BRANCH  12  13
ATOM     13  C   UNL     1       2.075   4.671  18.699  0.00  0.00    +0.000 A 
ATOM     14  C   UNL     1       1.755   4.810  20.057  0.00  0.00    +0.000 A 
ATOM     15  C   UNL     1       1.778   6.063  20.674  0.00  0.00    +0.000 A 
ATOM     16  C   UNL     1       2.124   7.193  19.939  0.00  0.00    +0.000 A 
ATOM     17  C   UNL     1       2.439   7.070  18.588  0.00  0.00    +0.000 A 
ATOM     18  C   UNL     1       2.418   5.813  17.969  0.00  0.00    +0.000 A 
ENDBRANCH  12  13
ENDBRANCH  11  12
ENDBRANCH   8  11
TORSDOF 3
ENDMDL
MODEL 3
REMARK VINA RESULT:      -7.3      0.995      1.193
REMARK  Name = 
REMARK  4 active torsions:
REMARK  status: ('A' for Active; 'I' for Inactive)
REMARK    1  A    between atoms: C_1  and  C_2
REMARK    2  A    between atoms: C_8  and  C_10
REMARK    3  A    between atoms: C_10  and  S_11
REMARK    4  A    between atoms: S_11  and  C_12
REMARK                            x       y       z     vdW  Elec       q    Type
REMARK                         _______ _______ _______ _____ _____    ______ ____
ROOT
ATOM      1  C   UNL     1       5.661   3.394  12.575  0.00  0.00    +0.000 C 
ATOM      2  C   UNL     1       6.642   4.302  13.206  0.00  0.00    +0.000 A 
ATOM      3  N   UNL     1       7.571   4.891  12.449  0.00  0.00    +0.000 NA
ATOM      4  O   UNL     1       8.310   5.666  13.325  0.00  0.00    +0.000 OA
ATOM      5  N   UNL     1       7.833   5.549  14.617  0.00  0.00    +0.000 NA
ATOM      6  C   UNL     1       6.802   4.705  14.558  0.00  0.00    +0.000 A 
ATOM      7  N   UNL     1       6.044   4.299  15.645  0.00  0.00    +0.000 N 
ATOM      8  C   UNL     1       6.284   4.696  16.948  0.00  0.00    +0.000 C 
ATOM      9  O   UNL     1       7.119   5.530  17.303  0.00  0.00    +0.000 OA
ATOM     10  H   UNL     1       5.328   3.601  15.489  0.00  0.00    +0.000 HD
ENDROOT
BRANCH   8  11
ATOM     11  C   UNL     1       5.365   4.083  18.002  0.00  0.00    +0.000 C 
BRANCH  11  12
ATOM     12  S   UNL     1       3.610   4.152  17.506  0.00  0.00    +0.000 S 
BRANCH  12  13
ATOM     13  C   UNL     1       2.751   3.707  19.009  0.00  0.00    +0.000 A 
ATOM     14  C   UNL     1       1.368   3.502  18.906  0.00  0.00    +0.000 A 
ATOM     15  C   UNL     1       0.624   3.069  20.007  0.00  0.00    +0.000 A 
ATOM     16  C   UNL     1       1.256   2.834  21.223  0.00  0.00    +0.000 A 
ATOM     17  C   UNL     1       2.629   3.039  21.341  0.00  0.00    +0.000 A 
ATOM     18  C   UNL     1       3.376   3.470  20.238  0.00  0.00    +0.000 A 
ENDBRANCH  12  13
ENDBRANCH  11  12
ENDBRANCH   8  11
TORSDOF 3
ENDMDL
MODEL 4
REMARK VINA RESULT:      -7.0      0.806      1.398
REMARK  Name = 
REMARK  4 active torsions:
REMARK  status: ('A' for Active; 'I' for Inactive)
REMARK    1  A    between atoms: C_1  and  C_2
REMARK    2  A    between atoms: C_8  and  C_10
REMARK    3  A    between atoms: C_10  and  S_11
REMARK    4  A    between atoms: S_11  and  C_12
REMARK                            x       y       z     vdW  Elec       q    Type
REMARK                         _______ _______ _______ _____ _____    ______ ____
ROOT
ATOM      1  C   UNL     1       5.568   3.456  12.778  0.00  0.00    +0.000 C 
ATOM      2  C   UNL     1       6.638   4.336  13.293  0.00  0.00    +0.000 A 
ATOM      3  N   UNL     1       7.583   4.777  12.457  0.00  0.00    +0.000 NA
ATOM      4  O   UNL     1       8.411   5.566  13.236  0.00  0.00    +0.000 OA
ATOM      5  N   UNL     1       7.973   5.605  14.546  0.00  0.00    +0.000 NA
ATOM      6  C   UNL     1       6.878   4.845  14.596  0.00  0.00    +0.000 A 
ATOM      7  N   UNL     1       6.131   4.602  15.738  0.00  0.00    +0.000 N 
ATOM      8  C   UNL     1       6.448   5.095  16.990  0.00  0.00    +0.000 C 
ATOM      9  O   UNL     1       7.357   5.887  17.241  0.00  0.00    +0.000 OA
ATOM     10  H   UNL     1       5.357   3.953  15.668  0.00  0.00    +0.000 HD
ENDROOT
BRANCH   8  11
ATOM     11  C   UNL     1       5.523   4.655  18.123  0.00  0.00    +0.000 C 
BRANCH  11  12
ATOM     12  S   UNL     1       4.286   3.435  17.564  0.00  0.00    +0.000 S 
BRANCH  12  13
ATOM     13  C   UNL     1       3.092   3.437  18.894  0.00  0.00    +0.000 A 
ATOM     14  C   UNL     1       2.910   4.650  19.574  0.00  0.00    +0.000 A 
ATOM     15  C   UNL     1       1.939   4.774  20.571  0.00  0.00    +0.000 A 
ATOM     16  C   UNL     1       1.137   3.685  20.898  0.00  0.00    +0.000 A 
ATOM     17  C   UNL     1       1.311   2.472  20.235  0.00  0.00    +0.000 A 
ATOM     18  C   UNL     1       2.282   2.348  19.233  0.00  0.00    +0.000 A 
ENDBRANCH  12  13
ENDBRANCH  11  12
ENDBRANCH   8  11
TORSDOF 3
ENDMDL
MODEL 5
REMARK VINA RESULT:      -7.0      0.756      1.397
REMARK  Name = 
REMARK  4 active torsions:
REMARK  status: ('A' for Active; 'I' for Inactive)
REMARK    1  A    between atoms: C_1  and  C_2
REMARK    2  A    between atoms: C_8  and  C_10
REMARK    3  A    between atoms: C_10  and  S_11
REMARK    4  A    between atoms: S_11  and  C_12
REMARK                            x       y       z     vdW  Elec       q    Type
REMARK                         _______ _______ _______ _____ _____    ______ ____
ROOT
ATOM      1  C   UNL     1       5.324   3.622  13.527  0.00  0.00    +0.000 C 
ATOM      2  C   UNL     1       6.439   4.481  13.980  0.00  0.00    +0.000 A 
ATOM      3  N   UNL     1       7.320   4.938  13.085  0.00  0.00    +0.000 NA
ATOM      4  O   UNL     1       8.212   5.700  13.817  0.00  0.00    +0.000 OA
ATOM      5  N   UNL     1       7.878   5.707  15.158  0.00  0.00    +0.000 NA
ATOM      6  C   UNL     1       6.783   4.954  15.273  0.00  0.00    +0.000 A 
ATOM      7  N   UNL     1       6.124   4.686  16.463  0.00  0.00    +0.000 N 
ATOM      8  C   UNL     1       6.542   5.143  17.699  0.00  0.00    +0.000 C 
ATOM      9  O   UNL     1       7.474   5.922  17.899  0.00  0.00    +0.000 OA
ATOM     10  H   UNL     1       5.342   4.044  16.436  0.00  0.00    +0.000 HD
ENDROOT
BRANCH   8  11
ATOM     11  C   UNL     1       5.703   4.680  18.888  0.00  0.00    +0.000 C 
BRANCH  11  12
ATOM     12  S   UNL     1       4.191   5.682  19.093  0.00  0.00    +0.000 S 
BRANCH  12  13
ATOM     13  C   UNL     1       2.902   4.447  19.190  0.00  0.00    +0.000 A 
ATOM     14  C   UNL     1       2.063   4.500  20.312  0.00  0.00    +0.000 A 
ATOM     15  C   UNL     1       0.975   3.632  20.434  0.00  0.00    +0.000 A 
ATOM     16  C   UNL     1       0.713   2.701  19.434  0.00  0.00    +0.000 A 
ATOM     17  C   UNL     1       1.542   2.633  18.317  0.00  0.00    +0.000 A 
ATOM     18  C   UNL     1       2.631   3.505  18.192  0.00  0.00    +0.000 A 
ENDBRANCH  12  13
ENDBRANCH  11  12
ENDBRANCH   8  11
TORSDOF 3
ENDMDL
MODEL 6
REMARK VINA RESULT:      -7.0      0.968      1.368
REMARK  Name = 
REMARK  4 active torsions:
REMARK  status: ('A' for Active; 'I' for Inactive)
REMARK    1  A    between atoms: C_1  and  C_2
REMARK    2  A    between atoms: C_8  and  C_10
REMARK    3  A    between atoms: C_10  and  S_11
REMARK    4  A    between atoms: S_11  and  C_12
REMARK                            x       y       z     vdW  Elec       q    Type
REMARK                         _______ _______ _______ _____ _____    ______ ____
ROOT
ATOM      1  C   UNL     1       5.585   3.190  12.398  0.00  0.00    +0.000 C 
ATOM      2  C   UNL     1       6.596   4.159  12.870  0.00  0.00    +0.000 A 
ATOM      3  N   UNL     1       7.425   4.724  11.987  0.00  0.00    +0.000 NA
ATOM      4  O   UNL     1       8.225   5.569  12.735  0.00  0.00    +0.000 OA
ATOM      5  N   UNL     1       7.887   5.518  14.074  0.00  0.00    +0.000 NA
ATOM      6  C   UNL     1       6.881   4.648  14.172  0.00  0.00    +0.000 A 
ATOM      7  N   UNL     1       6.252   4.290  15.354  0.00  0.00    +0.000 N 
ATOM      8  C   UNL     1       6.611   4.771  16.599  0.00  0.00    +0.000 C 
ATOM      9  O   UNL     1       7.451   5.645  16.816  0.00  0.00    +0.000 OA
ATOM     10  H   UNL     1       5.545   3.566  15.313  0.00  0.00    +0.000 HD
ENDROOT
BRANCH   8  11
ATOM     11  C   UNL     1       5.824   4.200  17.777  0.00  0.00    +0.000 C 
BRANCH  11  12
ATOM     12  S   UNL     1       4.141   3.687  17.293  0.00  0.00    +0.000 S 
BRANCH  12  13
ATOM     13  C   UNL     1       3.130   4.321  18.624  0.00  0.00    +0.000 A 
ATOM     14  C   UNL     1       2.683   3.390  19.572  0.00  0.00    +0.000 A 
ATOM     15  C   UNL     1       1.960   3.802  20.694  0.00  0.00    +0.000 A 
ATOM     16  C   UNL     1       1.677   5.151  20.882  0.00  0.00    +0.000 A 
ATOM     17  C   UNL     1       2.111   6.086  19.945  0.00  0.00    +0.000 A 
ATOM     18  C   UNL     1       2.838   5.674  18.821  0.00  0.00    +0.000 A 
ENDBRANCH  12  13
ENDBRANCH  11  12
ENDBRANCH   8  11
TORSDOF 3
ENDMDL
MODEL 7
REMARK VINA RESULT:      -6.9      1.186      1.260
REMARK  Name = 
REMARK  4 active torsions:
REMARK  status: ('A' for Active; 'I' for Inactive)
REMARK    1  A    between atoms: C_1  and  C_2
REMARK    2  A    between atoms: C_8  and  C_10
REMARK    3  A    between atoms: C_10  and  S_11
REMARK    4  A    between atoms: S_11  and  C_12
REMARK                            x       y       z     vdW  Elec       q    Type
REMARK                         _______ _______ _______ _____ _____    ______ ____
ROOT
ATOM      1  C   UNL     1       5.139   3.729  13.936  0.00  0.00    +0.000 C 
ATOM      2  C   UNL     1       6.258   4.581  14.392  0.00  0.00    +0.000 A 
ATOM      3  N   UNL     1       7.243   4.881  13.540  0.00  0.00    +0.000 NA
ATOM      4  O   UNL     1       8.110   5.683  14.262  0.00  0.00    +0.000 OA
ATOM      5  N   UNL     1       7.656   5.869  15.554  0.00  0.00    +0.000 NA
ATOM      6  C   UNL     1       6.511   5.190  15.648  0.00  0.00    +0.000 A 
ATOM      7  N   UNL     1       5.733   5.101  16.791  0.00  0.00    +0.000 N 
ATOM      8  C   UNL     1       6.063   5.685  18.001  0.00  0.00    +0.000 C 
ATOM      9  O   UNL     1       7.019   6.435  18.199  0.00  0.00    +0.000 OA
ATOM     10  H   UNL     1       4.918   4.500  16.764  0.00  0.00    +0.000 HD
ENDROOT
BRANCH   8  11
ATOM     11  C   UNL     1       5.093   5.412  19.148  0.00  0.00    +0.000 C 
BRANCH  11  12
ATOM     12  S   UNL     1       3.455   6.160  18.856  0.00  0.00    +0.000 S 
BRANCH  12  13
ATOM     13  C   UNL     1       2.330   4.820  19.224  0.00  0.00    +0.000 A 
ATOM     14  C   UNL     1       2.004   3.963  18.163  0.00  0.00    +0.000 A 
ATOM     15  C   UNL     1       1.201   2.839  18.370  0.00  0.00    +0.000 A 
ATOM     16  C   UNL     1       0.717   2.557  19.644  0.00  0.00    +0.000 A 
ATOM     17  C   UNL     1       1.029   3.402  20.706  0.00  0.00    +0.000 A 
ATOM     18  C   UNL     1       1.836   4.528  20.499  0.00  0.00    +0.000 A 
ENDBRANCH  12  13
ENDBRANCH  11  12
ENDBRANCH   8  11
TORSDOF 3
ENDMDL
MODEL 8
REMARK VINA RESULT:      -6.8      2.240      3.605
REMARK  Name = 
REMARK  4 active torsions:
REMARK  status: ('A' for Active; 'I' for Inactive)
REMARK    1  A    between atoms: C_1  and  C_2
REMARK    2  A    between atoms: C_8  and  C_10
REMARK    3  A    between atoms: C_10  and  S_11
REMARK    4  A    between atoms: S_11  and  C_12
REMARK                            x       y       z     vdW  Elec       q    Type
REMARK                         _______ _______ _______ _____ _____    ______ ____
ROOT
ATOM      1  C   UNL     1       5.817   4.387  14.640  0.00  0.00    +0.000 C 
ATOM      2  C   UNL     1       6.387   4.460  16.002  0.00  0.00    +0.000 A 
ATOM      3  N   UNL     1       7.565   5.062  16.188  0.00  0.00    +0.000 NA
ATOM      4  O   UNL     1       7.806   4.968  17.547  0.00  0.00    +0.000 OA
ATOM      5  N   UNL     1       6.777   4.306  18.190  0.00  0.00    +0.000 NA
ATOM      6  C   UNL     1       5.893   3.984  17.244  0.00  0.00    +0.000 A 
ATOM      7  N   UNL     1       4.712   3.291  17.463  0.00  0.00    +0.000 N 
ATOM      8  C   UNL     1       4.312   2.814  18.697  0.00  0.00    +0.000 C 
ATOM      9  O   UNL     1       4.883   3.023  19.768  0.00  0.00    +0.000 OA
ATOM     10  H   UNL     1       4.152   3.044  16.656  0.00  0.00    +0.000 HD
ENDROOT
BRANCH   8  11
ATOM     11  C   UNL     1       3.004   2.026  18.704  0.00  0.00    +0.000 C 
BRANCH  11  12
ATOM     12  S   UNL     1       1.724   2.828  19.728  0.00  0.00    +0.000 S 
BRANCH  12  13
ATOM     13  C   UNL     1       1.905   4.558  19.315  0.00  0.00    +0.000 A 
ATOM     14  C   UNL     1       2.032   5.451  20.387  0.00  0.00    +0.000 A 
ATOM     15  C   UNL     1       2.263   6.811  20.164  0.00  0.00    +0.000 A 
ATOM     16  C   UNL     1       2.372   7.292  18.863  0.00  0.00    +0.000 A 
ATOM     17  C   UNL     1       2.242   6.416  17.788  0.00  0.00    +0.000 A 
ATOM     18  C   UNL     1       2.013   5.053  18.011  0.00  0.00    +0.000 A 
ENDBRANCH  12  13
ENDBRANCH  11  12
ENDBRANCH   8  11
TORSDOF 3
ENDMDL
MODEL 9
REMARK VINA RESULT:      -6.7      1.127      1.213
REMARK  Name = 
REMARK  4 active torsions:
REMARK  status: ('A' for Active; 'I' for Inactive)
REMARK    1  A    between atoms: C_1  and  C_2
REMARK    2  A    between atoms: C_8  and  C_10
REMARK    3  A    between atoms: C_10  and  S_11
REMARK    4  A    between atoms: S_11  and  C_12
REMARK                            x       y       z     vdW  Elec       q    Type
REMARK                         _______ _______ _______ _____ _____    ______ ____
ROOT
ATOM      1  C   UNL     1       5.090   3.445  12.683  0.00  0.00    +0.000 C 
ATOM      2  C   UNL     1       6.302   4.233  12.993  0.00  0.00    +0.000 A 
ATOM      3  N   UNL     1       7.275   4.325  12.081  0.00  0.00    +0.000 NA
ATOM      4  O   UNL     1       8.242   5.122  12.668  0.00  0.00    +0.000 OA
ATOM      5  N   UNL     1       7.862   5.513  13.937  0.00  0.00    +0.000 NA
ATOM      6  C   UNL     1       6.663   4.969  14.152  0.00  0.00    +0.000 A 
ATOM      7  N   UNL     1       5.927   5.102  15.318  0.00  0.00    +0.000 N 
ATOM      8  C   UNL     1       6.360   5.798  16.432  0.00  0.00    +0.000 C 
ATOM      9  O   UNL     1       7.390   6.469  16.504  0.00  0.00    +0.000 OA
ATOM     10  H   UNL     1       5.059   4.586  15.392  0.00  0.00    +0.000 HD
ENDROOT
BRANCH   8  11
ATOM     11  C   UNL     1       5.417   5.769  17.633  0.00  0.00    +0.000 C 
BRANCH  11  12
ATOM     12  S   UNL     1       5.492   4.180  18.527  0.00  0.00    +0.000 S 
BRANCH  12  13
ATOM     13  C   UNL     1       3.774   3.699  18.637  0.00  0.00    +0.000 A 
ATOM     14  C   UNL     1       2.870   4.411  17.836  0.00  0.00    +0.000 A 
ATOM     15  C   UNL     1       1.520   4.054  17.789  0.00  0.00    +0.000 A 
ATOM     16  C   UNL     1       1.059   2.978  18.543  0.00  0.00    +0.000 A 
ATOM     17  C   UNL     1       1.946   2.266  19.347  0.00  0.00    +0.000 A 
ATOM     18  C   UNL     1       3.300   2.622  19.393  0.00  0.00    +0.000 A 
ENDBRANCH  12  13
ENDBRANCH  11  12
ENDBRANCH   8  11
TORSDOF 3
ENDMDL
