MODEL 1
REMARK VINA RESULT:      -8.6      0.000      0.000
REMARK  Name = 
REMARK  5 active torsions:
REMARK  status: ('A' for Active; 'I' for Inactive)
REMARK    1  A    between atoms: C_1  and  C_2
REMARK    2  A    between atoms: C_4  and  N_5
REMARK    3  A    between atoms: N_5  and  S_6
REMARK    4  A    between atoms: S_6  and  C_9
REMARK    5  A    between atoms: N_21  and  C_22
REMARK                            x       y       z     vdW  Elec       q    Type
REMARK                         _______ _______ _______ _____ _____    ______ ____
ROOT
ATOM      1  C   UNL     1       5.304   5.454  17.367  0.00  0.00    +0.000 A 
ATOM      2  C   UNL     1       4.000   5.017  17.082  0.00  0.00    +0.000 A 
ATOM      3  C   UNL     1       3.271   4.324  18.047  0.00  0.00    +0.000 A 
ATOM      4  C   UNL     1       3.823   4.093  19.308  0.00  0.00    +0.000 A 
ATOM      5  C   UNL     1       5.127   4.498  19.588  0.00  0.00    +0.000 A 
ATOM      6  C   UNL     1       5.880   5.170  18.613  0.00  0.00    +0.000 A 
ATOM      7 BR   UNL     1       7.644   5.667  19.114  0.00  0.00    +0.000 Br
ATOM      8  N   UNL     1       3.043   3.516  20.312  0.00  0.00    +0.000 N 
ATOM      9  C   UNL     1       1.772   3.071  20.058  0.00  0.00    +0.000 C 
ATOM     10  O   UNL     1       1.034   2.686  20.960  0.00  0.00    +0.000 OA
ATOM     11  C   UNL     1       1.413   2.999  18.576  0.00  0.00    +0.000 C 
ATOM     12  O   UNL     1       1.994   3.969  17.709  0.00  0.00    +0.000 OA
ATOM     13  H   UNL     1       3.354   3.475  21.274  0.00  0.00    +0.000 HD
ENDROOT
BRANCH   1  14
ATOM     14  S   UNL     1       6.153   6.423  16.127  0.00  0.00    +0.000 S 
ATOM     15  O   UNL     1       6.912   7.443  16.828  0.00  0.00    +0.000 OA
ATOM     16  O   UNL     1       5.155   6.819  15.157  0.00  0.00    +0.000 OA
BRANCH  14  17
ATOM     17  N   UNL     1       7.191   5.370  15.444  0.00  0.00    +0.000 N 
ATOM     18  H   UNL     1       8.010   5.132  15.981  0.00  0.00    +0.000 HD
BRANCH  17  22
ATOM     19  C   UNL     1       5.396   2.553  11.781  0.00  0.00    +0.000 C 
ATOM     20  C   UNL     1       6.162   3.538  12.584  0.00  0.00    +0.000 A 
ATOM     21  C   UNL     1       5.996   3.862  13.949  0.00  0.00    +0.000 A 
ATOM     22  C   UNL     1       6.974   4.790  14.214  0.00  0.00    +0.000 A 
ATOM     23  N   UNL     1       7.625   5.011  13.029  0.00  0.00    +0.000 N 
ATOM     24  C   UNL     1       8.666   5.967  12.740  0.00  0.00    +0.000 C 
ATOM     25  N   UNL     1       7.147   4.250  12.026  0.00  0.00    +0.000 NA
ENDBRANCH  17  22
ENDBRANCH  14  17
ENDBRANCH   1  14
TORSDOF 3
ENDMDL
MODEL 2
REMARK VINA RESULT:      -8.4      0.985      1.119
REMARK  Name = 
REMARK  5 active torsions:
REMARK  status: ('A' for Active; 'I' for Inactive)
REMARK    1  A    between atoms: C_1  and  C_2
REMARK    2  A    between atoms: C_4  and  N_5
REMARK    3  A    between atoms: N_5  and  S_6
REMARK    4  A    between atoms: S_6  and  C_9
REMARK    5  A    between atoms: N_21  and  C_22
REMARK                            x       y       z     vdW  Elec       q    Type
REMARK                         _______ _______ _______ _____ _____    ______ ____
ROOT
ATOM      1  C   UNL     1       5.769   5.026  17.419  0.00  0.00    +0.000 A 
ATOM      2  C   UNL     1       4.507   4.600  16.978  0.00  0.00    +0.000 A 
ATOM      3  C   UNL     1       3.509   4.298  17.904  0.00  0.00    +0.000 A 
ATOM      4  C   UNL     1       3.754   4.450  19.269  0.00  0.00    +0.000 A 
ATOM      5  C   UNL     1       5.014   4.844  19.716  0.00  0.00    +0.000 A 
ATOM      6  C   UNL     1       6.033   5.121  18.793  0.00  0.00    +0.000 A 
ATOM      7 BR   UNL     1       7.706   5.646  19.527  0.00  0.00    +0.000 Br
ATOM      8  N   UNL     1       2.715   4.273  20.184  0.00  0.00    +0.000 N 
ATOM      9  C   UNL     1       1.476   3.847  19.781  0.00  0.00    +0.000 C 
ATOM     10  O   UNL     1       0.524   3.816  20.554  0.00  0.00    +0.000 OA
ATOM     11  C   UNL     1       1.425   3.326  18.347  0.00  0.00    +0.000 C 
ATOM     12  O   UNL     1       2.294   3.930  17.393  0.00  0.00    +0.000 OA
ATOM     13  H   UNL     1       2.812   4.523  21.160  0.00  0.00    +0.000 HD
ENDROOT
BRANCH   1  14
ATOM     14  S   UNL     1       6.975   5.493  16.186  0.00  0.00    +0.000 S 
ATOM     15  O   UNL     1       7.917   4.394  16.071  0.00  0.00    +0.000 OA
ATOM     16  O   UNL     1       7.457   6.807  16.555  0.00  0.00    +0.000 OA
BRANCH  14  17
ATOM     17  N   UNL     1       6.114   5.595  14.807  0.00  0.00    +0.000 N 
ATOM     18  H   UNL     1       5.406   6.311  14.769  0.00  0.00    +0.000 HD
BRANCH  17  22
ATOM     19  C   UNL     1       5.752   1.978  11.436  0.00  0.00    +0.000 C 
ATOM     20  C   UNL     1       6.165   3.172  12.215  0.00  0.00    +0.000 A 
ATOM     21  C   UNL     1       5.548   3.716  13.363  0.00  0.00    +0.000 A 
ATOM     22  C   UNL     1       6.339   4.781  13.719  0.00  0.00    +0.000 A 
ATOM     23  N   UNL     1       7.329   4.857  12.776  0.00  0.00    +0.000 N 
ATOM     24  C   UNL     1       8.360   5.856  12.632  0.00  0.00    +0.000 C 
ATOM     25  N   UNL     1       7.243   3.878  11.855  0.00  0.00    +0.000 NA
ENDBRANCH  17  22
ENDBRANCH  14  17
ENDBRANCH   1  14
TORSDOF 3
ENDMDL
MODEL 3
REMARK VINA RESULT:      -8.2      3.515      4.875
REMARK  Name = 
REMARK  5 active torsions:
REMARK  status: ('A' for Active; 'I' for Inactive)
REMARK    1  A    between atoms: C_1  and  C_2
REMARK    2  A    between atoms: C_4  and  N_5
REMARK    3  A    between atoms: N_5  and  S_6
REMARK    4  A    between atoms: S_6  and  C_9
REMARK    5  A    between atoms: N_21  and  C_22
REMARK                            x       y       z     vdW  Elec       q    Type
REMARK                         _______ _______ _______ _____ _____    ______ ____
ROOT
ATOM      1  C   UNL     1       3.150   4.690  18.875  0.00  0.00    +0.000 A 
ATOM      2  C   UNL     1       2.995   5.965  18.310  0.00  0.00    +0.000 A 
ATOM      3  C   UNL     1       2.370   6.979  19.035  0.00  0.00    +0.000 A 
ATOM      4  C   UNL     1       1.926   6.734  20.336  0.00  0.00    +0.000 A 
ATOM      5  C   UNL     1       2.049   5.462  20.892  0.00  0.00    +0.000 A 
ATOM      6  C   UNL     1       2.651   4.429  20.158  0.00  0.00    +0.000 A 
ATOM      7 BR   UNL     1       2.757   2.741  21.025  0.00  0.00    +0.000 Br
ATOM      8  N   UNL     1       1.420   7.784  21.104  0.00  0.00    +0.000 N 
ATOM      9  C   UNL     1       1.248   9.036  20.574  0.00  0.00    +0.000 C 
ATOM     10  O   UNL     1       0.932   9.993  21.274  0.00  0.00    +0.000 OA
ATOM     11  C   UNL     1       1.380   9.101  19.054  0.00  0.00    +0.000 C 
ATOM     12  O   UNL     1       2.296   8.204  18.432  0.00  0.00    +0.000 OA
ATOM     13  H   UNL     1       1.234   7.682  22.094  0.00  0.00    +0.000 HD
ENDROOT
BRANCH   1  14
ATOM     14  S   UNL     1       4.047   3.460  17.937  0.00  0.00    +0.000 S 
ATOM     15  O   UNL     1       3.830   3.753  16.531  0.00  0.00    +0.000 OA
ATOM     16  O   UNL     1       3.656   2.171  18.464  0.00  0.00    +0.000 OA
BRANCH  14  17
ATOM     17  N   UNL     1       5.609   3.748  18.299  0.00  0.00    +0.000 N 
ATOM     18  H   UNL     1       6.060   3.085  18.909  0.00  0.00    +0.000 HD
BRANCH  17  22
ATOM     19  C   UNL     1       7.935   8.099  17.810  0.00  0.00    +0.000 C 
ATOM     20  C   UNL     1       7.359   6.750  17.580  0.00  0.00    +0.000 A 
ATOM     21  C   UNL     1       6.682   5.925  18.506  0.00  0.00    +0.000 A 
ATOM     22  C   UNL     1       6.316   4.814  17.787  0.00  0.00    +0.000 A 
ATOM     23  N   UNL     1       6.813   4.992  16.523  0.00  0.00    +0.000 N 
ATOM     24  C   UNL     1       6.791   4.073  15.411  0.00  0.00    +0.000 C 
ATOM     25  N   UNL     1       7.446   6.171  16.377  0.00  0.00    +0.000 NA
ENDBRANCH  17  22
ENDBRANCH  14  17
ENDBRANCH   1  14
TORSDOF 3
ENDMDL
MODEL 4
REMARK VINA RESULT:      -8.0      3.721      4.938
REMARK  Name = 
REMARK  5 active torsions:
REMARK  status: ('A' for Active; 'I' for Inactive)
REMARK    1  A    between atoms: C_1  and  C_2
REMARK    2  A    between atoms: C_4  and  N_5
REMARK    3  A    between atoms: N_5  and  S_6
REMARK    4  A    between atoms: S_6  and  C_9
REMARK    5  A    between atoms: N_21  and  C_22
REMARK                            x       y       z     vdW  Elec       q    Type
REMARK                         _______ _______ _______ _____ _____    ______ ____
ROOT
ATOM      1  C   UNL     1       2.697   5.150  18.813  0.00  0.00    +0.000 A 
ATOM      2  C   UNL     1       2.540   6.478  18.388  0.00  0.00    +0.000 A 
ATOM      3  C   UNL     1       2.017   7.433  19.259  0.00  0.00    +0.000 A 
ATOM      4  C   UNL     1       1.679   7.075  20.565  0.00  0.00    +0.000 A 
ATOM      5  C   UNL     1       1.803   5.752  20.985  0.00  0.00    +0.000 A 
ATOM      6  C   UNL     1       2.301   4.778  20.106  0.00  0.00    +0.000 A 
ATOM      7 BR   UNL     1       2.421   3.012  20.796  0.00  0.00    +0.000 Br
ATOM      8  N   UNL     1       1.279   8.059  21.472  0.00  0.00    +0.000 N 
ATOM      9  C   UNL     1       1.108   9.361  21.080  0.00  0.00    +0.000 C 
ATOM     10  O   UNL     1       0.888  10.253  21.893  0.00  0.00    +0.000 OA
ATOM     11  C   UNL     1       1.110   9.569  19.568  0.00  0.00    +0.000 C 
ATOM     12  O   UNL     1       1.935   8.713  18.784  0.00  0.00    +0.000 OA
ATOM     13  H   UNL     1       1.176   7.866  22.460  0.00  0.00    +0.000 HD
ENDROOT
BRANCH   1  14
ATOM     14  S   UNL     1       3.464   3.993  17.687  0.00  0.00    +0.000 S 
ATOM     15  O   UNL     1       2.403   3.171  17.130  0.00  0.00    +0.000 OA
ATOM     16  O   UNL     1       4.545   3.363  18.413  0.00  0.00    +0.000 OA
BRANCH  14  17
ATOM     17  N   UNL     1       4.074   4.935  16.506  0.00  0.00    +0.000 N 
ATOM     18  H   UNL     1       3.475   5.111  15.715  0.00  0.00    +0.000 HD
BRANCH  17  22
ATOM     19  C   UNL     1       7.937   7.759  17.802  0.00  0.00    +0.000 C 
ATOM     20  C   UNL     1       7.046   6.761  17.160  0.00  0.00    +0.000 A 
ATOM     21  C   UNL     1       5.704   6.461  17.482  0.00  0.00    +0.000 A 
ATOM     22  C   UNL     1       5.326   5.505  16.571  0.00  0.00    +0.000 A 
ATOM     23  N   UNL     1       6.432   5.247  15.804  0.00  0.00    +0.000 N 
ATOM     24  C   UNL     1       6.598   4.254  14.770  0.00  0.00    +0.000 C 
ATOM     25  N   UNL     1       7.488   6.010  16.145  0.00  0.00    +0.000 NA
ENDBRANCH  17  22
ENDBRANCH  14  17
ENDBRANCH   1  14
TORSDOF 3
ENDMDL
MODEL 5
REMARK VINA RESULT:      -8.0      3.475      4.425
REMARK  Name = 
REMARK  5 active torsions:
REMARK  status: ('A' for Active; 'I' for Inactive)
REMARK    1  A    between atoms: C_1  and  C_2
REMARK    2  A    between atoms: C_4  and  N_5
REMARK    3  A    between atoms: N_5  and  S_6
REMARK    4  A    between atoms: S_6  and  C_9
REMARK    5  A    between atoms: N_21  and  C_22
REMARK                            x       y       z     vdW  Elec       q    Type
REMARK                         _______ _______ _______ _____ _____    ______ ____
ROOT
ATOM      1  C   UNL     1       3.485   4.707  19.230  0.00  0.00    +0.000 A 
ATOM      2  C   UNL     1       3.562   5.888  18.474  0.00  0.00    +0.000 A 
ATOM      3  C   UNL     1       2.782   6.990  18.818  0.00  0.00    +0.000 A 
ATOM      4  C   UNL     1       1.947   6.932  19.935  0.00  0.00    +0.000 A 
ATOM      5  C   UNL     1       1.842   5.754  20.673  0.00  0.00    +0.000 A 
ATOM      6  C   UNL     1       2.602   4.630  20.316  0.00  0.00    +0.000 A 
ATOM      7 BR   UNL     1       2.369   3.085  21.397  0.00  0.00    +0.000 Br
ATOM      8  N   UNL     1       1.267   8.078  20.353  0.00  0.00    +0.000 N 
ATOM      9  C   UNL     1       1.317   9.239  19.627  0.00  0.00    +0.000 C 
ATOM     10  O   UNL     1       0.835  10.284  20.053  0.00  0.00    +0.000 OA
ATOM     11  C   UNL     1       1.917   9.085  18.232  0.00  0.00    +0.000 C 
ATOM     12  O   UNL     1       2.945   8.116  18.058  0.00  0.00    +0.000 OA
ATOM     13  H   UNL     1       0.779   8.117  21.239  0.00  0.00    +0.000 HD
ENDROOT
BRANCH   1  14
ATOM     14  S   UNL     1       4.582   3.363  18.800  0.00  0.00    +0.000 S 
ATOM     15  O   UNL     1       4.015   2.704  17.637  0.00  0.00    +0.000 OA
ATOM     16  O   UNL     1       4.799   2.603  20.013  0.00  0.00    +0.000 OA
BRANCH  14  17
ATOM     17  N   UNL     1       5.965   4.103  18.364  0.00  0.00    +0.000 N 
ATOM     18  H   UNL     1       6.625   4.297  19.101  0.00  0.00    +0.000 HD
BRANCH  17  22
ATOM     19  C   UNL     1       6.402   3.987  13.427  0.00  0.00    +0.000 C 
ATOM     20  C   UNL     1       6.446   4.377  14.859  0.00  0.00    +0.000 A 
ATOM     21  C   UNL     1       5.923   3.673  15.966  0.00  0.00    +0.000 A 
ATOM     22  C   UNL     1       6.264   4.431  17.060  0.00  0.00    +0.000 A 
ATOM     23  N   UNL     1       6.908   5.538  16.575  0.00  0.00    +0.000 N 
ATOM     24  C   UNL     1       7.381   6.693  17.299  0.00  0.00    +0.000 C 
ATOM     25  N   UNL     1       7.035   5.518  15.234  0.00  0.00    +0.000 NA
ENDBRANCH  17  22
ENDBRANCH  14  17
ENDBRANCH   1  14
TORSDOF 3
ENDMDL
MODEL 6
REMARK VINA RESULT:      -7.9      1.637      1.854
REMARK  Name = 
REMARK  5 active torsions:
REMARK  status: ('A' for Active; 'I' for Inactive)
REMARK    1  A    between atoms: C_1  and  C_2
REMARK    2  A    between atoms: C_4  and  N_5
REMARK    3  A    between atoms: N_5  and  S_6
REMARK    4  A    between atoms: S_6  and  C_9
REMARK    5  A    between atoms: N_21  and  C_22
REMARK                            x       y       z     vdW  Elec       q    Type
REMARK                         _______ _______ _______ _____ _____    ______ ____
ROOT
ATOM      1  C   UNL     1       4.965   5.669  17.607  0.00  0.00    +0.000 A 
ATOM      2  C   UNL     1       5.271   4.407  18.141  0.00  0.00    +0.000 A 
ATOM      3  C   UNL     1       4.488   3.873  19.163  0.00  0.00    +0.000 A 
ATOM      4  C   UNL     1       3.379   4.578  19.635  0.00  0.00    +0.000 A 
ATOM      5  C   UNL     1       3.087   5.844  19.131  0.00  0.00    +0.000 A 
ATOM      6  C   UNL     1       3.887   6.403  18.123  0.00  0.00    +0.000 A 
ATOM      7 BR   UNL     1       3.388   8.135  17.522  0.00  0.00    +0.000 Br
ATOM      8  N   UNL     1       2.524   3.984  20.564  0.00  0.00    +0.000 N 
ATOM      9  C   UNL     1       2.805   2.758  21.108  0.00  0.00    +0.000 C 
ATOM     10  O   UNL     1       1.997   2.171  21.821  0.00  0.00    +0.000 OA
ATOM     11  C   UNL     1       4.222   2.258  20.838  0.00  0.00    +0.000 C 
ATOM     12  O   UNL     1       4.825   2.621  19.599  0.00  0.00    +0.000 OA
ATOM     13  H   UNL     1       1.633   4.396  20.812  0.00  0.00    +0.000 HD
ENDROOT
BRANCH   1  14
ATOM     14  S   UNL     1       5.944   6.258  16.232  0.00  0.00    +0.000 S 
ATOM     15  O   UNL     1       6.941   7.164  16.775  0.00  0.00    +0.000 OA
ATOM     16  O   UNL     1       5.011   6.741  15.238  0.00  0.00    +0.000 OA
BRANCH  14  17
ATOM     17  N   UNL     1       6.692   4.923  15.678  0.00  0.00    +0.000 N 
ATOM     18  H   UNL     1       7.233   4.398  16.347  0.00  0.00    +0.000 HD
BRANCH  17  22
ATOM     19  C   UNL     1       5.210   2.574  11.571  0.00  0.00    +0.000 C 
ATOM     20  C   UNL     1       5.913   3.444  12.547  0.00  0.00    +0.000 A 
ATOM     21  C   UNL     1       5.621   3.622  13.918  0.00  0.00    +0.000 A 
ATOM     22  C   UNL     1       6.585   4.487  14.375  0.00  0.00    +0.000 A 
ATOM     23  N   UNL     1       7.353   4.815  13.290  0.00  0.00    +0.000 N 
ATOM     24  C   UNL     1       8.436   5.766  13.209  0.00  0.00    +0.000 C 
ATOM     25  N   UNL     1       6.962   4.182  12.168  0.00  0.00    +0.000 NA
ENDBRANCH  17  22
ENDBRANCH  14  17
ENDBRANCH   1  14
TORSDOF 3
ENDMDL
MODEL 7
REMARK VINA RESULT:      -7.8      3.686      4.325
REMARK  Name = 
REMARK  5 active torsions:
REMARK  status: ('A' for Active; 'I' for Inactive)
REMARK    1  A    between atoms: C_1  and  C_2
REMARK    2  A    between atoms: C_4  and  N_5
REMARK    3  A    between atoms: N_5  and  S_6
REMARK    4  A    between atoms: S_6  and  C_9
REMARK    5  A    between atoms: N_21  and  C_22
REMARK                            x       y       z     vdW  Elec       q    Type
REMARK                         _______ _______ _______ _____ _____    ______ ____
ROOT
ATOM      1  C   UNL     1       2.931   5.402  18.845  0.00  0.00    +0.000 A 
ATOM      2  C   UNL     1       2.731   6.749  18.504  0.00  0.00    +0.000 A 
ATOM      3  C   UNL     1       2.090   7.608  19.395  0.00  0.00    +0.000 A 
ATOM      4  C   UNL     1       1.674   7.137  20.642  0.00  0.00    +0.000 A 
ATOM      5  C   UNL     1       1.842   5.794  20.976  0.00  0.00    +0.000 A 
ATOM      6  C   UNL     1       2.460   4.916  20.073  0.00  0.00    +0.000 A 
ATOM      7 BR   UNL     1       2.628   3.111  20.644  0.00  0.00    +0.000 Br
ATOM      8  N   UNL     1       1.152   8.028  21.581  0.00  0.00    +0.000 N 
ATOM      9  C   UNL     1       0.936   9.345  21.269  0.00  0.00    +0.000 C 
ATOM     10  O   UNL     1       0.605  10.161  22.123  0.00  0.00    +0.000 OA
ATOM     11  C   UNL     1       1.041   9.666  19.780  0.00  0.00    +0.000 C 
ATOM     12  O   UNL     1       1.971   8.914  19.006  0.00  0.00    +0.000 OA
ATOM     13  H   UNL     1       0.985   7.756  22.541  0.00  0.00    +0.000 HD
ENDROOT
BRANCH   1  14
ATOM     14  S   UNL     1       3.847   4.374  17.705  0.00  0.00    +0.000 S 
ATOM     15  O   UNL     1       2.912   3.406  17.157  0.00  0.00    +0.000 OA
ATOM     16  O   UNL     1       5.017   3.909  18.416  0.00  0.00    +0.000 OA
BRANCH  14  17
ATOM     17  N   UNL     1       4.297   5.399  16.522  0.00  0.00    +0.000 N 
ATOM     18  H   UNL     1       3.751   6.241  16.422  0.00  0.00    +0.000 HD
BRANCH  17  22
ATOM     19  C   UNL     1       7.173   3.961  12.748  0.00  0.00    +0.000 C 
ATOM     20  C   UNL     1       6.656   4.538  14.014  0.00  0.00    +0.000 A 
ATOM     21  C   UNL     1       5.319   4.580  14.467  0.00  0.00    +0.000 A 
ATOM     22  C   UNL     1       5.382   5.173  15.704  0.00  0.00    +0.000 A 
ATOM     23  N   UNL     1       6.698   5.494  15.909  0.00  0.00    +0.000 N 
ATOM     24  C   UNL     1       7.285   6.222  17.008  0.00  0.00    +0.000 C 
ATOM     25  N   UNL     1       7.490   5.107  14.892  0.00  0.00    +0.000 NA
ENDBRANCH  17  22
ENDBRANCH  14  17
ENDBRANCH   1  14
TORSDOF 3
ENDMDL
MODEL 8
REMARK VINA RESULT:      -7.8      3.506      4.984
REMARK  Name = 
REMARK  5 active torsions:
REMARK  status: ('A' for Active; 'I' for Inactive)
REMARK    1  A    between atoms: C_1  and  C_2
REMARK    2  A    between atoms: C_4  and  N_5
REMARK    3  A    between atoms: N_5  and  S_6
REMARK    4  A    between atoms: S_6  and  C_9
REMARK    5  A    between atoms: N_21  and  C_22
REMARK                            x       y       z     vdW  Elec       q    Type
REMARK                         _______ _______ _______ _____ _____    ______ ____
ROOT
ATOM      1  C   UNL     1       3.166   4.634  19.081  0.00  0.00    +0.000 A 
ATOM      2  C   UNL     1       3.224   5.745  18.226  0.00  0.00    +0.000 A 
ATOM      3  C   UNL     1       2.563   6.925  18.569  0.00  0.00    +0.000 A 
ATOM      4  C   UNL     1       1.871   7.012  19.778  0.00  0.00    +0.000 A 
ATOM      5  C   UNL     1       1.785   5.903  20.618  0.00  0.00    +0.000 A 
ATOM      6  C   UNL     1       2.422   4.703  20.267  0.00  0.00    +0.000 A 
ATOM      7 BR   UNL     1       2.227   3.264  21.493  0.00  0.00    +0.000 Br
ATOM      8  N   UNL     1       1.323   8.232  20.177  0.00  0.00    +0.000 N 
ATOM      9  C   UNL     1       1.356   9.329  19.356  0.00  0.00    +0.000 C 
ATOM     10  O   UNL     1       0.998  10.435  19.748  0.00  0.00    +0.000 OA
ATOM     11  C   UNL     1       1.767   9.028  17.917  0.00  0.00    +0.000 C 
ATOM     12  O   UNL     1       2.702   7.976  17.704  0.00  0.00    +0.000 OA
ATOM     13  H   UNL     1       0.952   8.373  21.108  0.00  0.00    +0.000 HD
ENDROOT
BRANCH   1  14
ATOM     14  S   UNL     1       4.114   3.184  18.638  0.00  0.00    +0.000 S 
ATOM     15  O   UNL     1       3.164   2.115  18.383  0.00  0.00    +0.000 OA
ATOM     16  O   UNL     1       5.116   3.015  19.667  0.00  0.00    +0.000 OA
BRANCH  14  17
ATOM     17  N   UNL     1       4.833   3.595  17.236  0.00  0.00    +0.000 N 
ATOM     18  H   UNL     1       4.490   3.141  16.403  0.00  0.00    +0.000 HD
BRANCH  17  22
ATOM     19  C   UNL     1       8.086   7.168  18.341  0.00  0.00    +0.000 C 
ATOM     20  C   UNL     1       7.290   6.120  17.654  0.00  0.00    +0.000 A 
ATOM     21  C   UNL     1       6.288   5.291  18.205  0.00  0.00    +0.000 A 
ATOM     22  C   UNL     1       5.836   4.534  17.152  0.00  0.00    +0.000 A 
ATOM     23  N   UNL     1       6.593   4.893  16.068  0.00  0.00    +0.000 N 
ATOM     24  C   UNL     1       6.589   4.327  14.741  0.00  0.00    +0.000 C 
ATOM     25  N   UNL     1       7.480   5.865  16.355  0.00  0.00    +0.000 NA
ENDBRANCH  17  22
ENDBRANCH  14  17
ENDBRANCH   1  14
TORSDOF 3
ENDMDL
MODEL 9
REMARK VINA RESULT:      -7.6      1.659      1.795
REMARK  Name = 
REMARK  5 active torsions:
REMARK  status: ('A' for Active; 'I' for Inactive)
REMARK    1  A    between atoms: C_1  and  C_2
REMARK    2  A    between atoms: C_4  and  N_5
REMARK    3  A    between atoms: N_5  and  S_6
REMARK    4  A    between atoms: S_6  and  C_9
REMARK    5  A    between atoms: N_21  and  C_22
REMARK                            x       y       z     vdW  Elec       q    Type
REMARK                         _______ _______ _______ _____ _____    ______ ____
ROOT
ATOM      1  C   UNL     1       4.505   5.583  16.977  0.00  0.00    +0.000 A 
ATOM      2  C   UNL     1       4.477   4.183  17.082  0.00  0.00    +0.000 A 
ATOM      3  C   UNL     1       3.420   3.553  17.737  0.00  0.00    +0.000 A 
ATOM      4  C   UNL     1       2.371   4.311  18.260  0.00  0.00    +0.000 A 
ATOM      5  C   UNL     1       2.407   5.703  18.187  0.00  0.00    +0.000 A 
ATOM      6  C   UNL     1       3.482   6.347  17.556  0.00  0.00    +0.000 A 
ATOM      7 BR   UNL     1       3.415   8.246  17.523  0.00  0.00    +0.000 Br
ATOM      8  N   UNL     1       1.254   3.671  18.798  0.00  0.00    +0.000 N 
ATOM      9  C   UNL     1       1.205   2.307  18.922  0.00  0.00    +0.000 C 
ATOM     10  O   UNL     1       0.180   1.729  19.268  0.00  0.00    +0.000 OA
ATOM     11  C   UNL     1       2.544   1.606  18.699  0.00  0.00    +0.000 C 
ATOM     12  O   UNL     1       3.444   2.185  17.759  0.00  0.00    +0.000 OA
ATOM     13  H   UNL     1       0.413   4.178  19.044  0.00  0.00    +0.000 HD
ENDROOT
BRANCH   1  14
ATOM     14  S   UNL     1       5.833   6.328  16.041  0.00  0.00    +0.000 S 
ATOM     15  O   UNL     1       6.636   7.096  16.977  0.00  0.00    +0.000 OA
ATOM     16  O   UNL     1       5.220   6.996  14.914  0.00  0.00    +0.000 OA
BRANCH  14  17
ATOM     17  N   UNL     1       6.708   5.059  15.515  0.00  0.00    +0.000 N 
ATOM     18  H   UNL     1       7.320   4.623  16.188  0.00  0.00    +0.000 HD
BRANCH  17  22
ATOM     19  C   UNL     1       5.279   2.502  11.516  0.00  0.00    +0.000 C 
ATOM     20  C   UNL     1       5.966   3.424  12.454  0.00  0.00    +0.000 A 
ATOM     21  C   UNL     1       5.662   3.664  13.813  0.00  0.00    +0.000 A 
ATOM     22  C   UNL     1       6.614   4.560  14.235  0.00  0.00    +0.000 A 
ATOM     23  N   UNL     1       7.387   4.844  13.140  0.00  0.00    +0.000 N 
ATOM     24  C   UNL     1       8.460   5.801  13.021  0.00  0.00    +0.000 C 
ATOM     25  N   UNL     1       7.010   4.154  12.047  0.00  0.00    +0.000 NA
ENDBRANCH  17  22
ENDBRANCH  14  17
ENDBRANCH   1  14
TORSDOF 3
ENDMDL
