MODEL 1
REMARK VINA RESULT:      -8.1      0.000      0.000
REMARK  Name = 
REMARK  6 active torsions:
REMARK  status: ('A' for Active; 'I' for Inactive)
REMARK    1  A    between atoms: C_1  and  C_2
REMARK    2  A    between atoms: C_3  and  C_4
REMARK    3  A    between atoms: C_13  and  C_15
REMARK    4  A    between atoms: C_16  and  C_17
REMARK    5  A    between atoms: C_17  and  O_19
REMARK    6  A    between atoms: N_26  and  C_27
REMARK                            x       y       z     vdW  Elec       q    Type
REMARK                         _______ _______ _______ _____ _____    ______ ____
ROOT
ATOM      1  C   UNL     1       4.124   4.903  17.338  0.00  0.00    +0.000 C 
ATOM      2  C   UNL     1       3.873   3.825  16.277  0.00  0.00    +0.000 C 
ATOM      3  C   UNL     1       5.108   4.051  15.446  0.00  0.00    +0.000 A 
ATOM      4  C   UNL     1       5.280   3.763  14.100  0.00  0.00    +0.000 A 
ATOM      5  C   UNL     1       6.479   4.139  13.496  0.00  0.00    +0.000 A 
ATOM      6  C   UNL     1       7.479   4.780  14.242  0.00  0.00    +0.000 A 
ATOM      7  C   UNL     1       7.303   5.048  15.608  0.00  0.00    +0.000 A 
ATOM      8  C   UNL     1       6.112   4.675  16.212  0.00  0.00    +0.000 A 
ATOM      9  N   UNL     1       5.604   4.930  17.519  0.00  0.00    +0.000 N 
ATOM     10  C   UNL     1       6.224   5.449  18.624  0.00  0.00    +0.000 C 
ATOM     11  O   UNL     1       5.647   5.788  19.659  0.00  0.00    +0.000 OA
ENDROOT
BRANCH   1  14
ATOM     12  C   UNL     1       3.212   2.363  19.050  0.00  0.00    +0.000 C 
ATOM     13  C   UNL     1       2.869   3.803  19.267  0.00  0.00    +0.000 A 
ATOM     14  C   UNL     1       3.206   4.942  18.530  0.00  0.00    +0.000 A 
ATOM     15  C   UNL     1       2.543   6.051  19.172  0.00  0.00    +0.000 A 
ATOM     16  C   UNL     1       2.440   7.437  18.912  0.00  0.00    +0.000 A 
ATOM     17  C   UNL     1       1.708   8.267  19.777  0.00  0.00    +0.000 A 
ATOM     18  C   UNL     1       1.080   7.743  20.901  0.00  0.00    +0.000 A 
ATOM     19  C   UNL     1       1.156   6.380  21.179  0.00  0.00    +0.000 A 
ATOM     20  C   UNL     1       1.881   5.551  20.304  0.00  0.00    +0.000 A 
ATOM     21  N   UNL     1       2.097   4.193  20.336  0.00  0.00    +0.000 N 
ATOM     22  C   UNL     1       1.600   3.282  21.348  0.00  0.00    +0.000 C 
ENDBRANCH   1  14
BRANCH  10  23
ATOM     23  C   UNL     1       7.695   5.582  18.640  0.00  0.00    +0.000 C 
ATOM     24  C   UNL     1       8.338   6.726  18.357  0.00  0.00    +0.000 C 
BRANCH  24  25
ATOM     25  C   UNL     1       7.841   8.045  17.913  0.00  0.00    +0.000 C 
ATOM     26  O   UNL     1       6.911   8.108  17.121  0.00  0.00    +0.000 OA
BRANCH  25  27
ATOM     27  O   UNL     1       8.465   9.139  18.360  0.00  0.00    +0.000 OA
ATOM     28  H   UNL     1       7.948   9.707  18.988  0.00  0.00    +0.000 HD
ENDBRANCH  25  27
ENDBRANCH  24  25
ENDBRANCH  10  23
TORSDOF 4
ENDMDL
MODEL 2
REMARK VINA RESULT:      -7.8      0.626      2.422
REMARK  Name = 
REMARK  6 active torsions:
REMARK  status: ('A' for Active; 'I' for Inactive)
REMARK    1  A    between atoms: C_1  and  C_2
REMARK    2  A    between atoms: C_3  and  C_4
REMARK    3  A    between atoms: C_13  and  C_15
REMARK    4  A    between atoms: C_16  and  C_17
REMARK    5  A    between atoms: C_17  and  O_19
REMARK    6  A    between atoms: N_26  and  C_27
REMARK                            x       y       z     vdW  Elec       q    Type
REMARK                         _______ _______ _______ _____ _____    ______ ____
ROOT
ATOM      1  C   UNL     1       4.200   5.019  17.434  0.00  0.00    +0.000 C 
ATOM      2  C   UNL     1       3.927   3.936  16.384  0.00  0.00    +0.000 C 
ATOM      3  C   UNL     1       5.138   4.165  15.519  0.00  0.00    +0.000 A 
ATOM      4  C   UNL     1       5.275   3.872  14.170  0.00  0.00    +0.000 A 
ATOM      5  C   UNL     1       6.456   4.252  13.533  0.00  0.00    +0.000 A 
ATOM      6  C   UNL     1       7.472   4.901  14.250  0.00  0.00    +0.000 A 
ATOM      7  C   UNL     1       7.331   5.174  15.619  0.00  0.00    +0.000 A 
ATOM      8  C   UNL     1       6.158   4.797  16.256  0.00  0.00    +0.000 A 
ATOM      9  N   UNL     1       5.684   5.055  17.575  0.00  0.00    +0.000 N 
ATOM     10  C   UNL     1       6.331   5.581  18.662  0.00  0.00    +0.000 C 
ATOM     11  O   UNL     1       5.780   5.921  19.709  0.00  0.00    +0.000 OA
ENDROOT
BRANCH   1  14
ATOM     12  C   UNL     1       2.630   7.595  18.490  0.00  0.00    +0.000 C 
ATOM     13  C   UNL     1       2.620   6.206  19.046  0.00  0.00    +0.000 A 
ATOM     14  C   UNL     1       3.314   5.059  18.650  0.00  0.00    +0.000 A 
ATOM     15  C   UNL     1       2.962   4.026  19.593  0.00  0.00    +0.000 A 
ATOM     16  C   UNL     1       3.340   2.676  19.779  0.00  0.00    +0.000 A 
ATOM     17  C   UNL     1       2.772   1.920  20.819  0.00  0.00    +0.000 A 
ATOM     18  C   UNL     1       1.831   2.482  21.674  0.00  0.00    +0.000 A 
ATOM     19  C   UNL     1       1.446   3.812  21.521  0.00  0.00    +0.000 A 
ATOM     20  C   UNL     1       2.025   4.569  20.486  0.00  0.00    +0.000 A 
ATOM     21  N   UNL     1       1.838   5.884  20.130  0.00  0.00    +0.000 N 
ATOM     22  C   UNL     1       0.940   6.815  20.783  0.00  0.00    +0.000 C 
ENDBRANCH   1  14
BRANCH  10  23
ATOM     23  C   UNL     1       7.800   5.721  18.638  0.00  0.00    +0.000 C 
ATOM     24  C   UNL     1       8.430   6.873  18.355  0.00  0.00    +0.000 C 
BRANCH  24  25
ATOM     25  C   UNL     1       7.915   8.196  17.945  0.00  0.00    +0.000 C 
ATOM     26  O   UNL     1       7.014   8.268  17.120  0.00  0.00    +0.000 OA
BRANCH  25  27
ATOM     27  O   UNL     1       8.491   9.287  18.461  0.00  0.00    +0.000 OA
ATOM     28  H   UNL     1       8.848   9.939  17.805  0.00  0.00    +0.000 HD
ENDBRANCH  25  27
ENDBRANCH  24  25
ENDBRANCH  10  23
TORSDOF 4
ENDMDL
MODEL 3
REMARK VINA RESULT:      -7.4      7.691     10.706
REMARK  Name = 
REMARK  6 active torsions:
REMARK  status: ('A' for Active; 'I' for Inactive)
REMARK    1  A    between atoms: C_1  and  C_2
REMARK    2  A    between atoms: C_3  and  C_4
REMARK    3  A    between atoms: C_13  and  C_15
REMARK    4  A    between atoms: C_16  and  C_17
REMARK    5  A    between atoms: C_17  and  O_19
REMARK    6  A    between atoms: N_26  and  C_27
REMARK                            x       y       z     vdW  Elec       q    Type
REMARK                         _______ _______ _______ _____ _____    ______ ____
ROOT
ATOM      1  C   UNL     1      -2.434  12.929  19.959  0.00  0.00    +0.000 C 
ATOM      2  C   UNL     1      -3.787  12.414  19.454  0.00  0.00    +0.000 C 
ATOM      3  C   UNL     1      -3.276  11.432  18.433  0.00  0.00    +0.000 A 
ATOM      4  C   UNL     1      -3.935  10.980  17.299  0.00  0.00    +0.000 A 
ATOM      5  C   UNL     1      -3.242  10.136  16.432  0.00  0.00    +0.000 A 
ATOM      6  C   UNL     1      -1.923   9.755  16.714  0.00  0.00    +0.000 A 
ATOM      7  C   UNL     1      -1.273  10.203  17.875  0.00  0.00    +0.000 A 
ATOM      8  C   UNL     1      -1.959  11.041  18.741  0.00  0.00    +0.000 A 
ATOM      9  N   UNL     1      -1.525  11.748  19.900  0.00  0.00    +0.000 N 
ATOM     10  C   UNL     1      -0.359  11.650  20.612  0.00  0.00    +0.000 C 
ATOM     11  O   UNL     1      -0.013  12.430  21.501  0.00  0.00    +0.000 OA
ENDROOT
BRANCH   1  14
ATOM     12  C   UNL     1      -1.194  15.873  20.036  0.00  0.00    +0.000 C 
ATOM     13  C   UNL     1      -1.906  15.134  21.125  0.00  0.00    +0.000 A 
ATOM     14  C   UNL     1      -2.430  13.838  21.157  0.00  0.00    +0.000 A 
ATOM     15  C   UNL     1      -2.945  13.642  22.490  0.00  0.00    +0.000 A 
ATOM     16  C   UNL     1      -3.552  12.565  23.176  0.00  0.00    +0.000 A 
ATOM     17  C   UNL     1      -3.969  12.719  24.509  0.00  0.00    +0.000 A 
ATOM     18  C   UNL     1      -3.797  13.930  25.171  0.00  0.00    +0.000 A 
ATOM     19  C   UNL     1      -3.193  15.006  24.525  0.00  0.00    +0.000 A 
ATOM     20  C   UNL     1      -2.767  14.844  23.194  0.00  0.00    +0.000 A 
ATOM     21  N   UNL     1      -2.140  15.725  22.344  0.00  0.00    +0.000 N 
ATOM     22  C   UNL     1      -1.777  17.091  22.663  0.00  0.00    +0.000 C 
ENDBRANCH   1  14
BRANCH  10  23
ATOM     23  C   UNL     1       0.554  10.517  20.364  0.00  0.00    +0.000 C 
ATOM     24  C   UNL     1       0.710   9.490  21.215  0.00  0.00    +0.000 C 
BRANCH  24  25
ATOM     25  C   UNL     1       0.141   9.234  22.556  0.00  0.00    +0.000 C 
ATOM     26  O   UNL     1       0.668   9.729  23.543  0.00  0.00    +0.000 OA
BRANCH  25  27
ATOM     27  O   UNL     1      -0.915   8.421  22.650  0.00  0.00    +0.000 OA
ATOM     28  H   UNL     1      -1.359   8.186  21.794  0.00  0.00    +0.000 HD
ENDBRANCH  25  27
ENDBRANCH  24  25
ENDBRANCH  10  23
TORSDOF 4
ENDMDL
MODEL 4
REMARK VINA RESULT:      -7.0      7.857     10.796
REMARK  Name = 
REMARK  6 active torsions:
REMARK  status: ('A' for Active; 'I' for Inactive)
REMARK    1  A    between atoms: C_1  and  C_2
REMARK    2  A    between atoms: C_3  and  C_4
REMARK    3  A    between atoms: C_13  and  C_15
REMARK    4  A    between atoms: C_16  and  C_17
REMARK    5  A    between atoms: C_17  and  O_19
REMARK    6  A    between atoms: N_26  and  C_27
REMARK                            x       y       z     vdW  Elec       q    Type
REMARK                         _______ _______ _______ _____ _____    ______ ____
ROOT
ATOM      1  C   UNL     1      -2.226  13.154  20.343  0.00  0.00    +0.000 C 
ATOM      2  C   UNL     1      -3.570  12.594  19.863  0.00  0.00    +0.000 C 
ATOM      3  C   UNL     1      -3.043  11.595  18.867  0.00  0.00    +0.000 A 
ATOM      4  C   UNL     1      -3.698  11.095  17.752  0.00  0.00    +0.000 A 
ATOM      5  C   UNL     1      -2.992  10.243  16.903  0.00  0.00    +0.000 A 
ATOM      6  C   UNL     1      -1.662   9.901  17.187  0.00  0.00    +0.000 A 
ATOM      7  C   UNL     1      -1.015  10.397  18.330  0.00  0.00    +0.000 A 
ATOM      8  C   UNL     1      -1.715  11.244  19.176  0.00  0.00    +0.000 A 
ATOM      9  N   UNL     1      -1.291  11.993  20.312  0.00  0.00    +0.000 N 
ATOM     10  C   UNL     1      -0.118  11.944  21.017  0.00  0.00    +0.000 C 
ATOM     11  O   UNL     1       0.216  12.757  21.881  0.00  0.00    +0.000 OA
ENDROOT
BRANCH   1  14
ATOM     12  C   UNL     1      -3.320  12.457  23.264  0.00  0.00    +0.000 C 
ATOM     13  C   UNL     1      -2.692  13.728  22.784  0.00  0.00    +0.000 A 
ATOM     14  C   UNL     1      -2.236  14.098  21.515  0.00  0.00    +0.000 A 
ATOM     15  C   UNL     1      -1.789  15.464  21.627  0.00  0.00    +0.000 A 
ATOM     16  C   UNL     1      -1.265  16.420  20.725  0.00  0.00    +0.000 A 
ATOM     17  C   UNL     1      -0.899  17.697  21.181  0.00  0.00    +0.000 A 
ATOM     18  C   UNL     1      -1.038  18.040  22.521  0.00  0.00    +0.000 A 
ATOM     19  C   UNL     1      -1.559  17.124  23.432  0.00  0.00    +0.000 A 
ATOM     20  C   UNL     1      -1.936  15.849  22.969  0.00  0.00    +0.000 A 
ATOM     21  N   UNL     1      -2.481  14.781  23.642  0.00  0.00    +0.000 N 
ATOM     22  C   UNL     1      -2.789  14.744  25.058  0.00  0.00    +0.000 C 
ENDBRANCH   1  14
BRANCH  10  23
ATOM     23  C   UNL     1       0.821  10.826  20.795  0.00  0.00    +0.000 C 
ATOM     24  C   UNL     1       0.847   9.719  21.555  0.00  0.00    +0.000 C 
BRANCH  24  25
ATOM     25  C   UNL     1       0.087   9.343  22.765  0.00  0.00    +0.000 C 
ATOM     26  O   UNL     1       0.458   9.739  23.862  0.00  0.00    +0.000 OA
BRANCH  25  27
ATOM     27  O   UNL     1      -0.966   8.532  22.625  0.00  0.00    +0.000 OA
ATOM     28  H   UNL     1      -1.209   7.995  23.422  0.00  0.00    +0.000 HD
ENDBRANCH  25  27
ENDBRANCH  24  25
ENDBRANCH  10  23
TORSDOF 4
ENDMDL
MODEL 5
REMARK VINA RESULT:      -6.9      9.602     12.616
REMARK  Name = 
REMARK  6 active torsions:
REMARK  status: ('A' for Active; 'I' for Inactive)
REMARK    1  A    between atoms: C_1  and  C_2
REMARK    2  A    between atoms: C_3  and  C_4
REMARK    3  A    between atoms: C_13  and  C_15
REMARK    4  A    between atoms: C_16  and  C_17
REMARK    5  A    between atoms: C_17  and  O_19
REMARK    6  A    between atoms: N_26  and  C_27
REMARK                            x       y       z     vdW  Elec       q    Type
REMARK                         _______ _______ _______ _____ _____    ______ ____
ROOT
ATOM      1  C   UNL     1      -2.799  12.788  20.601  0.00  0.00    +0.000 C 
ATOM      2  C   UNL     1      -1.571  12.786  19.684  0.00  0.00    +0.000 C 
ATOM      3  C   UNL     1      -2.033  11.737  18.707  0.00  0.00    +0.000 A 
ATOM      4  C   UNL     1      -1.241  10.914  17.920  0.00  0.00    +0.000 A 
ATOM      5  C   UNL     1      -1.872   9.940  17.147  0.00  0.00    +0.000 A 
ATOM      6  C   UNL     1      -3.269   9.815  17.165  0.00  0.00    +0.000 A 
ATOM      7  C   UNL     1      -4.062  10.667  17.950  0.00  0.00    +0.000 A 
ATOM      8  C   UNL     1      -3.438  11.636  18.719  0.00  0.00    +0.000 A 
ATOM      9  N   UNL     1      -3.957  12.536  19.695  0.00  0.00    +0.000 N 
ATOM     10  C   UNL     1      -5.253  12.842  20.016  0.00  0.00    +0.000 C 
ATOM     11  O   UNL     1      -5.594  13.507  20.995  0.00  0.00    +0.000 OA
ENDROOT
BRANCH   1  14
ATOM     12  C   UNL     1      -3.222  12.232  23.719  0.00  0.00    +0.000 C 
ATOM     13  C   UNL     1      -3.027  13.544  23.026  0.00  0.00    +0.000 A 
ATOM     14  C   UNL     1      -2.878  13.845  21.668  0.00  0.00    +0.000 A 
ATOM     15  C   UNL     1      -2.792  15.282  21.579  0.00  0.00    +0.000 A 
ATOM     16  C   UNL     1      -2.677  16.210  20.518  0.00  0.00    +0.000 A 
ATOM     17  C   UNL     1      -2.592  17.586  20.788  0.00  0.00    +0.000 A 
ATOM     18  C   UNL     1      -2.613  18.056  22.096  0.00  0.00    +0.000 A 
ATOM     19  C   UNL     1      -2.734  17.167  23.162  0.00  0.00    +0.000 A 
ATOM     20  C   UNL     1      -2.831  15.791  22.886  0.00  0.00    +0.000 A 
ATOM     21  N   UNL     1      -2.971  14.719  23.737  0.00  0.00    +0.000 N 
ATOM     22  C   UNL     1      -3.043  14.792  25.183  0.00  0.00    +0.000 C 
ENDBRANCH   1  14
BRANCH  10  23
ATOM     23  C   UNL     1      -6.347  12.405  19.127  0.00  0.00    +0.000 C 
ATOM     24  C   UNL     1      -7.254  11.476  19.469  0.00  0.00    +0.000 C 
BRANCH  24  25
ATOM     25  C   UNL     1      -7.385  10.632  20.676  0.00  0.00    +0.000 C 
ATOM     26  O   UNL     1      -7.331   9.414  20.573  0.00  0.00    +0.000 OA
BRANCH  25  27
ATOM     27  O   UNL     1      -7.610  11.235  21.847  0.00  0.00    +0.000 OA
ATOM     28  H   UNL     1      -6.871  11.188  22.508  0.00  0.00    +0.000 HD
ENDBRANCH  25  27
ENDBRANCH  24  25
ENDBRANCH  10  23
TORSDOF 4
ENDMDL
MODEL 6
REMARK VINA RESULT:      -6.9      8.895     12.230
REMARK  Name = 
REMARK  6 active torsions:
REMARK  status: ('A' for Active; 'I' for Inactive)
REMARK    1  A    between atoms: C_1  and  C_2
REMARK    2  A    between atoms: C_3  and  C_4
REMARK    3  A    between atoms: C_13  and  C_15
REMARK    4  A    between atoms: C_16  and  C_17
REMARK    5  A    between atoms: C_17  and  O_19
REMARK    6  A    between atoms: N_26  and  C_27
REMARK                            x       y       z     vdW  Elec       q    Type
REMARK                         _______ _______ _______ _____ _____    ______ ____
ROOT
ATOM      1  C   UNL     1      -0.348  15.071  20.603  0.00  0.00    +0.000 C 
ATOM      2  C   UNL     1      -0.291  15.406  22.098  0.00  0.00    +0.000 C 
ATOM      3  C   UNL     1      -1.250  14.355  22.590  0.00  0.00    +0.000 A 
ATOM      4  C   UNL     1      -2.017  14.391  23.746  0.00  0.00    +0.000 A 
ATOM      5  C   UNL     1      -2.915  13.348  23.970  0.00  0.00    +0.000 A 
ATOM      6  C   UNL     1      -3.023  12.294  23.052  0.00  0.00    +0.000 A 
ATOM      7  C   UNL     1      -2.227  12.257  21.896  0.00  0.00    +0.000 A 
ATOM      8  C   UNL     1      -1.332  13.292  21.670  0.00  0.00    +0.000 A 
ATOM      9  N   UNL     1      -0.509  13.590  20.545  0.00  0.00    +0.000 N 
ATOM     10  C   UNL     1      -0.213  12.837  19.441  0.00  0.00    +0.000 C 
ATOM     11  O   UNL     1       0.375  13.256  18.443  0.00  0.00    +0.000 OA
ENDROOT
BRANCH   1  14
ATOM     12  C   UNL     1       2.825  14.688  20.630  0.00  0.00    +0.000 C 
ATOM     13  C   UNL     1       1.998  15.539  19.718  0.00  0.00    +0.000 A 
ATOM     14  C   UNL     1       0.620  15.772  19.689  0.00  0.00    +0.000 A 
ATOM     15  C   UNL     1       0.394  16.731  18.635  0.00  0.00    +0.000 A 
ATOM     16  C   UNL     1      -0.742  17.402  18.124  0.00  0.00    +0.000 A 
ATOM     17  C   UNL     1      -0.613  18.285  17.040  0.00  0.00    +0.000 A 
ATOM     18  C   UNL     1       0.626  18.510  16.450  0.00  0.00    +0.000 A 
ATOM     19  C   UNL     1       1.764  17.871  16.936  0.00  0.00    +0.000 A 
ATOM     20  C   UNL     1       1.632  16.995  18.030  0.00  0.00    +0.000 A 
ATOM     21  N   UNL     1       2.580  16.261  18.703  0.00  0.00    +0.000 N 
ATOM     22  C   UNL     1       3.997  16.228  18.398  0.00  0.00    +0.000 C 
ENDBRANCH   1  14
BRANCH  10  23
ATOM     23  C   UNL     1      -0.560  11.402  19.422  0.00  0.00    +0.000 C 
ATOM     24  C   UNL     1      -1.491  10.875  18.609  0.00  0.00    +0.000 C 
BRANCH  24  25
ATOM     25  C   UNL     1      -2.416  11.504  17.642  0.00  0.00    +0.000 C 
ATOM     26  O   UNL     1      -3.611  11.566  17.898  0.00  0.00    +0.000 OA
BRANCH  25  27
ATOM     27  O   UNL     1      -1.915  11.944  16.484  0.00  0.00    +0.000 OA
ATOM     28  H   UNL     1      -2.552  12.419  15.889  0.00  0.00    +0.000 HD
ENDBRANCH  25  27
ENDBRANCH  24  25
ENDBRANCH  10  23
TORSDOF 4
ENDMDL
MODEL 7
REMARK VINA RESULT:      -6.8      7.471     10.666
REMARK  Name = 
REMARK  6 active torsions:
REMARK  status: ('A' for Active; 'I' for Inactive)
REMARK    1  A    between atoms: C_1  and  C_2
REMARK    2  A    between atoms: C_3  and  C_4
REMARK    3  A    between atoms: C_13  and  C_15
REMARK    4  A    between atoms: C_16  and  C_17
REMARK    5  A    between atoms: C_17  and  O_19
REMARK    6  A    between atoms: N_26  and  C_27
REMARK                            x       y       z     vdW  Elec       q    Type
REMARK                         _______ _______ _______ _____ _____    ______ ____
ROOT
ATOM      1  C   UNL     1      -1.232  13.349  20.096  0.00  0.00    +0.000 C 
ATOM      2  C   UNL     1      -2.760  13.252  20.020  0.00  0.00    +0.000 C 
ATOM      3  C   UNL     1      -2.855  12.016  19.166  0.00  0.00    +0.000 A 
ATOM      4  C   UNL     1      -3.900  11.650  18.330  0.00  0.00    +0.000 A 
ATOM      5  C   UNL     1      -3.746  10.504  17.551  0.00  0.00    +0.000 A 
ATOM      6  C   UNL     1      -2.568   9.747  17.627  0.00  0.00    +0.000 A 
ATOM      7  C   UNL     1      -1.525  10.116  18.491  0.00  0.00    +0.000 A 
ATOM      8  C   UNL     1      -1.675  11.254  19.268  0.00  0.00    +0.000 A 
ATOM      9  N   UNL     1      -0.756  11.936  20.117  0.00  0.00    +0.000 N 
ATOM     10  C   UNL     1       0.480  11.558  20.569  0.00  0.00    +0.000 C 
ATOM     11  O   UNL     1       1.266  12.298  21.163  0.00  0.00    +0.000 OA
ENDROOT
BRANCH   1  14
ATOM     12  C   UNL     1       1.076  15.422  19.330  0.00  0.00    +0.000 C 
ATOM     13  C   UNL     1       0.346  15.281  20.628  0.00  0.00    +0.000 A 
ATOM     14  C   UNL     1      -0.638  14.371  21.027  0.00  0.00    +0.000 A 
ATOM     15  C   UNL     1      -0.927  14.667  22.409  0.00  0.00    +0.000 A 
ATOM     16  C   UNL     1      -1.776  14.107  23.392  0.00  0.00    +0.000 A 
ATOM     17  C   UNL     1      -1.837  14.670  24.678  0.00  0.00    +0.000 A 
ATOM     18  C   UNL     1      -1.072  15.785  25.002  0.00  0.00    +0.000 A 
ATOM     19  C   UNL     1      -0.220  16.353  24.058  0.00  0.00    +0.000 A 
ATOM     20  C   UNL     1      -0.154  15.779  22.775  0.00  0.00    +0.000 A 
ATOM     21  N   UNL     1       0.602  16.128  21.680  0.00  0.00    +0.000 N 
ATOM     22  C   UNL     1       1.537  17.234  21.617  0.00  0.00    +0.000 C 
ENDBRANCH   1  14
BRANCH  10  23
ATOM     23  C   UNL     1       0.923  10.160  20.397  0.00  0.00    +0.000 C 
ATOM     24  C   UNL     1       0.718   9.200  21.314  0.00  0.00    +0.000 C 
BRANCH  24  25
ATOM     25  C   UNL     1       0.122   9.248  22.666  0.00  0.00    +0.000 C 
ATOM     26  O   UNL     1       0.738   9.777  23.582  0.00  0.00    +0.000 OA
BRANCH  25  27
ATOM     27  O   UNL     1      -1.063   8.660  22.856  0.00  0.00    +0.000 OA
ATOM     28  H   UNL     1      -1.828   9.270  23.017  0.00  0.00    +0.000 HD
ENDBRANCH  25  27
ENDBRANCH  24  25
ENDBRANCH  10  23
TORSDOF 4
ENDMDL
MODEL 8
REMARK VINA RESULT:      -6.8      7.793     11.936
REMARK  Name = 
REMARK  6 active torsions:
REMARK  status: ('A' for Active; 'I' for Inactive)
REMARK    1  A    between atoms: C_1  and  C_2
REMARK    2  A    between atoms: C_3  and  C_4
REMARK    3  A    between atoms: C_13  and  C_15
REMARK    4  A    between atoms: C_16  and  C_17
REMARK    5  A    between atoms: C_17  and  O_19
REMARK    6  A    between atoms: N_26  and  C_27
REMARK                            x       y       z     vdW  Elec       q    Type
REMARK                         _______ _______ _______ _____ _____    ______ ____
ROOT
ATOM      1  C   UNL     1      -0.467  15.036  20.549  0.00  0.00    +0.000 C 
ATOM      2  C   UNL     1      -0.206  15.119  22.057  0.00  0.00    +0.000 C 
ATOM      3  C   UNL     1      -1.325  14.223  22.519  0.00  0.00    +0.000 A 
ATOM      4  C   UNL     1      -1.960  14.238  23.752  0.00  0.00    +0.000 A 
ATOM      5  C   UNL     1      -3.041  13.380  23.943  0.00  0.00    +0.000 A 
ATOM      6  C   UNL     1      -3.459  12.523  22.914  0.00  0.00    +0.000 A 
ATOM      7  C   UNL     1      -2.796  12.502  21.677  0.00  0.00    +0.000 A 
ATOM      8  C   UNL     1      -1.720  13.354  21.483  0.00  0.00    +0.000 A 
ATOM      9  N   UNL     1      -0.953  13.646  20.317  0.00  0.00    +0.000 N 
ATOM     10  C   UNL     1      -0.929  13.027  19.096  0.00  0.00    +0.000 C 
ATOM     11  O   UNL     1      -0.354  13.465  18.099  0.00  0.00    +0.000 OA
ENDROOT
BRANCH   1  14
ATOM     12  C   UNL     1       2.637  14.282  20.441  0.00  0.00    +0.000 C 
ATOM     13  C   UNL     1       1.887  15.262  19.594  0.00  0.00    +0.000 A 
ATOM     14  C   UNL     1       0.546  15.656  19.625  0.00  0.00    +0.000 A 
ATOM     15  C   UNL     1       0.401  16.678  18.618  0.00  0.00    +0.000 A 
ATOM     16  C   UNL     1      -0.663  17.499  18.177  0.00  0.00    +0.000 A 
ATOM     17  C   UNL     1      -0.466  18.406  17.122  0.00  0.00    +0.000 A 
ATOM     18  C   UNL     1       0.770  18.508  16.494  0.00  0.00    +0.000 A 
ATOM     19  C   UNL     1       1.840  17.720  16.913  0.00  0.00    +0.000 A 
ATOM     20  C   UNL     1       1.641  16.820  17.977  0.00  0.00    +0.000 A 
ATOM     21  N   UNL     1       2.517  15.952  18.585  0.00  0.00    +0.000 N 
ATOM     22  C   UNL     1       3.908  15.766  18.226  0.00  0.00    +0.000 C 
ENDBRANCH   1  14
BRANCH  10  23
ATOM     23  C   UNL     1      -1.583  11.713  18.931  0.00  0.00    +0.000 C 
ATOM     24  C   UNL     1      -0.910  10.552  18.880  0.00  0.00    +0.000 C 
BRANCH  24  25
ATOM     25  C   UNL     1       0.538  10.257  18.890  0.00  0.00    +0.000 C 
ATOM     26  O   UNL     1       1.028   9.656  19.837  0.00  0.00    +0.000 OA
BRANCH  25  27
ATOM     27  O   UNL     1       1.282  10.705  17.875  0.00  0.00    +0.000 OA
ATOM     28  H   UNL     1       1.985  11.364  18.110  0.00  0.00    +0.000 HD
ENDBRANCH  25  27
ENDBRANCH  24  25
ENDBRANCH  10  23
TORSDOF 4
ENDMDL
MODEL 9
REMARK VINA RESULT:      -6.8      7.607     10.063
REMARK  Name = 
REMARK  6 active torsions:
REMARK  status: ('A' for Active; 'I' for Inactive)
REMARK    1  A    between atoms: C_1  and  C_2
REMARK    2  A    between atoms: C_3  and  C_4
REMARK    3  A    between atoms: C_13  and  C_15
REMARK    4  A    between atoms: C_16  and  C_17
REMARK    5  A    between atoms: C_17  and  O_19
REMARK    6  A    between atoms: N_26  and  C_27
REMARK                            x       y       z     vdW  Elec       q    Type
REMARK                         _______ _______ _______ _____ _____    ______ ____
ROOT
ATOM      1  C   UNL     1      -1.036  13.089  19.637  0.00  0.00    +0.000 C 
ATOM      2  C   UNL     1      -0.440  14.236  18.813  0.00  0.00    +0.000 C 
ATOM      3  C   UNL     1       0.905  14.308  19.487  0.00  0.00    +0.000 A 
ATOM      4  C   UNL     1       1.747  15.408  19.568  0.00  0.00    +0.000 A 
ATOM      5  C   UNL     1       2.913  15.287  20.323  0.00  0.00    +0.000 A 
ATOM      6  C   UNL     1       3.220  14.080  20.967  0.00  0.00    +0.000 A 
ATOM      7  C   UNL     1       2.371  12.967  20.861  0.00  0.00    +0.000 A 
ATOM      8  C   UNL     1       1.211  13.084  20.111  0.00  0.00    +0.000 A 
ATOM      9  N   UNL     1       0.115  12.189  19.935  0.00  0.00    +0.000 N 
ATOM     10  C   UNL     1      -0.023  10.876  20.297  0.00  0.00    +0.000 C 
ATOM     11  O   UNL     1      -1.078  10.242  20.251  0.00  0.00    +0.000 OA
ENDROOT
BRANCH   1  14
ATOM     12  C   UNL     1      -3.745  13.199  21.328  0.00  0.00    +0.000 C 
ATOM     13  C   UNL     1      -3.523  12.630  19.962  0.00  0.00    +0.000 A 
ATOM     14  C   UNL     1      -2.358  12.521  19.197  0.00  0.00    +0.000 A 
ATOM     15  C   UNL     1      -2.730  11.829  17.988  0.00  0.00    +0.000 A 
ATOM     16  C   UNL     1      -2.033  11.375  16.844  0.00  0.00    +0.000 A 
ATOM     17  C   UNL     1      -2.724  10.733  15.803  0.00  0.00    +0.000 A 
ATOM     18  C   UNL     1      -4.099  10.538  15.877  0.00  0.00    +0.000 A 
ATOM     19  C   UNL     1      -4.811  10.965  16.995  0.00  0.00    +0.000 A 
ATOM     20  C   UNL     1      -4.113  11.598  18.040  0.00  0.00    +0.000 A 
ATOM     21  N   UNL     1      -4.564  12.094  19.241  0.00  0.00    +0.000 N 
ATOM     22  C   UNL     1      -5.939  12.075  19.700  0.00  0.00    +0.000 C 
ENDBRANCH   1  14
BRANCH  10  23
ATOM     23  C   UNL     1       1.163  10.111  20.733  0.00  0.00    +0.000 C 
ATOM     24  C   UNL     1       1.205   9.391  21.865  0.00  0.00    +0.000 C 
BRANCH  24  25
ATOM     25  C   UNL     1       0.220   9.216  22.953  0.00  0.00    +0.000 C 
ATOM     26  O   UNL     1       0.439   9.704  24.054  0.00  0.00    +0.000 OA
BRANCH  25  27
ATOM     27  O   UNL     1      -0.869   8.482  22.708  0.00  0.00    +0.000 OA
ATOM     28  H   UNL     1      -1.688   8.987  22.464  0.00  0.00    +0.000 HD
ENDBRANCH  25  27
ENDBRANCH  24  25
ENDBRANCH  10  23
TORSDOF 4
ENDMDL
