MODEL 1
REMARK VINA RESULT:      -5.3      0.000      0.000
REMARK  Name = 
REMARK  8 active torsions:
REMARK  status: ('A' for Active; 'I' for Inactive)
REMARK    1  A    between atoms: O_1  and  C_2
REMARK    2  A    between atoms: C_2  and  C_3
REMARK    3  A    between atoms: C_3  and  O_4
REMARK    4  A    between atoms: O_4  and  C_5
REMARK    5  A    between atoms: C_9  and  O_10
REMARK    6  A    between atoms: O_10  and  C_11
REMARK    7  A    between atoms: C_11  and  C_12
REMARK    8  A    between atoms: C_12  and  O_13
REMARK                            x       y       z     vdW  Elec       q    Type
REMARK                         _______ _______ _______ _____ _____    ______ ____
ROOT
ATOM      1  C   UNL     1       4.856   5.866  16.714  0.00  0.00    +0.000 A 
ATOM      2  C   UNL     1       4.238   6.938  17.359  0.00  0.00    +0.000 A 
ATOM      3  C   UNL     1       3.065   6.743  18.089  0.00  0.00    +0.000 A 
ATOM      4  C   UNL     1       2.514   5.465  18.189  0.00  0.00    +0.000 A 
ATOM      5  C   UNL     1       3.135   4.380  17.569  0.00  0.00    +0.000 A 
ATOM      6  C   UNL     1       4.296   4.589  16.820  0.00  0.00    +0.000 A 
ENDROOT
BRANCH   1   7
ATOM      7  O   UNL     1       5.995   6.180  16.017  0.00  0.00    +0.000 OA
BRANCH   7   8
ATOM      8  C   UNL     1       6.911   5.108  15.785  0.00  0.00    +0.000 C 
BRANCH   8   9
ATOM      9  C   UNL     1       7.036   4.861  14.288  0.00  0.00    +0.000 C 
BRANCH   9  10
ATOM     10  O   UNL     1       8.112   5.630  13.764  0.00  0.00    +0.000 OA
ATOM     11  H   UNL     1       8.791   5.002  13.465  0.00  0.00    +0.000 HD
ENDBRANCH   9  10
ENDBRANCH   8   9
ENDBRANCH   7   8
ENDBRANCH   1   7
BRANCH   5  12
ATOM     12  O   UNL     1       2.513   3.168  17.727  0.00  0.00    +0.000 OA
BRANCH  12  13
ATOM     13  C   UNL     1       3.361   2.090  18.146  0.00  0.00    +0.000 C 
BRANCH  13  14
ATOM     14  C   UNL     1       3.723   2.305  19.612  0.00  0.00    +0.000 C 
BRANCH  14  15
ATOM     15  O   UNL     1       5.137   2.218  19.786  0.00  0.00    +0.000 OA
ATOM     16  H   UNL     1       5.278   1.911  20.701  0.00  0.00    +0.000 HD
ENDBRANCH  14  15
ENDBRANCH  13  14
ENDBRANCH  12  13
ENDBRANCH   5  12
TORSDOF 8
ENDMDL
MODEL 2
REMARK VINA RESULT:      -5.2      1.931      2.714
REMARK  Name = 
REMARK  8 active torsions:
REMARK  status: ('A' for Active; 'I' for Inactive)
REMARK    1  A    between atoms: O_1  and  C_2
REMARK    2  A    between atoms: C_2  and  C_3
REMARK    3  A    between atoms: C_3  and  O_4
REMARK    4  A    between atoms: O_4  and  C_5
REMARK    5  A    between atoms: C_9  and  O_10
REMARK    6  A    between atoms: O_10  and  C_11
REMARK    7  A    between atoms: C_11  and  C_12
REMARK    8  A    between atoms: C_12  and  O_13
REMARK                            x       y       z     vdW  Elec       q    Type
REMARK                         _______ _______ _______ _____ _____    ______ ____
ROOT
ATOM      1  C   UNL     1       5.066   5.355  17.180  0.00  0.00    +0.000 A 
ATOM      2  C   UNL     1       4.429   6.485  17.696  0.00  0.00    +0.000 A 
ATOM      3  C   UNL     1       3.080   6.436  18.049  0.00  0.00    +0.000 A 
ATOM      4  C   UNL     1       2.365   5.247  17.899  0.00  0.00    +0.000 A 
ATOM      5  C   UNL     1       2.996   4.104  17.407  0.00  0.00    +0.000 A 
ATOM      6  C   UNL     1       4.341   4.169  17.034  0.00  0.00    +0.000 A 
ENDROOT
BRANCH   1   7
ATOM      7  O   UNL     1       6.389   5.524  16.857  0.00  0.00    +0.000 OA
BRANCH   7   8
ATOM      8  C   UNL     1       7.334   4.857  17.694  0.00  0.00    +0.000 C 
BRANCH   8   9
ATOM      9  C   UNL     1       7.780   5.795  18.807  0.00  0.00    +0.000 C 
BRANCH   9  10
ATOM     10  O   UNL     1       7.238   5.359  20.047  0.00  0.00    +0.000 OA
ATOM     11  H   UNL     1       7.839   4.679  20.396  0.00  0.00    +0.000 HD
ENDBRANCH   9  10
ENDBRANCH   8   9
ENDBRANCH   7   8
ENDBRANCH   1   7
BRANCH   5  12
ATOM     12  O   UNL     1       2.205   2.989  17.298  0.00  0.00    +0.000 OA
BRANCH  12  13
ATOM     13  C   UNL     1       2.036   2.232  18.504  0.00  0.00    +0.000 C 
BRANCH  13  14
ATOM     14  C   UNL     1       0.591   2.384  18.968  0.00  0.00    +0.000 C 
BRANCH  14  15
ATOM     15  O   UNL     1       0.550   3.018  20.245  0.00  0.00    +0.000 OA
ATOM     16  H   UNL     1       1.379   3.526  20.321  0.00  0.00    +0.000 HD
ENDBRANCH  14  15
ENDBRANCH  13  14
ENDBRANCH  12  13
ENDBRANCH   5  12
TORSDOF 8
ENDMDL
MODEL 3
REMARK VINA RESULT:      -5.2      1.498      4.873
REMARK  Name = 
REMARK  8 active torsions:
REMARK  status: ('A' for Active; 'I' for Inactive)
REMARK    1  A    between atoms: O_1  and  C_2
REMARK    2  A    between atoms: C_2  and  C_3
REMARK    3  A    between atoms: C_3  and  O_4
REMARK    4  A    between atoms: O_4  and  C_5
REMARK    5  A    between atoms: C_9  and  O_10
REMARK    6  A    between atoms: O_10  and  C_11
REMARK    7  A    between atoms: C_11  and  C_12
REMARK    8  A    between atoms: C_12  and  O_13
REMARK                            x       y       z     vdW  Elec       q    Type
REMARK                         _______ _______ _______ _____ _____    ______ ____
ROOT
ATOM      1  C   UNL     1       5.092   4.469  18.459  0.00  0.00    +0.000 A 
ATOM      2  C   UNL     1       4.160   5.471  18.733  0.00  0.00    +0.000 A 
ATOM      3  C   UNL     1       3.990   6.539  17.851  0.00  0.00    +0.000 A 
ATOM      4  C   UNL     1       4.747   6.600  16.681  0.00  0.00    +0.000 A 
ATOM      5  C   UNL     1       5.665   5.594  16.383  0.00  0.00    +0.000 A 
ATOM      6  C   UNL     1       5.846   4.540  17.283  0.00  0.00    +0.000 A 
ENDROOT
BRANCH   1   7
ATOM      7  O   UNL     1       5.181   3.476  19.401  0.00  0.00    +0.000 OA
BRANCH   7   8
ATOM      8  C   UNL     1       3.980   2.753  19.673  0.00  0.00    +0.000 C 
BRANCH   8   9
ATOM      9  C   UNL     1       3.619   1.896  18.467  0.00  0.00    +0.000 C 
BRANCH   9  10
ATOM     10  O   UNL     1       4.338   0.671  18.516  0.00  0.00    +0.000 OA
ATOM     11  H   UNL     1       4.978   0.745  19.245  0.00  0.00    +0.000 HD
ENDBRANCH   9  10
ENDBRANCH   8   9
ENDBRANCH   7   8
ENDBRANCH   1   7
BRANCH   5  12
ATOM     12  O   UNL     1       6.358   5.748  15.209  0.00  0.00    +0.000 OA
BRANCH  12  13
ATOM     13  C   UNL     1       6.901   4.544  14.649  0.00  0.00    +0.000 C 
BRANCH  13  14
ATOM     14  C   UNL     1       5.864   3.943  13.706  0.00  0.00    +0.000 C 
BRANCH  14  15
ATOM     15  O   UNL     1       6.511   3.180  12.688  0.00  0.00    +0.000 OA
ATOM     16  H   UNL     1       6.192   2.265  12.793  0.00  0.00    +0.000 HD
ENDBRANCH  14  15
ENDBRANCH  13  14
ENDBRANCH  12  13
ENDBRANCH   5  12
TORSDOF 8
ENDMDL
MODEL 4
REMARK VINA RESULT:      -5.2      2.457      5.765
REMARK  Name = 
REMARK  8 active torsions:
REMARK  status: ('A' for Active; 'I' for Inactive)
REMARK    1  A    between atoms: O_1  and  C_2
REMARK    2  A    between atoms: C_2  and  C_3
REMARK    3  A    between atoms: C_3  and  O_4
REMARK    4  A    between atoms: O_4  and  C_5
REMARK    5  A    between atoms: C_9  and  O_10
REMARK    6  A    between atoms: O_10  and  C_11
REMARK    7  A    between atoms: C_11  and  C_12
REMARK    8  A    between atoms: C_12  and  O_13
REMARK                            x       y       z     vdW  Elec       q    Type
REMARK                         _______ _______ _______ _____ _____    ______ ____
ROOT
ATOM      1  C   UNL     1       3.511   4.507  19.427  0.00  0.00    +0.000 A 
ATOM      2  C   UNL     1       2.869   4.132  18.246  0.00  0.00    +0.000 A 
ATOM      3  C   UNL     1       3.604   3.916  17.080  0.00  0.00    +0.000 A 
ATOM      4  C   UNL     1       4.992   4.060  17.097  0.00  0.00    +0.000 A 
ATOM      5  C   UNL     1       5.649   4.412  18.276  0.00  0.00    +0.000 A 
ATOM      6  C   UNL     1       4.902   4.649  19.433  0.00  0.00    +0.000 A 
ENDROOT
BRANCH   1   7
ATOM      7  O   UNL     1       2.686   4.704  20.506  0.00  0.00    +0.000 OA
BRANCH   7   8
ATOM      8  C   UNL     1       1.399   4.089  20.438  0.00  0.00    +0.000 C 
BRANCH   8   9
ATOM      9  C   UNL     1       1.379   2.852  21.326  0.00  0.00    +0.000 C 
BRANCH   9  10
ATOM     10  O   UNL     1       2.416   2.941  22.296  0.00  0.00    +0.000 OA
ATOM     11  H   UNL     1       2.192   3.682  22.884  0.00  0.00    +0.000 HD
ENDBRANCH   9  10
ENDBRANCH   8   9
ENDBRANCH   7   8
ENDBRANCH   1   7
BRANCH   5  12
ATOM     12  O   UNL     1       7.012   4.528  18.186  0.00  0.00    +0.000 OA
BRANCH  12  13
ATOM     13  C   UNL     1       7.558   5.768  18.660  0.00  0.00    +0.000 C 
BRANCH  13  14
ATOM     14  C   UNL     1       7.267   6.848  17.623  0.00  0.00    +0.000 C 
BRANCH  14  15
ATOM     15  O   UNL     1       7.662   6.403  16.326  0.00  0.00    +0.000 OA
ATOM     16  H   UNL     1       6.906   5.899  15.972  0.00  0.00    +0.000 HD
ENDBRANCH  14  15
ENDBRANCH  13  14
ENDBRANCH  12  13
ENDBRANCH   5  12
TORSDOF 8
ENDMDL
MODEL 5
REMARK VINA RESULT:      -5.2      2.586      3.366
REMARK  Name = 
REMARK  8 active torsions:
REMARK  status: ('A' for Active; 'I' for Inactive)
REMARK    1  A    between atoms: O_1  and  C_2
REMARK    2  A    between atoms: C_2  and  C_3
REMARK    3  A    between atoms: C_3  and  O_4
REMARK    4  A    between atoms: O_4  and  C_5
REMARK    5  A    between atoms: C_9  and  O_10
REMARK    6  A    between atoms: O_10  and  C_11
REMARK    7  A    between atoms: C_11  and  C_12
REMARK    8  A    between atoms: C_12  and  O_13
REMARK                            x       y       z     vdW  Elec       q    Type
REMARK                         _______ _______ _______ _____ _____    ______ ____
ROOT
ATOM      1  C   UNL     1       4.760   5.121  17.971  0.00  0.00    +0.000 A 
ATOM      2  C   UNL     1       4.287   4.317  16.932  0.00  0.00    +0.000 A 
ATOM      3  C   UNL     1       3.060   3.664  17.047  0.00  0.00    +0.000 A 
ATOM      4  C   UNL     1       2.292   3.824  18.200  0.00  0.00    +0.000 A 
ATOM      5  C   UNL     1       2.741   4.643  19.236  0.00  0.00    +0.000 A 
ATOM      6  C   UNL     1       3.982   5.275  19.123  0.00  0.00    +0.000 A 
ENDROOT
BRANCH   1   7
ATOM      7  O   UNL     1       5.982   5.703  17.752  0.00  0.00    +0.000 OA
BRANCH   7   8
ATOM      8  C   UNL     1       7.117   5.002  18.262  0.00  0.00    +0.000 C 
BRANCH   8   9
ATOM      9  C   UNL     1       7.927   5.929  19.159  0.00  0.00    +0.000 C 
BRANCH   9  10
ATOM     10  O   UNL     1       7.957   5.410  20.482  0.00  0.00    +0.000 OA
ATOM     11  H   UNL     1       8.618   5.926  20.975  0.00  0.00    +0.000 HD
ENDBRANCH   9  10
ENDBRANCH   8   9
ENDBRANCH   7   8
ENDBRANCH   1   7
BRANCH   5  12
ATOM     12  O   UNL     1       1.913   4.734  20.325  0.00  0.00    +0.000 OA
BRANCH  12  13
ATOM     13  C   UNL     1       0.960   3.671  20.467  0.00  0.00    +0.000 C 
BRANCH  13  14
ATOM     14  C   UNL     1       1.543   2.625  21.412  0.00  0.00    +0.000 C 
BRANCH  14  15
ATOM     15  O   UNL     1       2.360   3.256  22.397  0.00  0.00    +0.000 OA
ATOM     16  H   UNL     1       2.247   4.216  22.267  0.00  0.00    +0.000 HD
ENDBRANCH  14  15
ENDBRANCH  13  14
ENDBRANCH  12  13
ENDBRANCH   5  12
TORSDOF 8
ENDMDL
MODEL 6
REMARK VINA RESULT:      -5.2      1.818      4.942
REMARK  Name = 
REMARK  8 active torsions:
REMARK  status: ('A' for Active; 'I' for Inactive)
REMARK    1  A    between atoms: O_1  and  C_2
REMARK    2  A    between atoms: C_2  and  C_3
REMARK    3  A    between atoms: C_3  and  O_4
REMARK    4  A    between atoms: O_4  and  C_5
REMARK    5  A    between atoms: C_9  and  O_10
REMARK    6  A    between atoms: O_10  and  C_11
REMARK    7  A    between atoms: C_11  and  C_12
REMARK    8  A    between atoms: C_12  and  O_13
REMARK                            x       y       z     vdW  Elec       q    Type
REMARK                         _______ _______ _______ _____ _____    ______ ____
ROOT
ATOM      1  C   UNL     1       3.018   4.198  17.299  0.00  0.00    +0.000 A 
ATOM      2  C   UNL     1       2.365   5.233  17.969  0.00  0.00    +0.000 A 
ATOM      3  C   UNL     1       2.975   6.480  18.109  0.00  0.00    +0.000 A 
ATOM      4  C   UNL     1       4.241   6.699  17.565  0.00  0.00    +0.000 A 
ATOM      5  C   UNL     1       4.896   5.680  16.873  0.00  0.00    +0.000 A 
ATOM      6  C   UNL     1       4.287   4.427  16.757  0.00  0.00    +0.000 A 
ENDROOT
BRANCH   1   7
ATOM      7  O   UNL     1       2.328   3.014  17.233  0.00  0.00    +0.000 OA
BRANCH   7   8
ATOM      8  C   UNL     1       2.613   2.057  18.253  0.00  0.00    +0.000 C 
BRANCH   8   9
ATOM      9  C   UNL     1       1.459   2.009  19.244  0.00  0.00    +0.000 C 
BRANCH   9  10
ATOM     10  O   UNL     1       0.232   2.235  18.562  0.00  0.00    +0.000 OA
ATOM     11  H   UNL     1       0.404   2.908  17.881  0.00  0.00    +0.000 HD
ENDBRANCH   9  10
ENDBRANCH   8   9
ENDBRANCH   7   8
ENDBRANCH   1   7
BRANCH   5  12
ATOM     12  O   UNL     1       6.134   5.997  16.378  0.00  0.00    +0.000 OA
BRANCH  12  13
ATOM     13  C   UNL     1       7.125   6.333  17.360  0.00  0.00    +0.000 C 
BRANCH  13  14
ATOM     14  C   UNL     1       7.511   5.060  18.106  0.00  0.00    +0.000 C 
BRANCH  14  15
ATOM     15  O   UNL     1       8.123   4.132  17.211  0.00  0.00    +0.000 OA
ATOM     16  H   UNL     1       8.236   3.305  17.715  0.00  0.00    +0.000 HD
ENDBRANCH  14  15
ENDBRANCH  13  14
ENDBRANCH  12  13
ENDBRANCH   5  12
TORSDOF 8
ENDMDL
MODEL 7
REMARK VINA RESULT:      -5.2      1.884      5.532
REMARK  Name = 
REMARK  8 active torsions:
REMARK  status: ('A' for Active; 'I' for Inactive)
REMARK    1  A    between atoms: O_1  and  C_2
REMARK    2  A    between atoms: C_2  and  C_3
REMARK    3  A    between atoms: C_3  and  O_4
REMARK    4  A    between atoms: O_4  and  C_5
REMARK    5  A    between atoms: C_9  and  O_10
REMARK    6  A    between atoms: O_10  and  C_11
REMARK    7  A    between atoms: C_11  and  C_12
REMARK    8  A    between atoms: C_12  and  O_13
REMARK                            x       y       z     vdW  Elec       q    Type
REMARK                         _______ _______ _______ _____ _____    ______ ____
ROOT
ATOM      1  C   UNL     1       2.339   4.002  18.045  0.00  0.00    +0.000 A 
ATOM      2  C   UNL     1       2.389   5.379  18.272  0.00  0.00    +0.000 A 
ATOM      3  C   UNL     1       3.460   6.135  17.797  0.00  0.00    +0.000 A 
ATOM      4  C   UNL     1       4.483   5.517  17.077  0.00  0.00    +0.000 A 
ATOM      5  C   UNL     1       4.434   4.146  16.823  0.00  0.00    +0.000 A 
ATOM      6  C   UNL     1       3.369   3.391  17.323  0.00  0.00    +0.000 A 
ENDROOT
BRANCH   1   7
ATOM      7  O   UNL     1       1.246   3.360  18.569  0.00  0.00    +0.000 OA
BRANCH   7   8
ATOM      8  C   UNL     1       1.502   2.435  19.626  0.00  0.00    +0.000 C 
BRANCH   8   9
ATOM      9  C   UNL     1       1.225   3.103  20.965  0.00  0.00    +0.000 C 
BRANCH   9  10
ATOM     10  O   UNL     1       2.018   2.494  21.978  0.00  0.00    +0.000 OA
ATOM     11  H   UNL     1       2.739   2.022  21.528  0.00  0.00    +0.000 HD
ENDBRANCH   9  10
ENDBRANCH   8   9
ENDBRANCH   7   8
ENDBRANCH   1   7
BRANCH   5  12
ATOM     12  O   UNL     1       5.487   3.636  16.107  0.00  0.00    +0.000 OA
BRANCH  12  13
ATOM     13  C   UNL     1       6.530   4.569  15.792  0.00  0.00    +0.000 C 
BRANCH  13  14
ATOM     14  C   UNL     1       6.702   4.604  14.277  0.00  0.00    +0.000 C 
BRANCH  14  15
ATOM     15  O   UNL     1       6.340   3.344  13.713  0.00  0.00    +0.000 OA
ATOM     16  H   UNL     1       5.612   3.527  13.091  0.00  0.00    +0.000 HD
ENDBRANCH  14  15
ENDBRANCH  13  14
ENDBRANCH  12  13
ENDBRANCH   5  12
TORSDOF 8
ENDMDL
MODEL 8
REMARK VINA RESULT:      -5.1      2.430      3.060
REMARK  Name = 
REMARK  8 active torsions:
REMARK  status: ('A' for Active; 'I' for Inactive)
REMARK    1  A    between atoms: O_1  and  C_2
REMARK    2  A    between atoms: C_2  and  C_3
REMARK    3  A    between atoms: C_3  and  O_4
REMARK    4  A    between atoms: O_4  and  C_5
REMARK    5  A    between atoms: C_9  and  O_10
REMARK    6  A    between atoms: O_10  and  C_11
REMARK    7  A    between atoms: C_11  and  C_12
REMARK    8  A    between atoms: C_12  and  O_13
REMARK                            x       y       z     vdW  Elec       q    Type
REMARK                         _______ _______ _______ _____ _____    ______ ____
ROOT
ATOM      1  C   UNL     1       5.342   4.423  18.539  0.00  0.00    +0.000 A 
ATOM      2  C   UNL     1       5.022   3.950  17.266  0.00  0.00    +0.000 A 
ATOM      3  C   UNL     1       3.692   3.883  16.851  0.00  0.00    +0.000 A 
ATOM      4  C   UNL     1       2.674   4.304  17.708  0.00  0.00    +0.000 A 
ATOM      5  C   UNL     1       2.982   4.801  18.974  0.00  0.00    +0.000 A 
ATOM      6  C   UNL     1       4.315   4.842  19.391  0.00  0.00    +0.000 A 
ENDROOT
BRANCH   1   7
ATOM      7  O   UNL     1       6.680   4.432  18.842  0.00  0.00    +0.000 OA
BRANCH   7   8
ATOM      8  C   UNL     1       7.542   5.047  17.883  0.00  0.00    +0.000 C 
BRANCH   8   9
ATOM      9  C   UNL     1       7.568   6.552  18.114  0.00  0.00    +0.000 C 
BRANCH   9  10
ATOM     10  O   UNL     1       7.510   7.230  16.866  0.00  0.00    +0.000 OA
ATOM     11  H   UNL     1       6.963   6.688  16.273  0.00  0.00    +0.000 HD
ENDBRANCH   9  10
ENDBRANCH   8   9
ENDBRANCH   7   8
ENDBRANCH   1   7
BRANCH   5  12
ATOM     12  O   UNL     1       1.911   5.188  19.738  0.00  0.00    +0.000 OA
BRANCH  12  13
ATOM     13  C   UNL     1       1.911   4.708  21.090  0.00  0.00    +0.000 C 
BRANCH  13  14
ATOM     14  C   UNL     1       1.419   3.264  21.088  0.00  0.00    +0.000 C 
BRANCH  14  15
ATOM     15  O   UNL     1       2.141   2.497  22.050  0.00  0.00    +0.000 OA
ATOM     16  H   UNL     1       1.561   1.752  22.292  0.00  0.00    +0.000 HD
ENDBRANCH  14  15
ENDBRANCH  13  14
ENDBRANCH  12  13
ENDBRANCH   5  12
TORSDOF 8
ENDMDL
MODEL 9
REMARK VINA RESULT:      -5.1      2.691      5.644
REMARK  Name = 
REMARK  8 active torsions:
REMARK  status: ('A' for Active; 'I' for Inactive)
REMARK    1  A    between atoms: O_1  and  C_2
REMARK    2  A    between atoms: C_2  and  C_3
REMARK    3  A    between atoms: C_3  and  O_4
REMARK    4  A    between atoms: O_4  and  C_5
REMARK    5  A    between atoms: C_9  and  O_10
REMARK    6  A    between atoms: O_10  and  C_11
REMARK    7  A    between atoms: C_11  and  C_12
REMARK    8  A    between atoms: C_12  and  O_13
REMARK                            x       y       z     vdW  Elec       q    Type
REMARK                         _______ _______ _______ _____ _____    ______ ____
ROOT
ATOM      1  C   UNL     1       2.882   4.782  19.082  0.00  0.00    +0.000 A 
ATOM      2  C   UNL     1       2.290   4.019  18.075  0.00  0.00    +0.000 A 
ATOM      3  C   UNL     1       3.059   3.514  17.026  0.00  0.00    +0.000 A 
ATOM      4  C   UNL     1       4.432   3.761  16.990  0.00  0.00    +0.000 A 
ATOM      5  C   UNL     1       5.040   4.503  18.003  0.00  0.00    +0.000 A 
ATOM      6  C   UNL     1       4.258   5.024  19.037  0.00  0.00    +0.000 A 
ENDROOT
BRANCH   1   7
ATOM      7  O   UNL     1       2.026   5.235  20.054  0.00  0.00    +0.000 OA
BRANCH   7   8
ATOM      8  C   UNL     1       1.233   4.245  20.710  0.00  0.00    +0.000 C 
BRANCH   8   9
ATOM      9  C   UNL     1       2.114   3.417  21.633  0.00  0.00    +0.000 C 
BRANCH   9  10
ATOM     10  O   UNL     1       1.334   2.409  22.264  0.00  0.00    +0.000 OA
ATOM     11  H   UNL     1       1.538   1.570  21.816  0.00  0.00    +0.000 HD
ENDBRANCH   9  10
ENDBRANCH   8   9
ENDBRANCH   7   8
ENDBRANCH   1   7
BRANCH   5  12
ATOM     12  O   UNL     1       6.393   4.689  17.874  0.00  0.00    +0.000 OA
BRANCH  12  13
ATOM     13  C   UNL     1       6.876   5.987  18.247  0.00  0.00    +0.000 C 
BRANCH  13  14
ATOM     14  C   UNL     1       8.130   5.807  19.097  0.00  0.00    +0.000 C 
BRANCH  14  15
ATOM     15  O   UNL     1       7.771   5.495  20.442  0.00  0.00    +0.000 OA
ATOM     16  H   UNL     1       8.514   5.796  20.997  0.00  0.00    +0.000 HD
ENDBRANCH  14  15
ENDBRANCH  13  14
ENDBRANCH  12  13
ENDBRANCH   5  12
TORSDOF 8
ENDMDL
