MODEL 1
REMARK VINA RESULT:      -8.0      0.000      0.000
REMARK  Name = 
REMARK  2 active torsions:
REMARK  status: ('A' for Active; 'I' for Inactive)
REMARK    1  A    between atoms: C_2  and  C_3
REMARK    2  A    between atoms: C_6  and  C_7
REMARK                            x       y       z     vdW  Elec       q    Type
REMARK                         _______ _______ _______ _____ _____    ______ ____
ROOT
ATOM      1  C   UNL     1       6.136   4.959  17.111  0.00  0.00    +0.000 A 
ATOM      2  C   UNL     1       6.639   4.514  18.314  0.00  0.00    +0.000 A 
ATOM      3  O   UNL     1       5.608   4.173  19.120  0.00  0.00    +0.000 OA
ATOM      4  C   UNL     1       4.492   4.431  18.374  0.00  0.00    +0.000 A 
ATOM      5  N   UNL     1       4.748   4.912  17.172  0.00  0.00    +0.000 NA
ENDROOT
BRANCH   1   7
ATOM      6  O   UNL     1       7.676   6.398  16.052  0.00  0.00    +0.000 OA
ATOM      7  C   UNL     1       6.897   5.449  15.962  0.00  0.00    +0.000 C 
ATOM      8  N   UNL     1       6.786   4.848  14.683  0.00  0.00    +0.000 N 
ATOM      9  C   UNL     1       7.530   5.115  13.548  0.00  0.00    +0.000 A 
ATOM     10  C   UNL     1       7.062   4.292  12.553  0.00  0.00    +0.000 A 
ATOM     11  C   UNL     1       6.023   3.567  13.151  0.00  0.00    +0.000 A 
ATOM     12  N   UNL     1       5.849   3.883  14.433  0.00  0.00    +0.000 NA
ENDBRANCH   1   7
BRANCH   4  13
ATOM     13  C   UNL     1       3.219   4.137  19.019  0.00  0.00    +0.000 A 
ATOM     14  C   UNL     1       2.881   4.765  20.229  0.00  0.00    +0.000 A 
ATOM     15  C   UNL     1       1.661   4.492  20.857  0.00  0.00    +0.000 A 
ATOM     16  C   UNL     1       0.771   3.588  20.281  0.00  0.00    +0.000 A 
ATOM     17  C   UNL     1       1.104   2.967  19.085  0.00  0.00    +0.000 A 
ATOM     18  F   UNL     1       0.249   2.097  18.530  0.00  0.00    +0.000 F 
ATOM     19  C   UNL     1       2.311   3.232  18.451  0.00  0.00    +0.000 A 
ENDBRANCH   4  13
TORSDOF 2
ENDMDL
MODEL 2
REMARK VINA RESULT:      -7.9      1.374      1.486
REMARK  Name = 
REMARK  2 active torsions:
REMARK  status: ('A' for Active; 'I' for Inactive)
REMARK    1  A    between atoms: C_2  and  C_3
REMARK    2  A    between atoms: C_6  and  C_7
REMARK                            x       y       z     vdW  Elec       q    Type
REMARK                         _______ _______ _______ _____ _____    ______ ____
ROOT
ATOM      1  C   UNL     1       5.504   5.337  15.907  0.00  0.00    +0.000 A 
ATOM      2  C   UNL     1       5.066   6.583  16.299  0.00  0.00    +0.000 A 
ATOM      3  O   UNL     1       4.069   6.432  17.201  0.00  0.00    +0.000 OA
ATOM      4  C   UNL     1       3.926   5.079  17.328  0.00  0.00    +0.000 A 
ATOM      5  N   UNL     1       4.748   4.377  16.570  0.00  0.00    +0.000 NA
ENDROOT
BRANCH   1   7
ATOM      6  O   UNL     1       7.718   5.389  15.093  0.00  0.00    +0.000 OA
ATOM      7  C   UNL     1       6.549   5.034  14.930  0.00  0.00    +0.000 C 
ATOM      8  N   UNL     1       6.275   4.305  13.745  0.00  0.00    +0.000 N 
ATOM      9  C   UNL     1       7.176   3.837  12.805  0.00  0.00    +0.000 A 
ATOM     10  C   UNL     1       6.449   3.195  11.833  0.00  0.00    +0.000 A 
ATOM     11  C   UNL     1       5.114   3.328  12.240  0.00  0.00    +0.000 A 
ATOM     12  N   UNL     1       4.994   3.986  13.391  0.00  0.00    +0.000 NA
ENDBRANCH   1   7
BRANCH   4  13
ATOM     13  C   UNL     1       2.901   4.637  18.265  0.00  0.00    +0.000 A 
ATOM     14  C   UNL     1       2.700   5.333  19.468  0.00  0.00    +0.000 A 
ATOM     15  C   UNL     1       1.719   4.920  20.375  0.00  0.00    +0.000 A 
ATOM     16  C   UNL     1       0.932   3.806  20.088  0.00  0.00    +0.000 A 
ATOM     17  C   UNL     1       1.130   3.118  18.899  0.00  0.00    +0.000 A 
ATOM     18  F   UNL     1       0.376   2.046  18.620  0.00  0.00    +0.000 F 
ATOM     19  C   UNL     1       2.100   3.520  17.990  0.00  0.00    +0.000 A 
ENDBRANCH   4  13
TORSDOF 2
ENDMDL
MODEL 3
REMARK VINA RESULT:      -7.9      1.600      1.990
REMARK  Name = 
REMARK  2 active torsions:
REMARK  status: ('A' for Active; 'I' for Inactive)
REMARK    1  A    between atoms: C_2  and  C_3
REMARK    2  A    between atoms: C_6  and  C_7
REMARK                            x       y       z     vdW  Elec       q    Type
REMARK                         _______ _______ _______ _____ _____    ______ ____
ROOT
ATOM      1  C   UNL     1       5.399   5.228  16.174  0.00  0.00    +0.000 A 
ATOM      2  C   UNL     1       4.768   6.387  16.568  0.00  0.00    +0.000 A 
ATOM      3  O   UNL     1       3.804   6.078  17.465  0.00  0.00    +0.000 OA
ATOM      4  C   UNL     1       3.875   4.718  17.587  0.00  0.00    +0.000 A 
ATOM      5  N   UNL     1       4.801   4.158  16.830  0.00  0.00    +0.000 NA
ENDROOT
BRANCH   1   7
ATOM      6  O   UNL     1       7.605   5.561  15.407  0.00  0.00    +0.000 OA
ATOM      7  C   UNL     1       6.483   5.098  15.200  0.00  0.00    +0.000 C 
ATOM      8  N   UNL     1       6.302   4.421  13.968  0.00  0.00    +0.000 N 
ATOM      9  C   UNL     1       7.259   4.109  13.018  0.00  0.00    +0.000 A 
ATOM     10  C   UNL     1       6.616   3.458  11.995  0.00  0.00    +0.000 A 
ATOM     11  C   UNL     1       5.270   3.425  12.383  0.00  0.00    +0.000 A 
ATOM     12  N   UNL     1       5.066   3.993  13.570  0.00  0.00    +0.000 NA
ENDBRANCH   1   7
BRANCH   4  13
ATOM     13  C   UNL     1       2.930   4.117  18.518  0.00  0.00    +0.000 A 
ATOM     14  C   UNL     1       1.852   3.357  18.035  0.00  0.00    +0.000 A 
ATOM     15  C   UNL     1       0.939   2.774  18.919  0.00  0.00    +0.000 A 
ATOM     16  C   UNL     1       1.095   2.947  20.293  0.00  0.00    +0.000 A 
ATOM     17  C   UNL     1       2.161   3.697  20.771  0.00  0.00    +0.000 A 
ATOM     18  F   UNL     1       2.312   3.865  22.092  0.00  0.00    +0.000 F 
ATOM     19  C   UNL     1       3.075   4.279  19.903  0.00  0.00    +0.000 A 
ENDBRANCH   4  13
TORSDOF 2
ENDMDL
MODEL 4
REMARK VINA RESULT:      -7.8      1.039      1.457
REMARK  Name = 
REMARK  2 active torsions:
REMARK  status: ('A' for Active; 'I' for Inactive)
REMARK    1  A    between atoms: C_2  and  C_3
REMARK    2  A    between atoms: C_6  and  C_7
REMARK                            x       y       z     vdW  Elec       q    Type
REMARK                         _______ _______ _______ _____ _____    ______ ____
ROOT
ATOM      1  C   UNL     1       6.157   4.834  17.019  0.00  0.00    +0.000 A 
ATOM      2  C   UNL     1       6.655   4.434  18.239  0.00  0.00    +0.000 A 
ATOM      3  O   UNL     1       5.630   4.003  19.011  0.00  0.00    +0.000 OA
ATOM      4  C   UNL     1       4.522   4.162  18.225  0.00  0.00    +0.000 A 
ATOM      5  N   UNL     1       4.778   4.665  17.031  0.00  0.00    +0.000 NA
ENDROOT
BRANCH   1   7
ATOM      6  O   UNL     1       7.651   6.365  16.025  0.00  0.00    +0.000 OA
ATOM      7  C   UNL     1       6.912   5.389  15.896  0.00  0.00    +0.000 C 
ATOM      8  N   UNL     1       6.841   4.824  14.597  0.00  0.00    +0.000 N 
ATOM      9  C   UNL     1       7.588   5.156  13.482  0.00  0.00    +0.000 A 
ATOM     10  C   UNL     1       7.166   4.346  12.456  0.00  0.00    +0.000 A 
ATOM     11  C   UNL     1       6.149   3.562  13.017  0.00  0.00    +0.000 A 
ATOM     12  N   UNL     1       5.947   3.831  14.305  0.00  0.00    +0.000 NA
ENDBRANCH   1   7
BRANCH   4  13
ATOM     13  C   UNL     1       3.259   3.758  18.826  0.00  0.00    +0.000 A 
ATOM     14  C   UNL     1       2.177   3.387  18.011  0.00  0.00    +0.000 A 
ATOM     15  C   UNL     1       0.960   2.995  18.576  0.00  0.00    +0.000 A 
ATOM     16  C   UNL     1       0.812   2.973  19.961  0.00  0.00    +0.000 A 
ATOM     17  C   UNL     1       1.881   3.339  20.769  0.00  0.00    +0.000 A 
ATOM     18  F   UNL     1       1.741   3.319  22.101  0.00  0.00    +0.000 F 
ATOM     19  C   UNL     1       3.095   3.728  20.219  0.00  0.00    +0.000 A 
ENDBRANCH   4  13
TORSDOF 2
ENDMDL
MODEL 5
REMARK VINA RESULT:      -7.8      3.013      7.057
REMARK  Name = 
REMARK  2 active torsions:
REMARK  status: ('A' for Active; 'I' for Inactive)
REMARK    1  A    between atoms: C_2  and  C_3
REMARK    2  A    between atoms: C_6  and  C_7
REMARK                            x       y       z     vdW  Elec       q    Type
REMARK                         _______ _______ _______ _____ _____    ______ ____
ROOT
ATOM      1  C   UNL     1       4.646   4.064  17.944  0.00  0.00    +0.000 A 
ATOM      2  C   UNL     1       4.438   5.386  17.615  0.00  0.00    +0.000 A 
ATOM      3  O   UNL     1       4.915   5.608  16.369  0.00  0.00    +0.000 OA
ATOM      4  C   UNL     1       5.411   4.397  15.973  0.00  0.00    +0.000 A 
ATOM      5  N   UNL     1       5.288   3.444  16.878  0.00  0.00    +0.000 NA
ENDROOT
BRANCH   1   7
ATOM      6  O   UNL     1       5.162   2.868  19.910  0.00  0.00    +0.000 OA
ATOM      7  C   UNL     1       4.307   3.403  19.203  0.00  0.00    +0.000 C 
ATOM      8  N   UNL     1       2.974   3.352  19.685  0.00  0.00    +0.000 N 
ATOM      9  C   UNL     1       2.527   2.882  20.906  0.00  0.00    +0.000 A 
ATOM     10  C   UNL     1       1.162   3.029  20.921  0.00  0.00    +0.000 A 
ATOM     11  C   UNL     1       0.849   3.578  19.670  0.00  0.00    +0.000 A 
ATOM     12  N   UNL     1       1.928   3.785  18.918  0.00  0.00    +0.000 NA
ENDBRANCH   1   7
BRANCH   4  13
ATOM     13  C   UNL     1       5.988   4.357  14.636  0.00  0.00    +0.000 A 
ATOM     14  C   UNL     1       5.413   3.547  13.644  0.00  0.00    +0.000 A 
ATOM     15  C   UNL     1       5.957   3.502  12.357  0.00  0.00    +0.000 A 
ATOM     16  C   UNL     1       7.083   4.264  12.051  0.00  0.00    +0.000 A 
ATOM     17  C   UNL     1       7.652   5.065  13.031  0.00  0.00    +0.000 A 
ATOM     18  F   UNL     1       8.735   5.799  12.740  0.00  0.00    +0.000 F 
ATOM     19  C   UNL     1       7.119   5.120  14.312  0.00  0.00    +0.000 A 
ENDBRANCH   4  13
TORSDOF 2
ENDMDL
MODEL 6
REMARK VINA RESULT:      -7.7      2.503      6.586
REMARK  Name = 
REMARK  2 active torsions:
REMARK  status: ('A' for Active; 'I' for Inactive)
REMARK    1  A    between atoms: C_2  and  C_3
REMARK    2  A    between atoms: C_6  and  C_7
REMARK                            x       y       z     vdW  Elec       q    Type
REMARK                         _______ _______ _______ _____ _____    ______ ____
ROOT
ATOM      1  C   UNL     1       4.744   4.806  17.872  0.00  0.00    +0.000 A 
ATOM      2  C   UNL     1       6.074   4.563  18.134  0.00  0.00    +0.000 A 
ATOM      3  O   UNL     1       6.728   4.395  16.962  0.00  0.00    +0.000 OA
ATOM      4  C   UNL     1       5.759   4.539  16.008  0.00  0.00    +0.000 A 
ATOM      5  N   UNL     1       4.555   4.773  16.495  0.00  0.00    +0.000 NA
ENDROOT
BRANCH   1   7
ATOM      6  O   UNL     1       3.593   6.058  19.507  0.00  0.00    +0.000 OA
ATOM      7  C   UNL     1       3.676   5.021  18.847  0.00  0.00    +0.000 C 
ATOM      8  N   UNL     1       2.669   4.050  19.078  0.00  0.00    +0.000 N 
ATOM      9  C   UNL     1       1.537   4.166  19.864  0.00  0.00    +0.000 A 
ATOM     10  C   UNL     1       0.865   2.971  19.786  0.00  0.00    +0.000 A 
ATOM     11  C   UNL     1       1.657   2.172  18.950  0.00  0.00    +0.000 A 
ATOM     12  N   UNL     1       2.741   2.808  18.510  0.00  0.00    +0.000 NA
ENDBRANCH   1   7
BRANCH   4  13
ATOM     13  C   UNL     1       6.208   4.409  14.628  0.00  0.00    +0.000 A 
ATOM     14  C   UNL     1       7.313   5.146  14.174  0.00  0.00    +0.000 A 
ATOM     15  C   UNL     1       7.754   5.029  12.852  0.00  0.00    +0.000 A 
ATOM     16  C   UNL     1       7.091   4.176  11.972  0.00  0.00    +0.000 A 
ATOM     17  C   UNL     1       5.998   3.447  12.419  0.00  0.00    +0.000 A 
ATOM     18  F   UNL     1       5.359   2.626  11.575  0.00  0.00    +0.000 F 
ATOM     19  C   UNL     1       5.553   3.553  13.730  0.00  0.00    +0.000 A 
ENDBRANCH   4  13
TORSDOF 2
ENDMDL
MODEL 7
REMARK VINA RESULT:      -7.7      2.586      6.800
REMARK  Name = 
REMARK  2 active torsions:
REMARK  status: ('A' for Active; 'I' for Inactive)
REMARK    1  A    between atoms: C_2  and  C_3
REMARK    2  A    between atoms: C_6  and  C_7
REMARK                            x       y       z     vdW  Elec       q    Type
REMARK                         _______ _______ _______ _____ _____    ______ ____
ROOT
ATOM      1  C   UNL     1       4.718   4.220  17.757  0.00  0.00    +0.000 A 
ATOM      2  C   UNL     1       4.574   5.537  17.380  0.00  0.00    +0.000 A 
ATOM      3  O   UNL     1       5.031   5.683  16.115  0.00  0.00    +0.000 OA
ATOM      4  C   UNL     1       5.450   4.431  15.758  0.00  0.00    +0.000 A 
ATOM      5  N   UNL     1       5.298   3.523  16.703  0.00  0.00    +0.000 NA
ENDROOT
BRANCH   1   7
ATOM      6  O   UNL     1       5.237   3.279  19.857  0.00  0.00    +0.000 OA
ATOM      7  C   UNL     1       4.375   3.628  19.049  0.00  0.00    +0.000 C 
ATOM      8  N   UNL     1       3.028   3.434  19.448  0.00  0.00    +0.000 N 
ATOM      9  C   UNL     1       2.555   3.013  20.678  0.00  0.00    +0.000 A 
ATOM     10  C   UNL     1       1.186   2.970  20.592  0.00  0.00    +0.000 A 
ATOM     11  C   UNL     1       0.899   3.362  19.277  0.00  0.00    +0.000 A 
ATOM     12  N   UNL     1       1.994   3.651  18.579  0.00  0.00    +0.000 NA
ENDBRANCH   1   7
BRANCH   4  13
ATOM     13  C   UNL     1       5.990   4.307  14.411  0.00  0.00    +0.000 A 
ATOM     14  C   UNL     1       7.111   5.062  14.028  0.00  0.00    +0.000 A 
ATOM     15  C   UNL     1       7.640   4.950  12.739  0.00  0.00    +0.000 A 
ATOM     16  C   UNL     1       7.051   4.084  11.819  0.00  0.00    +0.000 A 
ATOM     17  C   UNL     1       5.943   3.337  12.196  0.00  0.00    +0.000 A 
ATOM     18  F   UNL     1       5.376   2.504  11.314  0.00  0.00    +0.000 F 
ATOM     19  C   UNL     1       5.411   3.438  13.475  0.00  0.00    +0.000 A 
ENDBRANCH   4  13
TORSDOF 2
ENDMDL
MODEL 8
REMARK VINA RESULT:      -7.6      2.966      6.861
REMARK  Name = 
REMARK  2 active torsions:
REMARK  status: ('A' for Active; 'I' for Inactive)
REMARK    1  A    between atoms: C_2  and  C_3
REMARK    2  A    between atoms: C_6  and  C_7
REMARK                            x       y       z     vdW  Elec       q    Type
REMARK                         _______ _______ _______ _____ _____    ______ ____
ROOT
ATOM      1  C   UNL     1       4.617   4.911  18.037  0.00  0.00    +0.000 A 
ATOM      2  C   UNL     1       5.916   4.565  18.338  0.00  0.00    +0.000 A 
ATOM      3  O   UNL     1       6.598   4.382  17.184  0.00  0.00    +0.000 OA
ATOM      4  C   UNL     1       5.677   4.621  16.202  0.00  0.00    +0.000 A 
ATOM      5  N   UNL     1       4.476   4.929  16.655  0.00  0.00    +0.000 NA
ENDROOT
BRANCH   1   7
ATOM      6  O   UNL     1       3.358   6.289  19.480  0.00  0.00    +0.000 OA
ATOM      7  C   UNL     1       3.532   5.177  18.982  0.00  0.00    +0.000 C 
ATOM      8  N   UNL     1       2.613   4.168  19.366  0.00  0.00    +0.000 N 
ATOM      9  C   UNL     1       1.473   4.302  20.138  0.00  0.00    +0.000 A 
ATOM     10  C   UNL     1       0.908   3.055  20.247  0.00  0.00    +0.000 A 
ATOM     11  C   UNL     1       1.768   2.211  19.531  0.00  0.00    +0.000 A 
ATOM     12  N   UNL     1       2.793   2.865  18.989  0.00  0.00    +0.000 NA
ENDBRANCH   1   7
BRANCH   4  13
ATOM     13  C   UNL     1       6.164   4.497  14.835  0.00  0.00    +0.000 A 
ATOM     14  C   UNL     1       5.525   3.629  13.935  0.00  0.00    +0.000 A 
ATOM     15  C   UNL     1       5.983   3.502  12.620  0.00  0.00    +0.000 A 
ATOM     16  C   UNL     1       7.085   4.240  12.194  0.00  0.00    +0.000 A 
ATOM     17  C   UNL     1       7.717   5.099  13.082  0.00  0.00    +0.000 A 
ATOM     18  F   UNL     1       8.777   5.811  12.675  0.00  0.00    +0.000 F 
ATOM     19  C   UNL     1       7.270   5.235  14.390  0.00  0.00    +0.000 A 
ENDBRANCH   4  13
TORSDOF 2
ENDMDL
MODEL 9
REMARK VINA RESULT:      -7.5      2.577      6.734
REMARK  Name = 
REMARK  2 active torsions:
REMARK  status: ('A' for Active; 'I' for Inactive)
REMARK    1  A    between atoms: C_2  and  C_3
REMARK    2  A    between atoms: C_6  and  C_7
REMARK                            x       y       z     vdW  Elec       q    Type
REMARK                         _______ _______ _______ _____ _____    ______ ____
ROOT
ATOM      1  C   UNL     1       5.368   4.219  17.938  0.00  0.00    +0.000 A 
ATOM      2  C   UNL     1       6.668   4.660  18.045  0.00  0.00    +0.000 A 
ATOM      3  O   UNL     1       7.209   4.732  16.807  0.00  0.00    +0.000 OA
ATOM      4  C   UNL     1       6.207   4.321  15.973  0.00  0.00    +0.000 A 
ATOM      5  N   UNL     1       5.090   3.992  16.595  0.00  0.00    +0.000 NA
ENDROOT
BRANCH   1   7
ATOM      6  O   UNL     1       4.398   2.908  19.643  0.00  0.00    +0.000 OA
ATOM      7  C   UNL     1       4.424   3.976  19.029  0.00  0.00    +0.000 C 
ATOM      8  N   UNL     1       3.496   4.962  19.448  0.00  0.00    +0.000 N 
ATOM      9  C   UNL     1       2.643   4.923  20.536  0.00  0.00    +0.000 A 
ATOM     10  C   UNL     1       1.932   6.097  20.535  0.00  0.00    +0.000 A 
ATOM     11  C   UNL     1       2.393   6.792  19.409  0.00  0.00    +0.000 A 
ATOM     12  N   UNL     1       3.338   6.127  18.749  0.00  0.00    +0.000 NA
ENDBRANCH   1   7
BRANCH   4  13
ATOM     13  C   UNL     1       6.531   4.312  14.553  0.00  0.00    +0.000 A 
ATOM     14  C   UNL     1       7.475   5.216  14.040  0.00  0.00    +0.000 A 
ATOM     15  C   UNL     1       7.796   5.216  12.679  0.00  0.00    +0.000 A 
ATOM     16  C   UNL     1       7.173   4.314  11.818  0.00  0.00    +0.000 A 
ATOM     17  C   UNL     1       6.240   3.419  12.324  0.00  0.00    +0.000 A 
ATOM     18  F   UNL     1       5.640   2.551  11.499  0.00  0.00    +0.000 F 
ATOM     19  C   UNL     1       5.916   3.408  13.674  0.00  0.00    +0.000 A 
ENDBRANCH   4  13
TORSDOF 2
ENDMDL
