MODEL 1
REMARK VINA RESULT:      -8.4      0.000      0.000
REMARK  Name = 
REMARK  9 active torsions:
REMARK  status: ('A' for Active; 'I' for Inactive)
REMARK    1  A    between atoms: C_1  and  C_2
REMARK    2  A    between atoms: C_2  and  C_3
REMARK    3  A    between atoms: C_3  and  N_4
REMARK    4  A    between atoms: N_4  and  C_5
REMARK    5  A    between atoms: C_5  and  C_6
REMARK    6  A    between atoms: C_10  and  O_11
REMARK    7  A    between atoms: O_11  and  C_12
REMARK    8  A    between atoms: C_17  and  O_18
REMARK    9  A    between atoms: C_19  and  C_21
REMARK                            x       y       z     vdW  Elec       q    Type
REMARK                         _______ _______ _______ _____ _____    ______ ____
ROOT
ATOM      1  C   UNL     1       2.361   6.953  19.632  0.00  0.00    +0.000 A 
ATOM      2  C   UNL     1       1.606   7.359  20.743  0.00  0.00    +0.000 A 
ATOM      3  C   UNL     1       1.038   8.653  20.798  0.00  0.00    +0.000 A 
ATOM      4  C   UNL     1       0.461   9.191  21.970  0.00  0.00    +0.000 A 
ATOM      5  C   UNL     1      -0.052  10.494  21.999  0.00  0.00    +0.000 A 
ATOM      6  C   UNL     1      -0.016  11.256  20.837  0.00  0.00    +0.000 A 
ATOM      7  C   UNL     1       0.561  10.724  19.677  0.00  0.00    +0.000 A 
ATOM      8  C   UNL     1       1.113   9.449  19.641  0.00  0.00    +0.000 A 
ATOM      9  N   UNL     1       1.732   9.036  18.526  0.00  0.00    +0.000 NA
ATOM     10  C   UNL     1       2.349   7.841  18.569  0.00  0.00    +0.000 A 
ENDROOT
BRANCH   5  11
ATOM     11  O   UNL     1      -0.535  10.904  23.211  0.00  0.00    +0.000 OA
ATOM     12  C   UNL     1      -1.749  11.651  23.212  0.00  0.00    +0.000 C 
ENDBRANCH   5  11
BRANCH  10  13
ATOM     13  O   UNL     1       3.059   7.596  17.441  0.00  0.00    +0.000 OA
ATOM     14  H   UNL     1       3.924   7.371  17.832  0.00  0.00    +0.000 HD
ENDBRANCH  10  13
BRANCH   1  15
ATOM     15  C   UNL     1       3.333   5.788  19.612  0.00  0.00    +0.000 C 
BRANCH  15  16
ATOM     16  N   UNL     1       2.914   4.551  18.955  0.00  0.00    +0.000 N 
ATOM     17  C   UNL     1       3.587   3.868  17.919  0.00  0.00    +0.000 C 
ATOM     18  O   UNL     1       3.035   2.911  17.355  0.00  0.00    +0.000 OA
BRANCH  17  19
ATOM     19  C   UNL     1       4.973   4.201  17.411  0.00  0.00    +0.000 A 
ATOM     20  C   UNL     1       6.126   4.391  18.171  0.00  0.00    +0.000 A 
ATOM     21  C   UNL     1       7.335   4.669  17.554  0.00  0.00    +0.000 A 
ATOM     22  N   UNL     1       7.487   4.772  16.229  0.00  0.00    +0.000 NA
ATOM     23  C   UNL     1       6.379   4.581  15.486  0.00  0.00    +0.000 A 
ATOM     24  C   UNL     1       5.129   4.295  16.019  0.00  0.00    +0.000 A 
ENDBRANCH  17  19
BRANCH  16  25
ATOM     25  C   UNL     1       1.547   4.096  19.290  0.00  0.00    +0.000 C 
BRANCH  25  27
ATOM     26  C   UNL     1       2.434   2.775  21.333  0.00  0.00    +0.000 C 
ATOM     27  C   UNL     1       1.329   3.641  20.749  0.00  0.00    +0.000 C 
ENDBRANCH  25  27
ENDBRANCH  16  25
ENDBRANCH  15  16
ENDBRANCH   1  15
TORSDOF 7
ENDMDL
MODEL 2
REMARK VINA RESULT:      -7.8      3.142      8.122
REMARK  Name = 
REMARK  9 active torsions:
REMARK  status: ('A' for Active; 'I' for Inactive)
REMARK    1  A    between atoms: C_1  and  C_2
REMARK    2  A    between atoms: C_2  and  C_3
REMARK    3  A    between atoms: C_3  and  N_4
REMARK    4  A    between atoms: N_4  and  C_5
REMARK    5  A    between atoms: C_5  and  C_6
REMARK    6  A    between atoms: C_10  and  O_11
REMARK    7  A    between atoms: O_11  and  C_12
REMARK    8  A    between atoms: C_17  and  O_18
REMARK    9  A    between atoms: C_19  and  C_21
REMARK                            x       y       z     vdW  Elec       q    Type
REMARK                         _______ _______ _______ _____ _____    ______ ____
ROOT
ATOM      1  C   UNL     1       5.781   5.479  16.552  0.00  0.00    +0.000 A 
ATOM      2  C   UNL     1       5.172   4.555  15.690  0.00  0.00    +0.000 A 
ATOM      3  C   UNL     1       5.727   4.276  14.420  0.00  0.00    +0.000 A 
ATOM      4  C   UNL     1       5.048   3.530  13.430  0.00  0.00    +0.000 A 
ATOM      5  C   UNL     1       5.611   3.311  12.167  0.00  0.00    +0.000 A 
ATOM      6  C   UNL     1       6.877   3.816  11.899  0.00  0.00    +0.000 A 
ATOM      7  C   UNL     1       7.548   4.560  12.878  0.00  0.00    +0.000 A 
ATOM      8  C   UNL     1       6.988   4.823  14.123  0.00  0.00    +0.000 A 
ATOM      9  N   UNL     1       7.643   5.619  14.979  0.00  0.00    +0.000 NA
ATOM     10  C   UNL     1       7.017   5.939  16.127  0.00  0.00    +0.000 A 
ENDROOT
BRANCH   5  11
ATOM     11  O   UNL     1       4.824   2.616  11.290  0.00  0.00    +0.000 OA
ATOM     12  C   UNL     1       3.644   3.261  10.817  0.00  0.00    +0.000 C 
ENDBRANCH   5  11
BRANCH  10  13
ATOM     13  O   UNL     1       7.709   6.859  16.842  0.00  0.00    +0.000 OA
ATOM     14  H   UNL     1       7.569   6.512  17.743  0.00  0.00    +0.000 HD
ENDBRANCH  10  13
BRANCH   1  15
ATOM     15  C   UNL     1       5.106   6.156  17.730  0.00  0.00    +0.000 C 
BRANCH  15  16
ATOM     16  N   UNL     1       3.645   6.182  17.766  0.00  0.00    +0.000 N 
ATOM     17  C   UNL     1       2.781   5.092  18.008  0.00  0.00    +0.000 C 
ATOM     18  O   UNL     1       1.558   5.233  17.857  0.00  0.00    +0.000 OA
BRANCH  17  19
ATOM     19  C   UNL     1       3.219   3.714  18.454  0.00  0.00    +0.000 A 
ATOM     20  C   UNL     1       3.069   2.515  17.757  0.00  0.00    +0.000 A 
ATOM     21  C   UNL     1       3.547   1.329  18.291  0.00  0.00    +0.000 A 
ATOM     22  N   UNL     1       4.167   1.242  19.472  0.00  0.00    +0.000 NA
ATOM     23  C   UNL     1       4.324   2.397  20.148  0.00  0.00    +0.000 A 
ATOM     24  C   UNL     1       3.881   3.630  19.688  0.00  0.00    +0.000 A 
ENDBRANCH  17  19
BRANCH  16  25
ATOM     25  C   UNL     1       3.029   7.444  17.303  0.00  0.00    +0.000 C 
BRANCH  25  27
ATOM     26  C   UNL     1       1.697   9.583  17.906  0.00  0.00    +0.000 C 
ATOM     27  C   UNL     1       2.359   8.304  18.397  0.00  0.00    +0.000 C 
ENDBRANCH  25  27
ENDBRANCH  16  25
ENDBRANCH  15  16
ENDBRANCH   1  15
TORSDOF 7
ENDMDL
MODEL 3
REMARK VINA RESULT:      -7.8      1.376      4.008
REMARK  Name = 
REMARK  9 active torsions:
REMARK  status: ('A' for Active; 'I' for Inactive)
REMARK    1  A    between atoms: C_1  and  C_2
REMARK    2  A    between atoms: C_2  and  C_3
REMARK    3  A    between atoms: C_3  and  N_4
REMARK    4  A    between atoms: N_4  and  C_5
REMARK    5  A    between atoms: C_5  and  C_6
REMARK    6  A    between atoms: C_10  and  O_11
REMARK    7  A    between atoms: O_11  and  C_12
REMARK    8  A    between atoms: C_17  and  O_18
REMARK    9  A    between atoms: C_19  and  C_21
REMARK                            x       y       z     vdW  Elec       q    Type
REMARK                         _______ _______ _______ _____ _____    ______ ____
ROOT
ATOM      1  C   UNL     1       3.629   6.193  18.427  0.00  0.00    +0.000 A 
ATOM      2  C   UNL     1       2.800   6.354  19.547  0.00  0.00    +0.000 A 
ATOM      3  C   UNL     1       2.052   7.540  19.730  0.00  0.00    +0.000 A 
ATOM      4  C   UNL     1       1.378   7.847  20.934  0.00  0.00    +0.000 A 
ATOM      5  C   UNL     1       0.685   9.053  21.094  0.00  0.00    +0.000 A 
ATOM      6  C   UNL     1       0.637   9.947  20.032  0.00  0.00    +0.000 A 
ATOM      7  C   UNL     1       1.309   9.645  18.841  0.00  0.00    +0.000 A 
ATOM      8  C   UNL     1       2.038   8.473  18.678  0.00  0.00    +0.000 A 
ATOM      9  N   UNL     1       2.734   8.288  17.548  0.00  0.00    +0.000 NA
ATOM     10  C   UNL     1       3.515   7.193  17.475  0.00  0.00    +0.000 A 
ENDROOT
BRANCH   5  11
ATOM     11  O   UNL     1       0.121   9.242  22.326  0.00  0.00    +0.000 OA
ATOM     12  C   UNL     1      -0.523  10.491  22.566  0.00  0.00    +0.000 C 
ENDBRANCH   5  11
BRANCH  10  13
ATOM     13  O   UNL     1       4.277   7.188  16.354  0.00  0.00    +0.000 OA
ATOM     14  H   UNL     1       3.878   6.433  15.884  0.00  0.00    +0.000 HD
ENDBRANCH  10  13
BRANCH   1  15
ATOM     15  C   UNL     1       4.758   5.186  18.309  0.00  0.00    +0.000 C 
BRANCH  15  16
ATOM     16  N   UNL     1       4.495   3.936  17.598  0.00  0.00    +0.000 N 
ATOM     17  C   UNL     1       3.740   2.837  18.062  0.00  0.00    +0.000 C 
ATOM     18  O   UNL     1       3.728   1.782  17.411  0.00  0.00    +0.000 OA
BRANCH  17  19
ATOM     19  C   UNL     1       2.908   2.821  19.326  0.00  0.00    +0.000 A 
ATOM     20  C   UNL     1       3.364   2.647  20.633  0.00  0.00    +0.000 A 
ATOM     21  C   UNL     1       2.475   2.680  21.696  0.00  0.00    +0.000 A 
ATOM     22  N   UNL     1       1.159   2.876  21.559  0.00  0.00    +0.000 NA
ATOM     23  C   UNL     1       0.712   3.053  20.300  0.00  0.00    +0.000 A 
ATOM     24  C   UNL     1       1.530   3.039  19.178  0.00  0.00    +0.000 A 
ENDBRANCH  17  19
BRANCH  16  25
ATOM     25  C   UNL     1       5.270   3.748  16.353  0.00  0.00    +0.000 C 
BRANCH  25  27
ATOM     26  C   UNL     1       7.054   4.899  14.869  0.00  0.00    +0.000 C 
ATOM     27  C   UNL     1       6.607   4.517  16.272  0.00  0.00    +0.000 C 
ENDBRANCH  25  27
ENDBRANCH  16  25
ENDBRANCH  15  16
ENDBRANCH   1  15
TORSDOF 7
ENDMDL
MODEL 4
REMARK VINA RESULT:      -7.8      1.391      4.032
REMARK  Name = 
REMARK  9 active torsions:
REMARK  status: ('A' for Active; 'I' for Inactive)
REMARK    1  A    between atoms: C_1  and  C_2
REMARK    2  A    between atoms: C_2  and  C_3
REMARK    3  A    between atoms: C_3  and  N_4
REMARK    4  A    between atoms: N_4  and  C_5
REMARK    5  A    between atoms: C_5  and  C_6
REMARK    6  A    between atoms: C_10  and  O_11
REMARK    7  A    between atoms: O_11  and  C_12
REMARK    8  A    between atoms: C_17  and  O_18
REMARK    9  A    between atoms: C_19  and  C_21
REMARK                            x       y       z     vdW  Elec       q    Type
REMARK                         _______ _______ _______ _____ _____    ______ ____
ROOT
ATOM      1  C   UNL     1       3.690   6.322  18.624  0.00  0.00    +0.000 A 
ATOM      2  C   UNL     1       2.809   6.411  19.712  0.00  0.00    +0.000 A 
ATOM      3  C   UNL     1       1.967   7.535  19.872  0.00  0.00    +0.000 A 
ATOM      4  C   UNL     1       1.226   7.780  21.051  0.00  0.00    +0.000 A 
ATOM      5  C   UNL     1       0.437   8.929  21.190  0.00  0.00    +0.000 A 
ATOM      6  C   UNL     1       0.362   9.825  20.130  0.00  0.00    +0.000 A 
ATOM      7  C   UNL     1       1.099   9.584  18.965  0.00  0.00    +0.000 A 
ATOM      8  C   UNL     1       1.921   8.472  18.824  0.00  0.00    +0.000 A 
ATOM      9  N   UNL     1       2.671   8.349  17.720  0.00  0.00    +0.000 NA
ATOM     10  C   UNL     1       3.535   7.318  17.673  0.00  0.00    +0.000 A 
ENDROOT
BRANCH   5  11
ATOM     11  O   UNL     1      -0.186   9.065  22.400  0.00  0.00    +0.000 OA
ATOM     12  C   UNL     1      -0.555  10.383  22.801  0.00  0.00    +0.000 C 
ENDBRANCH   5  11
BRANCH  10  13
ATOM     13  O   UNL     1       4.337   7.379  16.582  0.00  0.00    +0.000 OA
ATOM     14  H   UNL     1       4.846   8.184  16.792  0.00  0.00    +0.000 HD
ENDBRANCH  10  13
BRANCH   1  15
ATOM     15  C   UNL     1       4.896   5.405  18.544  0.00  0.00    +0.000 C 
BRANCH  15  16
ATOM     16  N   UNL     1       4.775   4.173  17.767  0.00  0.00    +0.000 N 
ATOM     17  C   UNL     1       3.962   3.057  18.063  0.00  0.00    +0.000 C 
ATOM     18  O   UNL     1       4.076   2.020  17.392  0.00  0.00    +0.000 OA
BRANCH  17  19
ATOM     19  C   UNL     1       2.921   3.002  19.160  0.00  0.00    +0.000 A 
ATOM     20  C   UNL     1       1.542   3.157  19.021  0.00  0.00    +0.000 A 
ATOM     21  C   UNL     1       0.711   3.055  20.126  0.00  0.00    +0.000 A 
ATOM     22  N   UNL     1       1.148   2.808  21.365  0.00  0.00    +0.000 NA
ATOM     23  C   UNL     1       2.479   2.649  21.506  0.00  0.00    +0.000 A 
ATOM     24  C   UNL     1       3.384   2.730  20.456  0.00  0.00    +0.000 A 
ENDBRANCH  17  19
BRANCH  16  25
ATOM     25  C   UNL     1       5.759   4.023  16.674  0.00  0.00    +0.000 C 
BRANCH  25  27
ATOM     26  C   UNL     1       6.097   3.919  14.108  0.00  0.00    +0.000 C 
ATOM     27  C   UNL     1       5.278   4.456  15.272  0.00  0.00    +0.000 C 
ENDBRANCH  25  27
ENDBRANCH  16  25
ENDBRANCH  15  16
ENDBRANCH   1  15
TORSDOF 7
ENDMDL
MODEL 5
REMARK VINA RESULT:      -7.8      2.641      8.331
REMARK  Name = 
REMARK  9 active torsions:
REMARK  status: ('A' for Active; 'I' for Inactive)
REMARK    1  A    between atoms: C_1  and  C_2
REMARK    2  A    between atoms: C_2  and  C_3
REMARK    3  A    between atoms: C_3  and  N_4
REMARK    4  A    between atoms: N_4  and  C_5
REMARK    5  A    between atoms: C_5  and  C_6
REMARK    6  A    between atoms: C_10  and  O_11
REMARK    7  A    between atoms: O_11  and  C_12
REMARK    8  A    between atoms: C_17  and  O_18
REMARK    9  A    between atoms: C_19  and  C_21
REMARK                            x       y       z     vdW  Elec       q    Type
REMARK                         _______ _______ _______ _____ _____    ______ ____
ROOT
ATOM      1  C   UNL     1       5.714   5.626  16.534  0.00  0.00    +0.000 A 
ATOM      2  C   UNL     1       5.098   4.706  15.671  0.00  0.00    +0.000 A 
ATOM      3  C   UNL     1       5.691   4.365  14.433  0.00  0.00    +0.000 A 
ATOM      4  C   UNL     1       5.019   3.623  13.437  0.00  0.00    +0.000 A 
ATOM      5  C   UNL     1       5.623   3.343  12.204  0.00  0.00    +0.000 A 
ATOM      6  C   UNL     1       6.921   3.782  11.978  0.00  0.00    +0.000 A 
ATOM      7  C   UNL     1       7.585   4.522  12.963  0.00  0.00    +0.000 A 
ATOM      8  C   UNL     1       6.988   4.846  14.176  0.00  0.00    +0.000 A 
ATOM      9  N   UNL     1       7.643   5.636  15.038  0.00  0.00    +0.000 NA
ATOM     10  C   UNL     1       6.986   6.017  16.149  0.00  0.00    +0.000 A 
ENDROOT
BRANCH   5  11
ATOM     11  O   UNL     1       4.841   2.659  11.314  0.00  0.00    +0.000 OA
ATOM     12  C   UNL     1       3.616   3.269  10.916  0.00  0.00    +0.000 C 
ENDBRANCH   5  11
BRANCH  10  13
ATOM     13  O   UNL     1       7.690   6.924  16.868  0.00  0.00    +0.000 OA
ATOM     14  H   UNL     1       8.586   6.755  16.521  0.00  0.00    +0.000 HD
ENDBRANCH  10  13
BRANCH   1  15
ATOM     15  C   UNL     1       5.023   6.366  17.663  0.00  0.00    +0.000 C 
BRANCH  15  16
ATOM     16  N   UNL     1       4.256   5.586  18.632  0.00  0.00    +0.000 N 
ATOM     17  C   UNL     1       3.130   6.014  19.368  0.00  0.00    +0.000 C 
ATOM     18  O   UNL     1       2.672   5.292  20.267  0.00  0.00    +0.000 OA
BRANCH  17  19
ATOM     19  C   UNL     1       2.395   7.321  19.158  0.00  0.00    +0.000 A 
ATOM     20  C   UNL     1       2.216   8.002  17.955  0.00  0.00    +0.000 A 
ATOM     21  C   UNL     1       1.493   9.184  17.920  0.00  0.00    +0.000 A 
ATOM     22  N   UNL     1       0.930   9.744  18.997  0.00  0.00    +0.000 NA
ATOM     23  C   UNL     1       1.091   9.087  20.162  0.00  0.00    +0.000 A 
ATOM     24  C   UNL     1       1.795   7.897  20.289  0.00  0.00    +0.000 A 
ENDBRANCH  17  19
BRANCH  16  25
ATOM     25  C   UNL     1       4.856   4.288  19.008  0.00  0.00    +0.000 C 
BRANCH  25  27
ATOM     26  C   UNL     1       4.025   1.901  19.575  0.00  0.00    +0.000 C 
ATOM     27  C   UNL     1       4.077   3.032  18.560  0.00  0.00    +0.000 C 
ENDBRANCH  25  27
ENDBRANCH  16  25
ENDBRANCH  15  16
ENDBRANCH   1  15
TORSDOF 7
ENDMDL
MODEL 6
REMARK VINA RESULT:      -7.7      1.031      1.527
REMARK  Name = 
REMARK  9 active torsions:
REMARK  status: ('A' for Active; 'I' for Inactive)
REMARK    1  A    between atoms: C_1  and  C_2
REMARK    2  A    between atoms: C_2  and  C_3
REMARK    3  A    between atoms: C_3  and  N_4
REMARK    4  A    between atoms: N_4  and  C_5
REMARK    5  A    between atoms: C_5  and  C_6
REMARK    6  A    between atoms: C_10  and  O_11
REMARK    7  A    between atoms: O_11  and  C_12
REMARK    8  A    between atoms: C_17  and  O_18
REMARK    9  A    between atoms: C_19  and  C_21
REMARK                            x       y       z     vdW  Elec       q    Type
REMARK                         _______ _______ _______ _____ _____    ______ ____
ROOT
ATOM      1  C   UNL     1       3.020   6.590  19.264  0.00  0.00    +0.000 A 
ATOM      2  C   UNL     1       2.063   7.025  20.193  0.00  0.00    +0.000 A 
ATOM      3  C   UNL     1       1.392   8.257  20.019  0.00  0.00    +0.000 A 
ATOM      4  C   UNL     1       0.589   8.845  21.022  0.00  0.00    +0.000 A 
ATOM      5  C   UNL     1      -0.024  10.090  20.829  0.00  0.00    +0.000 A 
ATOM      6  C   UNL     1       0.141  10.738  19.611  0.00  0.00    +0.000 A 
ATOM      7  C   UNL     1       0.941  10.158  18.619  0.00  0.00    +0.000 A 
ATOM      8  C   UNL     1       1.592   8.944  18.807  0.00  0.00    +0.000 A 
ATOM      9  N   UNL     1       2.416   8.490  17.854  0.00  0.00    +0.000 NA
ATOM     10  C   UNL     1       3.112   7.369  18.122  0.00  0.00    +0.000 A 
ENDROOT
BRANCH   5  11
ATOM     11  O   UNL     1      -0.731  10.564  21.899  0.00  0.00    +0.000 OA
ATOM     12  C   UNL     1      -0.474   9.967  23.168  0.00  0.00    +0.000 C 
ENDBRANCH   5  11
BRANCH  10  13
ATOM     13  O   UNL     1       4.015   7.088  17.150  0.00  0.00    +0.000 OA
ATOM     14  H   UNL     1       4.178   7.987  16.808  0.00  0.00    +0.000 HD
ENDBRANCH  10  13
BRANCH   1  15
ATOM     15  C   UNL     1       4.072   5.528  19.521  0.00  0.00    +0.000 C 
BRANCH  15  16
ATOM     16  N   UNL     1       3.788   4.159  19.095  0.00  0.00    +0.000 N 
ATOM     17  C   UNL     1       4.242   3.524  17.918  0.00  0.00    +0.000 C 
ATOM     18  O   UNL     1       3.797   2.407  17.612  0.00  0.00    +0.000 OA
BRANCH  17  19
ATOM     19  C   UNL     1       5.261   4.094  16.955  0.00  0.00    +0.000 A 
ATOM     20  C   UNL     1       5.108   4.286  15.583  0.00  0.00    +0.000 A 
ATOM     21  C   UNL     1       6.132   4.846  14.835  0.00  0.00    +0.000 A 
ATOM     22  N   UNL     1       7.304   5.232  15.350  0.00  0.00    +0.000 NA
ATOM     23  C   UNL     1       7.456   5.057  16.678  0.00  0.00    +0.000 A 
ATOM     24  C   UNL     1       6.484   4.510  17.504  0.00  0.00    +0.000 A 
ENDBRANCH  17  19
BRANCH  16  25
ATOM     25  C   UNL     1       2.762   3.454  19.892  0.00  0.00    +0.000 C 
BRANCH  25  27
ATOM     26  C   UNL     1       0.678   2.336  18.835  0.00  0.00    +0.000 C 
ATOM     27  C   UNL     1       1.307   3.602  19.395  0.00  0.00    +0.000 C 
ENDBRANCH  25  27
ENDBRANCH  16  25
ENDBRANCH  15  16
ENDBRANCH   1  15
TORSDOF 7
ENDMDL
MODEL 7
REMARK VINA RESULT:      -7.5      3.115      8.172
REMARK  Name = 
REMARK  9 active torsions:
REMARK  status: ('A' for Active; 'I' for Inactive)
REMARK    1  A    between atoms: C_1  and  C_2
REMARK    2  A    between atoms: C_2  and  C_3
REMARK    3  A    between atoms: C_3  and  N_4
REMARK    4  A    between atoms: N_4  and  C_5
REMARK    5  A    between atoms: C_5  and  C_6
REMARK    6  A    between atoms: C_10  and  O_11
REMARK    7  A    between atoms: O_11  and  C_12
REMARK    8  A    between atoms: C_17  and  O_18
REMARK    9  A    between atoms: C_19  and  C_21
REMARK                            x       y       z     vdW  Elec       q    Type
REMARK                         _______ _______ _______ _____ _____    ______ ____
ROOT
ATOM      1  C   UNL     1       5.842   5.280  17.022  0.00  0.00    +0.000 A 
ATOM      2  C   UNL     1       5.339   4.344  16.105  0.00  0.00    +0.000 A 
ATOM      3  C   UNL     1       5.882   4.241  14.804  0.00  0.00    +0.000 A 
ATOM      4  C   UNL     1       5.280   3.481  13.776  0.00  0.00    +0.000 A 
ATOM      5  C   UNL     1       5.823   3.439  12.486  0.00  0.00    +0.000 A 
ATOM      6  C   UNL     1       6.996   4.137  12.228  0.00  0.00    +0.000 A 
ATOM      7  C   UNL     1       7.590   4.895  13.244  0.00  0.00    +0.000 A 
ATOM      8  C   UNL     1       7.043   4.983  14.519  0.00  0.00    +0.000 A 
ATOM      9  N   UNL     1       7.609   5.800  15.419  0.00  0.00    +0.000 NA
ATOM     10  C   UNL     1       6.985   5.942  16.603  0.00  0.00    +0.000 A 
ENDROOT
BRANCH   5  11
ATOM     11  O   UNL     1       5.112   2.704  11.578  0.00  0.00    +0.000 OA
ATOM     12  C   UNL     1       3.876   3.249  11.121  0.00  0.00    +0.000 C 
ENDBRANCH   5  11
BRANCH  10  13
ATOM     13  O   UNL     1       7.566   6.896  17.370  0.00  0.00    +0.000 OA
ATOM     14  H   UNL     1       7.958   7.456  16.675  0.00  0.00    +0.000 HD
ENDBRANCH  10  13
BRANCH   1  15
ATOM     15  C   UNL     1       5.121   5.765  18.265  0.00  0.00    +0.000 C 
BRANCH  15  16
ATOM     16  N   UNL     1       3.688   6.037  18.168  0.00  0.00    +0.000 N 
ATOM     17  C   UNL     1       2.641   5.299  18.761  0.00  0.00    +0.000 C 
ATOM     18  O   UNL     1       1.464   5.558  18.468  0.00  0.00    +0.000 OA
BRANCH  17  19
ATOM     19  C   UNL     1       2.821   4.178  19.763  0.00  0.00    +0.000 A 
ATOM     20  C   UNL     1       3.785   3.172  19.736  0.00  0.00    +0.000 A 
ATOM     21  C   UNL     1       3.837   2.224  20.746  0.00  0.00    +0.000 A 
ATOM     22  N   UNL     1       2.998   2.200  21.787  0.00  0.00    +0.000 NA
ATOM     23  C   UNL     1       2.068   3.174  21.824  0.00  0.00    +0.000 A 
ATOM     24  C   UNL     1       1.946   4.165  20.860  0.00  0.00    +0.000 A 
ENDBRANCH  17  19
BRANCH  16  25
ATOM     25  C   UNL     1       3.311   7.075  17.185  0.00  0.00    +0.000 C 
BRANCH  25  27
ATOM     26  C   UNL     1       1.587   8.928  17.737  0.00  0.00    +0.000 C 
ATOM     27  C   UNL     1       3.041   8.481  17.763  0.00  0.00    +0.000 C 
ENDBRANCH  25  27
ENDBRANCH  16  25
ENDBRANCH  15  16
ENDBRANCH   1  15
TORSDOF 7
ENDMDL
MODEL 8
REMARK VINA RESULT:      -7.5      2.583      8.290
REMARK  Name = 
REMARK  9 active torsions:
REMARK  status: ('A' for Active; 'I' for Inactive)
REMARK    1  A    between atoms: C_1  and  C_2
REMARK    2  A    between atoms: C_2  and  C_3
REMARK    3  A    between atoms: C_3  and  N_4
REMARK    4  A    between atoms: N_4  and  C_5
REMARK    5  A    between atoms: C_5  and  C_6
REMARK    6  A    between atoms: C_10  and  O_11
REMARK    7  A    between atoms: O_11  and  C_12
REMARK    8  A    between atoms: C_17  and  O_18
REMARK    9  A    between atoms: C_19  and  C_21
REMARK                            x       y       z     vdW  Elec       q    Type
REMARK                         _______ _______ _______ _____ _____    ______ ____
ROOT
ATOM      1  C   UNL     1       5.568   5.611  16.537  0.00  0.00    +0.000 A 
ATOM      2  C   UNL     1       5.008   4.690  15.639  0.00  0.00    +0.000 A 
ATOM      3  C   UNL     1       5.663   4.369  14.428  0.00  0.00    +0.000 A 
ATOM      4  C   UNL     1       5.049   3.626  13.395  0.00  0.00    +0.000 A 
ATOM      5  C   UNL     1       5.714   3.366  12.190  0.00  0.00    +0.000 A 
ATOM      6  C   UNL     1       7.015   3.825  12.028  0.00  0.00    +0.000 A 
ATOM      7  C   UNL     1       7.621   4.567  13.049  0.00  0.00    +0.000 A 
ATOM      8  C   UNL     1       6.962   4.871  14.235  0.00  0.00    +0.000 A 
ATOM      9  N   UNL     1       7.565   5.663  15.133  0.00  0.00    +0.000 NA
ATOM     10  C   UNL     1       6.851   6.024  16.215  0.00  0.00    +0.000 A 
ENDROOT
BRANCH   5  11
ATOM     11  O   UNL     1       4.985   2.678  11.258  0.00  0.00    +0.000 OA
ATOM     12  C   UNL     1       3.665   3.142  10.989  0.00  0.00    +0.000 C 
ENDBRANCH   5  11
BRANCH  10  13
ATOM     13  O   UNL     1       7.507   6.936  16.974  0.00  0.00    +0.000 OA
ATOM     14  H   UNL     1       6.839   7.089  17.668  0.00  0.00    +0.000 HD
ENDBRANCH  10  13
BRANCH   1  15
ATOM     15  C   UNL     1       4.814   6.332  17.639  0.00  0.00    +0.000 C 
BRANCH  15  16
ATOM     16  N   UNL     1       4.152   5.525  18.662  0.00  0.00    +0.000 N 
ATOM     17  C   UNL     1       3.099   5.928  19.512  0.00  0.00    +0.000 C 
ATOM     18  O   UNL     1       2.738   5.184  20.437  0.00  0.00    +0.000 OA
BRANCH  17  19
ATOM     19  C   UNL     1       2.336   7.230  19.400  0.00  0.00    +0.000 A 
ATOM     20  C   UNL     1       1.692   7.920  20.426  0.00  0.00    +0.000 A 
ATOM     21  C   UNL     1       1.051   9.122  20.168  0.00  0.00    +0.000 A 
ATOM     22  N   UNL     1       1.001   9.694  18.960  0.00  0.00    +0.000 NA
ATOM     23  C   UNL     1       1.629   9.037  17.965  0.00  0.00    +0.000 A 
ATOM     24  C   UNL     1       2.298   7.833  18.133  0.00  0.00    +0.000 A 
ENDBRANCH  17  19
BRANCH  16  25
ATOM     25  C   UNL     1       4.797   4.227  18.953  0.00  0.00    +0.000 C 
BRANCH  25  27
ATOM     26  C   UNL     1       2.970   2.985  17.600  0.00  0.00    +0.000 C 
ATOM     27  C   UNL     1       3.896   2.982  18.807  0.00  0.00    +0.000 C 
ENDBRANCH  25  27
ENDBRANCH  16  25
ENDBRANCH  15  16
ENDBRANCH   1  15
TORSDOF 7
ENDMDL
MODEL 9
REMARK VINA RESULT:      -7.4      1.346      1.736
REMARK  Name = 
REMARK  9 active torsions:
REMARK  status: ('A' for Active; 'I' for Inactive)
REMARK    1  A    between atoms: C_1  and  C_2
REMARK    2  A    between atoms: C_2  and  C_3
REMARK    3  A    between atoms: C_3  and  N_4
REMARK    4  A    between atoms: N_4  and  C_5
REMARK    5  A    between atoms: C_5  and  C_6
REMARK    6  A    between atoms: C_10  and  O_11
REMARK    7  A    between atoms: O_11  and  C_12
REMARK    8  A    between atoms: C_17  and  O_18
REMARK    9  A    between atoms: C_19  and  C_21
REMARK                            x       y       z     vdW  Elec       q    Type
REMARK                         _______ _______ _______ _____ _____    ______ ____
ROOT
ATOM      1  C   UNL     1       2.080   7.293  19.818  0.00  0.00    +0.000 A 
ATOM      2  C   UNL     1       1.206   7.598  20.872  0.00  0.00    +0.000 A 
ATOM      3  C   UNL     1       0.547   8.848  20.928  0.00  0.00    +0.000 A 
ATOM      4  C   UNL     1      -0.165   9.292  22.065  0.00  0.00    +0.000 A 
ATOM      5  C   UNL     1      -0.767  10.556  22.099  0.00  0.00    +0.000 A 
ATOM      6  C   UNL     1      -0.685  11.371  20.976  0.00  0.00    +0.000 A 
ATOM      7  C   UNL     1       0.025  10.932  19.852  0.00  0.00    +0.000 A 
ATOM      8  C   UNL     1       0.665   9.699  19.814  0.00  0.00    +0.000 A 
ATOM      9  N   UNL     1       1.405   9.379  18.744  0.00  0.00    +0.000 NA
ATOM     10  C   UNL     1       2.098   8.226  18.794  0.00  0.00    +0.000 A 
ENDROOT
BRANCH   5  11
ATOM     11  O   UNL     1      -1.381  10.878  23.279  0.00  0.00    +0.000 OA
ATOM     12  C   UNL     1      -2.093  12.111  23.330  0.00  0.00    +0.000 C 
ENDBRANCH   5  11
BRANCH  10  13
ATOM     13  O   UNL     1       2.918   8.080  17.724  0.00  0.00    +0.000 OA
ATOM     14  H   UNL     1       3.442   8.899  17.801  0.00  0.00    +0.000 HD
ENDBRANCH  10  13
BRANCH   1  15
ATOM     15  C   UNL     1       3.129   6.198  19.838  0.00  0.00    +0.000 C 
BRANCH  15  16
ATOM     16  N   UNL     1       3.225   5.313  18.678  0.00  0.00    +0.000 N 
ATOM     17  C   UNL     1       4.311   5.197  17.785  0.00  0.00    +0.000 C 
ATOM     18  O   UNL     1       4.191   4.513  16.757  0.00  0.00    +0.000 OA
BRANCH  17  19
ATOM     19  C   UNL     1       5.665   5.849  17.967  0.00  0.00    +0.000 A 
ATOM     20  C   UNL     1       6.167   6.954  17.281  0.00  0.00    +0.000 A 
ATOM     21  C   UNL     1       7.425   7.452  17.579  0.00  0.00    +0.000 A 
ATOM     22  N   UNL     1       8.228   6.933  18.515  0.00  0.00    +0.000 NA
ATOM     23  C   UNL     1       7.747   5.870  19.188  0.00  0.00    +0.000 A 
ATOM     24  C   UNL     1       6.498   5.308  18.959  0.00  0.00    +0.000 A 
ENDBRANCH  17  19
BRANCH  16  25
ATOM     25  C   UNL     1       1.969   4.625  18.310  0.00  0.00    +0.000 C 
BRANCH  25  27
ATOM     26  C   UNL     1       0.874   3.557  20.400  0.00  0.00    +0.000 C 
ATOM     27  C   UNL     1       1.646   3.343  19.107  0.00  0.00    +0.000 C 
ENDBRANCH  25  27
ENDBRANCH  16  25
ENDBRANCH  15  16
ENDBRANCH   1  15
TORSDOF 7
ENDMDL
