MODEL 1
REMARK VINA RESULT:      -6.7      0.000      0.000
REMARK  Name = 
REMARK  4 active torsions:
REMARK  status: ('A' for Active; 'I' for Inactive)
REMARK    1  A    between atoms: C_1  and  C_2
REMARK    2  A    between atoms: C_9  and  O_10
REMARK    3  A    between atoms: O_10  and  C_11
REMARK    4  A    between atoms: N_14  and  C_15
REMARK                            x       y       z     vdW  Elec       q    Type
REMARK                         _______ _______ _______ _____ _____    ______ ____
ROOT
ATOM      1  C   UNL     1       1.647   3.443  19.821  0.00  0.00    +0.000 C 
ATOM      2  C   UNL     1       3.089   3.533  19.490  0.00  0.00    +0.000 A 
ATOM      3  N   UNL     1       3.864   2.492  19.869  0.00  0.00    +0.000 NA
ATOM      4  N   UNL     1       5.084   2.830  19.463  0.00  0.00    +0.000 N 
ATOM      5  C   UNL     1       5.153   4.039  18.835  0.00  0.00    +0.000 A 
ATOM      6  C   UNL     1       6.249   4.699  18.291  0.00  0.00    +0.000 A 
ATOM      7  C   UNL     1       5.966   5.926  17.736  0.00  0.00    +0.000 A 
ATOM      8  N   UNL     1       4.740   6.477  17.691  0.00  0.00    +0.000 NA
ATOM      9  C   UNL     1       3.662   5.827  18.218  0.00  0.00    +0.000 A 
ATOM     10  C   UNL     1       3.853   4.557  18.827  0.00  0.00    +0.000 A 
ATOM     11  H   UNL     1       5.842   2.180  19.644  0.00  0.00    +0.000 HD
ENDROOT
BRANCH   9  12
ATOM     12  O   UNL     1       2.432   6.460  18.129  0.00  0.00    +0.000 OA
BRANCH  12  13
ATOM     13  C   UNL     1       2.373   7.758  18.796  0.00  0.00    +0.000 C 
ATOM     14  C   UNL     1       1.711   7.562  20.170  0.00  0.00    +0.000 C 
ATOM     15  C   UNL     1       1.278   8.876  20.827  0.00  0.00    +0.000 C 
ATOM     16  N   UNL     1       0.410   9.628  19.917  0.00  0.00    +0.000 NA
ATOM     17  C   UNL     1      -0.198  10.782  20.576  0.00  0.00    +0.000 C 
ATOM     18  C   UNL     1       1.175  10.028  18.732  0.00  0.00    +0.000 C 
ATOM     19  C   UNL     1       1.607   8.790  17.946  0.00  0.00    +0.000 C 
ENDBRANCH  12  13
ENDBRANCH   9  12
TORSDOF 2
ENDMDL
MODEL 2
REMARK VINA RESULT:      -6.4      1.527      1.987
REMARK  Name = 
REMARK  4 active torsions:
REMARK  status: ('A' for Active; 'I' for Inactive)
REMARK    1  A    between atoms: C_1  and  C_2
REMARK    2  A    between atoms: C_9  and  O_10
REMARK    3  A    between atoms: O_10  and  C_11
REMARK    4  A    between atoms: N_14  and  C_15
REMARK                            x       y       z     vdW  Elec       q    Type
REMARK                         _______ _______ _______ _____ _____    ______ ____
ROOT
ATOM      1  C   UNL     1       1.267   3.816  20.787  0.00  0.00    +0.000 C 
ATOM      2  C   UNL     1       1.977   3.388  19.558  0.00  0.00    +0.000 A 
ATOM      3  N   UNL     1       1.734   2.131  19.124  0.00  0.00    +0.000 NA
ATOM      4  N   UNL     1       2.488   2.010  18.037  0.00  0.00    +0.000 N 
ATOM      5  C   UNL     1       3.214   3.124  17.729  0.00  0.00    +0.000 A 
ATOM      6  C   UNL     1       4.097   3.350  16.680  0.00  0.00    +0.000 A 
ATOM      7  C   UNL     1       4.678   4.597  16.673  0.00  0.00    +0.000 A 
ATOM      8  N   UNL     1       4.431   5.556  17.583  0.00  0.00    +0.000 NA
ATOM      9  C   UNL     1       3.560   5.338  18.610  0.00  0.00    +0.000 A 
ATOM     10  C   UNL     1       2.917   4.075  18.712  0.00  0.00    +0.000 A 
ATOM     11  H   UNL     1       2.461   1.129  17.534  0.00  0.00    +0.000 HD
ENDROOT
BRANCH   9  12
ATOM     12  O   UNL     1       3.358   6.378  19.505  0.00  0.00    +0.000 OA
BRANCH  12  13
ATOM     13  C   UNL     1       2.176   7.189  19.228  0.00  0.00    +0.000 C 
ATOM     14  C   UNL     1       2.525   8.179  18.104  0.00  0.00    +0.000 C 
ATOM     15  C   UNL     1       1.502   9.308  17.950  0.00  0.00    +0.000 C 
ATOM     16  N   UNL     1       1.318   9.995  19.231  0.00  0.00    +0.000 NA
ATOM     17  C   UNL     1       0.516  11.208  19.085  0.00  0.00    +0.000 C 
ATOM     18  C   UNL     1       0.723   9.071  20.201  0.00  0.00    +0.000 C 
ATOM     19  C   UNL     1       1.693   7.925  20.493  0.00  0.00    +0.000 C 
ENDBRANCH  12  13
ENDBRANCH   9  12
TORSDOF 2
ENDMDL
MODEL 3
REMARK VINA RESULT:      -6.4      2.823      5.776
REMARK  Name = 
REMARK  4 active torsions:
REMARK  status: ('A' for Active; 'I' for Inactive)
REMARK    1  A    between atoms: C_1  and  C_2
REMARK    2  A    between atoms: C_9  and  O_10
REMARK    3  A    between atoms: O_10  and  C_11
REMARK    4  A    between atoms: N_14  and  C_15
REMARK                            x       y       z     vdW  Elec       q    Type
REMARK                         _______ _______ _______ _____ _____    ______ ____
ROOT
ATOM      1  C   UNL     1       3.728   1.180  18.486  0.00  0.00    +0.000 C 
ATOM      2  C   UNL     1       2.837   2.233  19.030  0.00  0.00    +0.000 A 
ATOM      3  N   UNL     1       1.577   1.859  19.342  0.00  0.00    +0.000 NA
ATOM      4  N   UNL     1       1.008   2.973  19.790  0.00  0.00    +0.000 N 
ATOM      5  C   UNL     1       1.829   4.063  19.789  0.00  0.00    +0.000 A 
ATOM      6  C   UNL     1       1.572   5.371  20.182  0.00  0.00    +0.000 A 
ATOM      7  C   UNL     1       2.633   6.236  20.037  0.00  0.00    +0.000 A 
ATOM      8  N   UNL     1       3.844   5.883  19.568  0.00  0.00    +0.000 NA
ATOM      9  C   UNL     1       4.099   4.598  19.189  0.00  0.00    +0.000 A 
ATOM     10  C   UNL     1       3.062   3.631  19.288  0.00  0.00    +0.000 A 
ATOM     11  H   UNL     1       0.040   2.926  20.091  0.00  0.00    +0.000 HD
ENDROOT
BRANCH   9  12
ATOM     12  O   UNL     1       5.372   4.314  18.719  0.00  0.00    +0.000 OA
BRANCH  12  13
ATOM     13  C   UNL     1       5.672   4.889  17.410  0.00  0.00    +0.000 C 
ATOM     14  C   UNL     1       4.653   4.338  16.399  0.00  0.00    +0.000 C 
ATOM     15  C   UNL     1       5.053   4.583  14.941  0.00  0.00    +0.000 C 
ATOM     16  N   UNL     1       6.395   4.050  14.694  0.00  0.00    +0.000 NA
ATOM     17  C   UNL     1       6.733   4.069  13.272  0.00  0.00    +0.000 C 
ATOM     18  C   UNL     1       7.373   4.799  15.488  0.00  0.00    +0.000 C 
ATOM     19  C   UNL     1       7.118   4.574  16.979  0.00  0.00    +0.000 C 
ENDBRANCH  12  13
ENDBRANCH   9  12
TORSDOF 2
ENDMDL
MODEL 4
REMARK VINA RESULT:      -6.4      2.216      4.020
REMARK  Name = 
REMARK  4 active torsions:
REMARK  status: ('A' for Active; 'I' for Inactive)
REMARK    1  A    between atoms: C_1  and  C_2
REMARK    2  A    between atoms: C_9  and  O_10
REMARK    3  A    between atoms: O_10  and  C_11
REMARK    4  A    between atoms: N_14  and  C_15
REMARK                            x       y       z     vdW  Elec       q    Type
REMARK                         _______ _______ _______ _____ _____    ______ ____
ROOT
ATOM      1  C   UNL     1       5.089   4.251  14.921  0.00  0.00    +0.000 C 
ATOM      2  C   UNL     1       6.076   4.973  15.760  0.00  0.00    +0.000 A 
ATOM      3  N   UNL     1       7.026   5.678  15.107  0.00  0.00    +0.000 NA
ATOM      4  N   UNL     1       7.764   6.206  16.077  0.00  0.00    +0.000 N 
ATOM      5  C   UNL     1       7.350   5.885  17.337  0.00  0.00    +0.000 A 
ATOM      6  C   UNL     1       7.879   6.253  18.569  0.00  0.00    +0.000 A 
ATOM      7  C   UNL     1       7.215   5.736  19.659  0.00  0.00    +0.000 A 
ATOM      8  N   UNL     1       6.131   4.943  19.584  0.00  0.00    +0.000 NA
ATOM      9  C   UNL     1       5.607   4.588  18.376  0.00  0.00    +0.000 A 
ATOM     10  C   UNL     1       6.229   5.060  17.188  0.00  0.00    +0.000 A 
ATOM     11  H   UNL     1       8.551   6.790  15.813  0.00  0.00    +0.000 HD
ENDROOT
BRANCH   9  12
ATOM     12  O   UNL     1       4.487   3.770  18.383  0.00  0.00    +0.000 OA
BRANCH  12  13
ATOM     13  C   UNL     1       3.237   4.466  18.676  0.00  0.00    +0.000 C 
ATOM     14  C   UNL     1       3.313   5.871  18.056  0.00  0.00    +0.000 C 
ATOM     15  C   UNL     1       2.228   6.821  18.572  0.00  0.00    +0.000 C 
ATOM     16  N   UNL     1       2.266   6.878  20.035  0.00  0.00    +0.000 NA
ATOM     17  C   UNL     1       1.396   7.928  20.560  0.00  0.00    +0.000 C 
ATOM     18  C   UNL     1       1.917   5.565  20.585  0.00  0.00    +0.000 C 
ATOM     19  C   UNL     1       2.977   4.536  20.193  0.00  0.00    +0.000 C 
ENDBRANCH  12  13
ENDBRANCH   9  12
TORSDOF 2
ENDMDL
MODEL 5
REMARK VINA RESULT:      -6.4      2.227      5.286
REMARK  Name = 
REMARK  4 active torsions:
REMARK  status: ('A' for Active; 'I' for Inactive)
REMARK    1  A    between atoms: C_1  and  C_2
REMARK    2  A    between atoms: C_9  and  O_10
REMARK    3  A    between atoms: O_10  and  C_11
REMARK    4  A    between atoms: N_14  and  C_15
REMARK                            x       y       z     vdW  Elec       q    Type
REMARK                         _______ _______ _______ _____ _____    ______ ____
ROOT
ATOM      1  C   UNL     1       2.986   7.500  17.900  0.00  0.00    +0.000 C 
ATOM      2  C   UNL     1       2.557   6.691  19.066  0.00  0.00    +0.000 A 
ATOM      3  N   UNL     1       1.967   7.358  20.083  0.00  0.00    +0.000 NA
ATOM      4  N   UNL     1       1.698   6.415  20.979  0.00  0.00    +0.000 N 
ATOM      5  C   UNL     1       2.079   5.159  20.605  0.00  0.00    +0.000 A 
ATOM      6  C   UNL     1       1.957   3.952  21.284  0.00  0.00    +0.000 A 
ATOM      7  C   UNL     1       2.465   2.861  20.617  0.00  0.00    +0.000 A 
ATOM      8  N   UNL     1       3.032   2.911  19.398  0.00  0.00    +0.000 NA
ATOM      9  C   UNL     1       3.146   4.093  18.728  0.00  0.00    +0.000 A 
ATOM     10  C   UNL     1       2.663   5.282  19.339  0.00  0.00    +0.000 A 
ATOM     11  H   UNL     1       1.241   6.693  21.841  0.00  0.00    +0.000 HD
ENDROOT
BRANCH   9  12
ATOM     12  O   UNL     1       3.740   4.060  17.475  0.00  0.00    +0.000 OA
BRANCH  12  13
ATOM     13  C   UNL     1       5.163   4.388  17.476  0.00  0.00    +0.000 C 
ATOM     14  C   UNL     1       5.554   4.826  18.897  0.00  0.00    +0.000 C 
ATOM     15  C   UNL     1       6.918   5.519  18.964  0.00  0.00    +0.000 C 
ATOM     16  N   UNL     1       6.954   6.645  18.027  0.00  0.00    +0.000 NA
ATOM     17  C   UNL     1       8.152   7.463  18.208  0.00  0.00    +0.000 C 
ATOM     18  C   UNL     1       6.849   6.143  16.654  0.00  0.00    +0.000 C 
ATOM     19  C   UNL     1       5.485   5.485  16.442  0.00  0.00    +0.000 C 
ENDBRANCH  12  13
ENDBRANCH   9  12
TORSDOF 2
ENDMDL
MODEL 6
REMARK VINA RESULT:      -6.3      1.708      3.027
REMARK  Name = 
REMARK  4 active torsions:
REMARK  status: ('A' for Active; 'I' for Inactive)
REMARK    1  A    between atoms: C_1  and  C_2
REMARK    2  A    between atoms: C_9  and  O_10
REMARK    3  A    between atoms: O_10  and  C_11
REMARK    4  A    between atoms: N_14  and  C_15
REMARK                            x       y       z     vdW  Elec       q    Type
REMARK                         _______ _______ _______ _____ _____    ______ ____
ROOT
ATOM      1  C   UNL     1       6.859   7.058  17.377  0.00  0.00    +0.000 C 
ATOM      2  C   UNL     1       6.116   5.780  17.259  0.00  0.00    +0.000 A 
ATOM      3  N   UNL     1       6.831   4.697  16.883  0.00  0.00    +0.000 NA
ATOM      4  N   UNL     1       5.938   3.714  16.850  0.00  0.00    +0.000 N 
ATOM      5  C   UNL     1       4.671   4.092  17.187  0.00  0.00    +0.000 A 
ATOM      6  C   UNL     1       3.505   3.339  17.257  0.00  0.00    +0.000 A 
ATOM      7  C   UNL     1       2.382   4.047  17.622  0.00  0.00    +0.000 A 
ATOM      8  N   UNL     1       2.371   5.361  17.908  0.00  0.00    +0.000 NA
ATOM      9  C   UNL     1       3.515   6.100  17.846  0.00  0.00    +0.000 A 
ATOM     10  C   UNL     1       4.728   5.463  17.466  0.00  0.00    +0.000 A 
ATOM     11  H   UNL     1       6.259   2.787  16.590  0.00  0.00    +0.000 HD
ENDROOT
BRANCH   9  12
ATOM     12  O   UNL     1       3.421   7.448  18.159  0.00  0.00    +0.000 OA
BRANCH  12  13
ATOM     13  C   UNL     1       2.086   7.879  18.565  0.00  0.00    +0.000 C 
ATOM     14  C   UNL     1       1.777   9.210  17.860  0.00  0.00    +0.000 C 
ATOM     15  C   UNL     1       0.569   9.943  18.451  0.00  0.00    +0.000 C 
ATOM     16  N   UNL     1       0.753  10.129  19.893  0.00  0.00    +0.000 NA
ATOM     17  C   UNL     1      -0.269  11.007  20.461  0.00  0.00    +0.000 C 
ATOM     18  C   UNL     1       0.769   8.823  20.557  0.00  0.00    +0.000 C 
ATOM     19  C   UNL     1       1.984   8.018  20.096  0.00  0.00    +0.000 C 
ENDBRANCH  12  13
ENDBRANCH   9  12
TORSDOF 2
ENDMDL
MODEL 7
REMARK VINA RESULT:      -6.3      1.119      2.555
REMARK  Name = 
REMARK  4 active torsions:
REMARK  status: ('A' for Active; 'I' for Inactive)
REMARK    1  A    between atoms: C_1  and  C_2
REMARK    2  A    between atoms: C_9  and  O_10
REMARK    3  A    between atoms: O_10  and  C_11
REMARK    4  A    between atoms: N_14  and  C_15
REMARK                            x       y       z     vdW  Elec       q    Type
REMARK                         _______ _______ _______ _____ _____    ______ ____
ROOT
ATOM      1  C   UNL     1       5.502   6.915  16.927  0.00  0.00    +0.000 C 
ATOM      2  C   UNL     1       5.485   5.666  17.726  0.00  0.00    +0.000 A 
ATOM      3  N   UNL     1       6.672   5.049  17.912  0.00  0.00    +0.000 NA
ATOM      4  N   UNL     1       6.372   3.978  18.638  0.00  0.00    +0.000 N 
ATOM      5  C   UNL     1       5.048   3.857  18.942  0.00  0.00    +0.000 A 
ATOM      6  C   UNL     1       4.387   2.876  19.672  0.00  0.00    +0.000 A 
ATOM      7  C   UNL     1       3.026   3.054  19.778  0.00  0.00    +0.000 A 
ATOM      8  N   UNL     1       2.350   4.086  19.244  0.00  0.00    +0.000 NA
ATOM      9  C   UNL     1       2.998   5.054  18.534  0.00  0.00    +0.000 A 
ATOM     10  C   UNL     1       4.404   4.953  18.356  0.00  0.00    +0.000 A 
ATOM     11  H   UNL     1       7.129   3.356  18.905  0.00  0.00    +0.000 HD
ENDROOT
BRANCH   9  12
ATOM     12  O   UNL     1       2.230   6.087  18.018  0.00  0.00    +0.000 OA
BRANCH  12  13
ATOM     13  C   UNL     1       2.392   7.362  18.713  0.00  0.00    +0.000 C 
ATOM     14  C   UNL     1       1.699   7.253  20.081  0.00  0.00    +0.000 C 
ATOM     15  C   UNL     1       1.493   8.608  20.766  0.00  0.00    +0.000 C 
ATOM     16  N   UNL     1       0.773   9.517  19.871  0.00  0.00    +0.000 NA
ATOM     17  C   UNL     1       0.368  10.744  20.554  0.00  0.00    +0.000 C 
ATOM     18  C   UNL     1       1.601   9.805  18.696  0.00  0.00    +0.000 C 
ATOM     19  C   UNL     1       1.818   8.527  17.884  0.00  0.00    +0.000 C 
ENDBRANCH  12  13
ENDBRANCH   9  12
TORSDOF 2
ENDMDL
MODEL 8
REMARK VINA RESULT:      -6.3      1.698      3.191
REMARK  Name = 
REMARK  4 active torsions:
REMARK  status: ('A' for Active; 'I' for Inactive)
REMARK    1  A    between atoms: C_1  and  C_2
REMARK    2  A    between atoms: C_9  and  O_10
REMARK    3  A    between atoms: O_10  and  C_11
REMARK    4  A    between atoms: N_14  and  C_15
REMARK                            x       y       z     vdW  Elec       q    Type
REMARK                         _______ _______ _______ _____ _____    ______ ____
ROOT
ATOM      1  C   UNL     1       4.473   5.952  17.073  0.00  0.00    +0.000 C 
ATOM      2  C   UNL     1       3.680   4.805  17.578  0.00  0.00    +0.000 A 
ATOM      3  N   UNL     1       3.776   3.649  16.883  0.00  0.00    +0.000 NA
ATOM      4  N   UNL     1       2.976   2.811  17.534  0.00  0.00    +0.000 N 
ATOM      5  C   UNL     1       2.358   3.354  18.622  0.00  0.00    +0.000 A 
ATOM      6  C   UNL     1       1.467   2.777  19.520  0.00  0.00    +0.000 A 
ATOM      7  C   UNL     1       1.018   3.622  20.510  0.00  0.00    +0.000 A 
ATOM      8  N   UNL     1       1.394   4.907  20.642  0.00  0.00    +0.000 NA
ATOM      9  C   UNL     1       2.274   5.471  19.766  0.00  0.00    +0.000 A 
ATOM     10  C   UNL     1       2.786   4.684  18.699  0.00  0.00    +0.000 A 
ATOM     11  H   UNL     1       2.894   1.863  17.183  0.00  0.00    +0.000 HD
ENDROOT
BRANCH   9  12
ATOM     12  O   UNL     1       2.614   6.800  19.973  0.00  0.00    +0.000 OA
BRANCH  12  13
ATOM     13  C   UNL     1       1.582   7.754  19.574  0.00  0.00    +0.000 C 
ATOM     14  C   UNL     1       2.093   8.529  18.348  0.00  0.00    +0.000 C 
ATOM     15  C   UNL     1       1.270   9.782  18.038  0.00  0.00    +0.000 C 
ATOM     16  N   UNL     1       1.198  10.641  19.223  0.00  0.00    +0.000 NA
ATOM     17  C   UNL     1       0.608  11.942  18.916  0.00  0.00    +0.000 C 
ATOM     18  C   UNL     1       0.457   9.951  20.282  0.00  0.00    +0.000 C 
ATOM     19  C   UNL     1       1.223   8.706  20.731  0.00  0.00    +0.000 C 
ENDBRANCH  12  13
ENDBRANCH   9  12
TORSDOF 2
ENDMDL
MODEL 9
REMARK VINA RESULT:      -6.3      1.597      3.011
REMARK  Name = 
REMARK  4 active torsions:
REMARK  status: ('A' for Active; 'I' for Inactive)
REMARK    1  A    between atoms: C_1  and  C_2
REMARK    2  A    between atoms: C_9  and  O_10
REMARK    3  A    between atoms: O_10  and  C_11
REMARK    4  A    between atoms: N_14  and  C_15
REMARK                            x       y       z     vdW  Elec       q    Type
REMARK                         _______ _______ _______ _____ _____    ______ ____
ROOT
ATOM      1  C   UNL     1       6.243   6.376  17.860  0.00  0.00    +0.000 C 
ATOM      2  C   UNL     1       5.449   5.155  17.583  0.00  0.00    +0.000 A 
ATOM      3  N   UNL     1       6.005   4.246  16.752  0.00  0.00    +0.000 NA
ATOM      4  N   UNL     1       5.098   3.278  16.674  0.00  0.00    +0.000 N 
ATOM      5  C   UNL     1       3.972   3.502  17.412  0.00  0.00    +0.000 A 
ATOM      6  C   UNL     1       2.835   2.716  17.563  0.00  0.00    +0.000 A 
ATOM      7  C   UNL     1       1.868   3.253  18.382  0.00  0.00    +0.000 A 
ATOM      8  N   UNL     1       1.977   4.434  19.015  0.00  0.00    +0.000 NA
ATOM      9  C   UNL     1       3.095   5.203  18.874  0.00  0.00    +0.000 A 
ATOM     10  C   UNL     1       4.147   4.742  18.038  0.00  0.00    +0.000 A 
ATOM     11  H   UNL     1       5.309   2.473  16.094  0.00  0.00    +0.000 HD
ENDROOT
BRANCH   9  12
ATOM     12  O   UNL     1       3.131   6.406  19.563  0.00  0.00    +0.000 OA
BRANCH  12  13
ATOM     13  C   UNL     1       2.021   7.306  19.260  0.00  0.00    +0.000 C 
ATOM     14  C   UNL     1       2.438   8.203  18.083  0.00  0.00    +0.000 C 
ATOM     15  C   UNL     1       1.517   9.411  17.886  0.00  0.00    +0.000 C 
ATOM     16  N   UNL     1       1.417  10.174  19.133  0.00  0.00    +0.000 NA
ATOM     17  C   UNL     1       0.725  11.446  18.937  0.00  0.00    +0.000 C 
ATOM     18  C   UNL     1       0.760   9.356  20.156  0.00  0.00    +0.000 C 
ATOM     19  C   UNL     1       1.628   8.143  20.493  0.00  0.00    +0.000 C 
ENDBRANCH  12  13
ENDBRANCH   9  12
TORSDOF 2
ENDMDL
