MODEL 1
REMARK VINA RESULT:      -6.5      0.000      0.000
REMARK  Name = 
REMARK  8 active torsions:
REMARK  status: ('A' for Active; 'I' for Inactive)
REMARK    1  A    between atoms: C_1  and  C_2
REMARK    2  A    between atoms: C_2  and  C_3
REMARK    3  A    between atoms: C_3  and  C_4
REMARK    4  A    between atoms: C_4  and  C_5
REMARK    5  A    between atoms: C_5  and  C_6
REMARK    6  A    between atoms: C_6  and  O_8
REMARK    7  A    between atoms: C_15  and  C_16
REMARK    8  A    between atoms: C_21  and  N_22
REMARK                            x       y       z     vdW  Elec       q    Type
REMARK                         _______ _______ _______ _____ _____    ______ ____
ROOT
ATOM      1  C   UNL     1       2.885   3.418  19.152  0.00  0.00    +0.000 C 
ATOM      2  C   UNL     1       2.026   3.112  20.426  0.00  0.00    +0.000 C 
ATOM      3  C   UNL     1       0.741   3.925  20.464  0.00  0.00    +0.000 C 
ATOM      4  C   UNL     1       1.107   5.393  20.569  0.00  0.00    +0.000 C 
ATOM      5  N   UNL     1       2.145   5.798  19.634  0.00  0.00    +0.000 N 
ATOM      6  C   UNL     1       2.423   7.110  19.388  0.00  0.00    +0.000 A 
ATOM      7  C   UNL     1       3.460   7.156  18.496  0.00  0.00    +0.000 A 
ATOM      8  C   UNL     1       3.915   5.821  18.252  0.00  0.00    +0.000 A 
ATOM      9  C   UNL     1       3.034   4.963  18.961  0.00  0.00    +0.000 A 
ENDROOT
BRANCH   8  10
ATOM     10  C   UNL     1       5.103   5.442  17.450  0.00  0.00    +0.000 A 
ATOM     11  C   UNL     1       4.979   5.341  16.059  0.00  0.00    +0.000 A 
ATOM     12  C   UNL     1       5.945   4.727  15.259  0.00  0.00    +0.000 A 
ATOM     13  C   UNL     1       7.130   4.304  15.828  0.00  0.00    +0.000 A 
ATOM     14  C   UNL     1       7.362   4.565  17.174  0.00  0.00    +0.000 A 
ATOM     15  C   UNL     1       6.386   5.176  17.991  0.00  0.00    +0.000 A 
BRANCH  15  16
ATOM     16  N   UNL     1       6.710   5.256  19.362  0.00  0.00    +0.000 N 
ATOM     17  H   UNL     1       7.454   4.609  19.615  0.00  0.00    +0.000 HD
ATOM     18  H   UNL     1       6.950   6.192  19.664  0.00  0.00    +0.000 HD
ENDBRANCH  15  16
ENDBRANCH   8  10
BRANCH   1  20
ATOM     19  C   UNL     1       2.963   2.377  16.716  0.00  0.00    +0.000 C 
ATOM     20  C   UNL     1       2.120   2.816  17.912  0.00  0.00    +0.000 C 
ENDBRANCH   1  20
BRANCH   1  21
ATOM     21  C   UNL     1       4.260   2.716  19.359  0.00  0.00    +0.000 C 
BRANCH  21  22
ATOM     22  C   UNL     1       4.630   2.407  20.813  0.00  0.00    +0.000 C 
BRANCH  22  23
ATOM     23  C   UNL     1       5.342   1.088  20.894  0.00  0.00    +0.000 C 
ATOM     24  O   UNL     1       5.942   0.695  21.898  0.00  0.00    +0.000 OA
BRANCH  23  25
ATOM     25  O   UNL     1       5.252   0.340  19.773  0.00  0.00    +0.000 OA
ATOM     26  H   UNL     1       6.123   0.139  19.377  0.00  0.00    +0.000 HD
ENDBRANCH  23  25
ENDBRANCH  22  23
ENDBRANCH  21  22
ENDBRANCH   1  21
TORSDOF 7
ENDMDL
MODEL 2
REMARK VINA RESULT:      -6.5      1.449      1.749
REMARK  Name = 
REMARK  8 active torsions:
REMARK  status: ('A' for Active; 'I' for Inactive)
REMARK    1  A    between atoms: C_1  and  C_2
REMARK    2  A    between atoms: C_2  and  C_3
REMARK    3  A    between atoms: C_3  and  C_4
REMARK    4  A    between atoms: C_4  and  C_5
REMARK    5  A    between atoms: C_5  and  C_6
REMARK    6  A    between atoms: C_6  and  O_8
REMARK    7  A    between atoms: C_15  and  C_16
REMARK    8  A    between atoms: C_21  and  N_22
REMARK                            x       y       z     vdW  Elec       q    Type
REMARK                         _______ _______ _______ _____ _____    ______ ____
ROOT
ATOM      1  C   UNL     1       3.064   4.894  19.523  0.00  0.00    +0.000 C 
ATOM      2  C   UNL     1       2.448   5.198  20.931  0.00  0.00    +0.000 C 
ATOM      3  C   UNL     1       1.182   6.036  20.837  0.00  0.00    +0.000 C 
ATOM      4  C   UNL     1       1.545   7.388  20.257  0.00  0.00    +0.000 C 
ATOM      5  N   UNL     1       2.398   7.304  19.082  0.00  0.00    +0.000 N 
ATOM      6  C   UNL     1       2.616   8.376  18.268  0.00  0.00    +0.000 A 
ATOM      7  C   UNL     1       3.478   7.982  17.281  0.00  0.00    +0.000 A 
ATOM      8  C   UNL     1       3.895   6.639  17.546  0.00  0.00    +0.000 A 
ATOM      9  C   UNL     1       3.163   6.209  18.683  0.00  0.00    +0.000 A 
ENDROOT
BRANCH   8  10
ATOM     10  C   UNL     1       4.927   5.886  16.791  0.00  0.00    +0.000 A 
ATOM     11  C   UNL     1       4.565   4.697  16.148  0.00  0.00    +0.000 A 
ATOM     12  C   UNL     1       5.506   3.787  15.662  0.00  0.00    +0.000 A 
ATOM     13  C   UNL     1       6.848   4.109  15.701  0.00  0.00    +0.000 A 
ATOM     14  C   UNL     1       7.225   5.367  16.159  0.00  0.00    +0.000 A 
ATOM     15  C   UNL     1       6.280   6.289  16.662  0.00  0.00    +0.000 A 
BRANCH  15  16
ATOM     16  N   UNL     1       6.822   7.469  17.213  0.00  0.00    +0.000 N 
ATOM     17  H   UNL     1       6.145   8.231  17.220  0.00  0.00    +0.000 HD
ATOM     18  H   UNL     1       7.204   7.340  18.142  0.00  0.00    +0.000 HD
ENDBRANCH  15  16
ENDBRANCH   8  10
BRANCH   1  20
ATOM     19  C   UNL     1       1.357   4.395  17.559  0.00  0.00    +0.000 C 
ATOM     20  C   UNL     1       2.099   3.885  18.793  0.00  0.00    +0.000 C 
ENDBRANCH   1  20
BRANCH   1  21
ATOM     21  C   UNL     1       4.462   4.252  19.775  0.00  0.00    +0.000 C 
BRANCH  21  22
ATOM     22  C   UNL     1       4.534   2.734  19.582  0.00  0.00    +0.000 C 
BRANCH  22  23
ATOM     23  C   UNL     1       4.436   2.040  20.910  0.00  0.00    +0.000 C 
ATOM     24  O   UNL     1       3.432   2.071  21.625  0.00  0.00    +0.000 OA
BRANCH  23  25
ATOM     25  O   UNL     1       5.542   1.345  21.252  0.00  0.00    +0.000 OA
ATOM     26  H   UNL     1       5.489   0.399  21.009  0.00  0.00    +0.000 HD
ENDBRANCH  23  25
ENDBRANCH  22  23
ENDBRANCH  21  22
ENDBRANCH   1  21
TORSDOF 7
ENDMDL
MODEL 3
REMARK VINA RESULT:      -6.2      2.208      2.510
REMARK  Name = 
REMARK  8 active torsions:
REMARK  status: ('A' for Active; 'I' for Inactive)
REMARK    1  A    between atoms: C_1  and  C_2
REMARK    2  A    between atoms: C_2  and  C_3
REMARK    3  A    between atoms: C_3  and  C_4
REMARK    4  A    between atoms: C_4  and  C_5
REMARK    5  A    between atoms: C_5  and  C_6
REMARK    6  A    between atoms: C_6  and  O_8
REMARK    7  A    between atoms: C_15  and  C_16
REMARK    8  A    between atoms: C_21  and  N_22
REMARK                            x       y       z     vdW  Elec       q    Type
REMARK                         _______ _______ _______ _____ _____    ______ ____
ROOT
ATOM      1  C   UNL     1       3.673   4.442  19.169  0.00  0.00    +0.000 C 
ATOM      2  C   UNL     1       3.179   4.486  20.655  0.00  0.00    +0.000 C 
ATOM      3  C   UNL     1       1.770   5.044  20.779  0.00  0.00    +0.000 C 
ATOM      4  C   UNL     1       1.787   6.489  20.319  0.00  0.00    +0.000 C 
ATOM      5  N   UNL     1       2.494   6.688  19.063  0.00  0.00    +0.000 N 
ATOM      6  C   UNL     1       2.396   7.849  18.355  0.00  0.00    +0.000 A 
ATOM      7  C   UNL     1       3.196   7.733  17.251  0.00  0.00    +0.000 A 
ATOM      8  C   UNL     1       3.900   6.488  17.324  0.00  0.00    +0.000 A 
ATOM      9  C   UNL     1       3.408   5.817  18.474  0.00  0.00    +0.000 A 
ENDROOT
BRANCH   8  10
ATOM     10  C   UNL     1       4.964   6.038  16.394  0.00  0.00    +0.000 A 
ATOM     11  C   UNL     1       4.703   4.968  15.531  0.00  0.00    +0.000 A 
ATOM     12  C   UNL     1       5.710   4.298  14.834  0.00  0.00    +0.000 A 
ATOM     13  C   UNL     1       7.006   4.770  14.891  0.00  0.00    +0.000 A 
ATOM     14  C   UNL     1       7.264   5.946  15.587  0.00  0.00    +0.000 A 
ATOM     15  C   UNL     1       6.252   6.623  16.303  0.00  0.00    +0.000 A 
BRANCH  15  16
ATOM     16  N   UNL     1       6.688   7.725  17.069  0.00  0.00    +0.000 N 
ATOM     17  H   UNL     1       6.321   7.697  18.019  0.00  0.00    +0.000 HD
ATOM     18  H   UNL     1       7.695   7.825  17.092  0.00  0.00    +0.000 HD
ENDBRANCH  15  16
ENDBRANCH   8  10
BRANCH   1  20
ATOM     19  C   UNL     1       3.630   2.150  17.840  0.00  0.00    +0.000 C 
ATOM     20  C   UNL     1       2.847   3.321  18.431  0.00  0.00    +0.000 C 
ENDBRANCH   1  20
BRANCH   1  21
ATOM     21  C   UNL     1       5.189   4.087  19.211  0.00  0.00    +0.000 C 
BRANCH  21  22
ATOM     22  C   UNL     1       6.126   5.240  19.587  0.00  0.00    +0.000 C 
BRANCH  22  23
ATOM     23  C   UNL     1       7.545   4.882  19.251  0.00  0.00    +0.000 C 
ATOM     24  O   UNL     1       7.873   4.277  18.227  0.00  0.00    +0.000 OA
BRANCH  23  25
ATOM     25  O   UNL     1       8.451   5.306  20.158  0.00  0.00    +0.000 OA
ATOM     26  H   UNL     1       9.359   4.998  19.962  0.00  0.00    +0.000 HD
ENDBRANCH  23  25
ENDBRANCH  22  23
ENDBRANCH  21  22
ENDBRANCH   1  21
TORSDOF 7
ENDMDL
MODEL 4
REMARK VINA RESULT:      -6.1      3.584      5.127
REMARK  Name = 
REMARK  8 active torsions:
REMARK  status: ('A' for Active; 'I' for Inactive)
REMARK    1  A    between atoms: C_1  and  C_2
REMARK    2  A    between atoms: C_2  and  C_3
REMARK    3  A    between atoms: C_3  and  C_4
REMARK    4  A    between atoms: C_4  and  C_5
REMARK    5  A    between atoms: C_5  and  C_6
REMARK    6  A    between atoms: C_6  and  O_8
REMARK    7  A    between atoms: C_15  and  C_16
REMARK    8  A    between atoms: C_21  and  N_22
REMARK                            x       y       z     vdW  Elec       q    Type
REMARK                         _______ _______ _______ _____ _____    ______ ____
ROOT
ATOM      1  C   UNL     1       3.332   5.640  18.393  0.00  0.00    +0.000 C 
ATOM      2  C   UNL     1       1.930   5.161  17.887  0.00  0.00    +0.000 C 
ATOM      3  C   UNL     1       1.853   3.649  17.746  0.00  0.00    +0.000 C 
ATOM      4  C   UNL     1       2.835   3.218  16.674  0.00  0.00    +0.000 C 
ATOM      5  N   UNL     1       4.149   3.827  16.816  0.00  0.00    +0.000 N 
ATOM      6  C   UNL     1       5.233   3.374  16.124  0.00  0.00    +0.000 A 
ATOM      7  C   UNL     1       6.299   4.168  16.452  0.00  0.00    +0.000 A 
ATOM      8  C   UNL     1       5.839   5.222  17.305  0.00  0.00    +0.000 A 
ATOM      9  C   UNL     1       4.466   4.963  17.557  0.00  0.00    +0.000 A 
ENDROOT
BRANCH   8  10
ATOM     10  C   UNL     1       6.650   6.370  17.778  0.00  0.00    +0.000 A 
ATOM     11  C   UNL     1       6.493   7.613  17.154  0.00  0.00    +0.000 A 
ATOM     12  C   UNL     1       7.395   8.664  17.332  0.00  0.00    +0.000 A 
ATOM     13  C   UNL     1       8.421   8.533  18.246  0.00  0.00    +0.000 A 
ATOM     14  C   UNL     1       8.489   7.381  19.021  0.00  0.00    +0.000 A 
ATOM     15  C   UNL     1       7.587   6.309  18.840  0.00  0.00    +0.000 A 
BRANCH  15  16
ATOM     16  N   UNL     1       7.859   5.155  19.604  0.00  0.00    +0.000 N 
ATOM     17  H   UNL     1       7.766   5.329  20.603  0.00  0.00    +0.000 HD
ATOM     18  H   UNL     1       7.294   4.356  19.340  0.00  0.00    +0.000 HD
ENDBRANCH  15  16
ENDBRANCH   8  10
BRANCH   1  20
ATOM     19  C   UNL     1       2.207   5.263  20.763  0.00  0.00    +0.000 C 
ATOM     20  C   UNL     1       3.466   5.198  19.900  0.00  0.00    +0.000 C 
ENDBRANCH   1  20
BRANCH   1  21
ATOM     21  C   UNL     1       3.351   7.193  18.259  0.00  0.00    +0.000 C 
BRANCH  21  22
ATOM     22  C   UNL     1       2.110   7.813  17.610  0.00  0.00    +0.000 C 
BRANCH  22  23
ATOM     23  C   UNL     1       1.780   9.119  18.272  0.00  0.00    +0.000 C 
ATOM     24  O   UNL     1       1.352   9.213  19.425  0.00  0.00    +0.000 OA
BRANCH  23  25
ATOM     25  O   UNL     1       2.018  10.204  17.504  0.00  0.00    +0.000 OA
ATOM     26  H   UNL     1       1.499  10.987  17.777  0.00  0.00    +0.000 HD
ENDBRANCH  23  25
ENDBRANCH  22  23
ENDBRANCH  21  22
ENDBRANCH   1  21
TORSDOF 7
ENDMDL
MODEL 5
REMARK VINA RESULT:      -5.9      2.137      4.911
REMARK  Name = 
REMARK  8 active torsions:
REMARK  status: ('A' for Active; 'I' for Inactive)
REMARK    1  A    between atoms: C_1  and  C_2
REMARK    2  A    between atoms: C_2  and  C_3
REMARK    3  A    between atoms: C_3  and  C_4
REMARK    4  A    between atoms: C_4  and  C_5
REMARK    5  A    between atoms: C_5  and  C_6
REMARK    6  A    between atoms: C_6  and  O_8
REMARK    7  A    between atoms: C_15  and  C_16
REMARK    8  A    between atoms: C_21  and  N_22
REMARK                            x       y       z     vdW  Elec       q    Type
REMARK                         _______ _______ _______ _____ _____    ______ ____
ROOT
ATOM      1  C   UNL     1       5.291   5.216  18.958  0.00  0.00    +0.000 C 
ATOM      2  C   UNL     1       6.772   5.606  19.288  0.00  0.00    +0.000 C 
ATOM      3  C   UNL     1       7.440   6.351  18.143  0.00  0.00    +0.000 C 
ATOM      4  C   UNL     1       7.527   5.418  16.951  0.00  0.00    +0.000 C 
ATOM      5  N   UNL     1       6.284   4.714  16.676  0.00  0.00    +0.000 N 
ATOM      6  C   UNL     1       6.078   4.042  15.508  0.00  0.00    +0.000 A 
ATOM      7  C   UNL     1       4.837   3.468  15.570  0.00  0.00    +0.000 A 
ATOM      8  C   UNL     1       4.286   3.707  16.870  0.00  0.00    +0.000 A 
ATOM      9  C   UNL     1       5.214   4.539  17.550  0.00  0.00    +0.000 A 
ENDROOT
BRANCH   8  10
ATOM     10  C   UNL     1       3.018   3.143  17.392  0.00  0.00    +0.000 A 
ATOM     11  C   UNL     1       1.850   3.909  17.308  0.00  0.00    +0.000 A 
ATOM     12  C   UNL     1       0.688   3.590  18.013  0.00  0.00    +0.000 A 
ATOM     13  C   UNL     1       0.629   2.413  18.732  0.00  0.00    +0.000 A 
ATOM     14  C   UNL     1       1.708   1.537  18.678  0.00  0.00    +0.000 A 
ATOM     15  C   UNL     1       2.891   1.857  17.975  0.00  0.00    +0.000 A 
BRANCH  15  16
ATOM     16  N   UNL     1       3.948   0.934  18.119  0.00  0.00    +0.000 N 
ATOM     17  H   UNL     1       4.288   0.603  17.217  0.00  0.00    +0.000 HD
ATOM     18  H   UNL     1       4.720   1.289  18.668  0.00  0.00    +0.000 HD
ENDBRANCH  15  16
ENDBRANCH   8  10
BRANCH   1  20
ATOM     19  C   UNL     1       3.890   7.003  17.592  0.00  0.00    +0.000 C 
ATOM     20  C   UNL     1       4.445   6.545  18.939  0.00  0.00    +0.000 C 
ENDBRANCH   1  20
BRANCH   1  21
ATOM     21  C   UNL     1       4.815   4.263  20.095  0.00  0.00    +0.000 C 
BRANCH  21  22
ATOM     22  C   UNL     1       3.364   4.451  20.547  0.00  0.00    +0.000 C 
BRANCH  22  23
ATOM     23  C   UNL     1       2.926   3.279  21.377  0.00  0.00    +0.000 C 
ATOM     24  O   UNL     1       1.895   3.267  22.054  0.00  0.00    +0.000 OA
BRANCH  23  25
ATOM     25  O   UNL     1       3.749   2.210  21.302  0.00  0.00    +0.000 OA
ATOM     26  H   UNL     1       4.668   2.452  21.073  0.00  0.00    +0.000 HD
ENDBRANCH  23  25
ENDBRANCH  22  23
ENDBRANCH  21  22
ENDBRANCH   1  21
TORSDOF 7
ENDMDL
MODEL 6
REMARK VINA RESULT:      -5.9      2.744      4.999
REMARK  Name = 
REMARK  8 active torsions:
REMARK  status: ('A' for Active; 'I' for Inactive)
REMARK    1  A    between atoms: C_1  and  C_2
REMARK    2  A    between atoms: C_2  and  C_3
REMARK    3  A    between atoms: C_3  and  C_4
REMARK    4  A    between atoms: C_4  and  C_5
REMARK    5  A    between atoms: C_5  and  C_6
REMARK    6  A    between atoms: C_6  and  O_8
REMARK    7  A    between atoms: C_15  and  C_16
REMARK    8  A    between atoms: C_21  and  N_22
REMARK                            x       y       z     vdW  Elec       q    Type
REMARK                         _______ _______ _______ _____ _____    ______ ____
ROOT
ATOM      1  C   UNL     1       4.354   4.741  18.649  0.00  0.00    +0.000 C 
ATOM      2  C   UNL     1       5.384   3.652  19.106  0.00  0.00    +0.000 C 
ATOM      3  C   UNL     1       4.722   2.309  19.370  0.00  0.00    +0.000 C 
ATOM      4  C   UNL     1       3.764   2.469  20.534  0.00  0.00    +0.000 C 
ATOM      5  N   UNL     1       2.910   3.641  20.424  0.00  0.00    +0.000 N 
ATOM      6  C   UNL     1       1.816   3.817  21.218  0.00  0.00    +0.000 A 
ATOM      7  C   UNL     1       1.251   5.019  20.891  0.00  0.00    +0.000 A 
ATOM      8  C   UNL     1       2.082   5.668  19.923  0.00  0.00    +0.000 A 
ATOM      9  C   UNL     1       3.121   4.752  19.609  0.00  0.00    +0.000 A 
ENDROOT
BRANCH   8  10
ATOM     10  C   UNL     1       1.898   7.045  19.405  0.00  0.00    +0.000 A 
ATOM     11  C   UNL     1       1.963   7.265  18.024  0.00  0.00    +0.000 A 
ATOM     12  C   UNL     1       2.084   8.541  17.469  0.00  0.00    +0.000 A 
ATOM     13  C   UNL     1       2.018   9.649  18.290  0.00  0.00    +0.000 A 
ATOM     14  C   UNL     1       1.762   9.469  19.645  0.00  0.00    +0.000 A 
ATOM     15  C   UNL     1       1.648   8.182  20.215  0.00  0.00    +0.000 A 
BRANCH  15  16
ATOM     16  N   UNL     1       1.520   8.152  21.620  0.00  0.00    +0.000 N 
ATOM     17  H   UNL     1       1.026   8.970  21.974  0.00  0.00    +0.000 HD
ATOM     18  H   UNL     1       1.080   7.308  21.965  0.00  0.00    +0.000 HD
ENDBRANCH  15  16
ENDBRANCH   8  10
BRANCH   1  20
ATOM     19  C   UNL     1       2.535   3.637  17.069  0.00  0.00    +0.000 C 
ATOM     20  C   UNL     1       3.876   4.358  17.197  0.00  0.00    +0.000 C 
ENDBRANCH   1  20
BRANCH   1  21
ATOM     21  C   UNL     1       5.112   6.102  18.650  0.00  0.00    +0.000 C 
BRANCH  21  22
ATOM     22  C   UNL     1       5.539   6.620  17.272  0.00  0.00    +0.000 C 
BRANCH  22  23
ATOM     23  C   UNL     1       7.017   6.431  17.086  0.00  0.00    +0.000 C 
ATOM     24  O   UNL     1       7.525   5.998  16.050  0.00  0.00    +0.000 OA
BRANCH  23  25
ATOM     25  O   UNL     1       7.760   6.806  18.150  0.00  0.00    +0.000 OA
ATOM     26  H   UNL     1       7.537   6.312  18.964  0.00  0.00    +0.000 HD
ENDBRANCH  23  25
ENDBRANCH  22  23
ENDBRANCH  21  22
ENDBRANCH   1  21
TORSDOF 7
ENDMDL
MODEL 7
REMARK VINA RESULT:      -5.9      3.107      4.424
REMARK  Name = 
REMARK  8 active torsions:
REMARK  status: ('A' for Active; 'I' for Inactive)
REMARK    1  A    between atoms: C_1  and  C_2
REMARK    2  A    between atoms: C_2  and  C_3
REMARK    3  A    between atoms: C_3  and  C_4
REMARK    4  A    between atoms: C_4  and  C_5
REMARK    5  A    between atoms: C_5  and  C_6
REMARK    6  A    between atoms: C_6  and  O_8
REMARK    7  A    between atoms: C_15  and  C_16
REMARK    8  A    between atoms: C_21  and  N_22
REMARK                            x       y       z     vdW  Elec       q    Type
REMARK                         _______ _______ _______ _____ _____    ______ ____
ROOT
ATOM      1  C   UNL     1       2.944   4.629  19.818  0.00  0.00    +0.000 C 
ATOM      2  C   UNL     1       1.403   4.488  20.063  0.00  0.00    +0.000 C 
ATOM      3  C   UNL     1       0.890   3.098  19.723  0.00  0.00    +0.000 C 
ATOM      4  C   UNL     1       1.083   2.867  18.237  0.00  0.00    +0.000 C 
ATOM      5  N   UNL     1       2.404   3.245  17.760  0.00  0.00    +0.000 N 
ATOM      6  C   UNL     1       2.862   2.874  16.530  0.00  0.00    +0.000 A 
ATOM      7  C   UNL     1       4.113   3.407  16.373  0.00  0.00    +0.000 A 
ATOM      8  C   UNL     1       4.408   4.226  17.508  0.00  0.00    +0.000 A 
ATOM      9  C   UNL     1       3.316   4.079  18.403  0.00  0.00    +0.000 A 
ENDROOT
BRANCH   8  10
ATOM     10  C   UNL     1       5.605   5.087  17.668  0.00  0.00    +0.000 A 
ATOM     11  C   UNL     1       6.528   4.785  18.677  0.00  0.00    +0.000 A 
ATOM     12  C   UNL     1       7.518   5.681  19.085  0.00  0.00    +0.000 A 
ATOM     13  C   UNL     1       7.687   6.867  18.398  0.00  0.00    +0.000 A 
ATOM     14  C   UNL     1       6.910   7.109  17.271  0.00  0.00    +0.000 A 
ATOM     15  C   UNL     1       5.900   6.212  16.858  0.00  0.00    +0.000 A 
BRANCH  15  16
ATOM     16  N   UNL     1       5.106   6.652  15.778  0.00  0.00    +0.000 N 
ATOM     17  H   UNL     1       5.526   6.421  14.879  0.00  0.00    +0.000 HD
ATOM     18  H   UNL     1       4.155   6.307  15.812  0.00  0.00    +0.000 HD
ENDBRANCH  15  16
ENDBRANCH   8  10
BRANCH   1  20
ATOM     19  C   UNL     1       4.269   2.431  20.478  0.00  0.00    +0.000 C 
ATOM     20  C   UNL     1       3.677   3.769  20.917  0.00  0.00    +0.000 C 
ENDBRANCH   1  20
BRANCH   1  21
ATOM     21  C   UNL     1       3.285   6.142  19.969  0.00  0.00    +0.000 C 
BRANCH  21  22
ATOM     22  C   UNL     1       2.506   7.088  19.050  0.00  0.00    +0.000 C 
BRANCH  22  23
ATOM     23  C   UNL     1       1.818   8.146  19.863  0.00  0.00    +0.000 C 
ATOM     24  O   UNL     1       1.269   9.136  19.373  0.00  0.00    +0.000 OA
BRANCH  23  25
ATOM     25  O   UNL     1       1.824   7.912  21.193  0.00  0.00    +0.000 OA
ATOM     26  H   UNL     1       2.283   7.082  21.433  0.00  0.00    +0.000 HD
ENDBRANCH  23  25
ENDBRANCH  22  23
ENDBRANCH  21  22
ENDBRANCH   1  21
TORSDOF 7
ENDMDL
MODEL 8
REMARK VINA RESULT:      -5.8      1.821      4.847
REMARK  Name = 
REMARK  8 active torsions:
REMARK  status: ('A' for Active; 'I' for Inactive)
REMARK    1  A    between atoms: C_1  and  C_2
REMARK    2  A    between atoms: C_2  and  C_3
REMARK    3  A    between atoms: C_3  and  C_4
REMARK    4  A    between atoms: C_4  and  C_5
REMARK    5  A    between atoms: C_5  and  C_6
REMARK    6  A    between atoms: C_6  and  O_8
REMARK    7  A    between atoms: C_15  and  C_16
REMARK    8  A    between atoms: C_21  and  N_22
REMARK                            x       y       z     vdW  Elec       q    Type
REMARK                         _______ _______ _______ _____ _____    ______ ____
ROOT
ATOM      1  C   UNL     1       5.245   5.138  18.110  0.00  0.00    +0.000 C 
ATOM      2  C   UNL     1       6.170   5.541  16.912  0.00  0.00    +0.000 C 
ATOM      3  C   UNL     1       6.524   7.020  16.929  0.00  0.00    +0.000 C 
ATOM      4  C   UNL     1       5.249   7.818  16.738  0.00  0.00    +0.000 C 
ATOM      5  N   UNL     1       4.153   7.367  17.581  0.00  0.00    +0.000 N 
ATOM      6  C   UNL     1       3.021   8.108  17.753  0.00  0.00    +0.000 A 
ATOM      7  C   UNL     1       2.180   7.401  18.569  0.00  0.00    +0.000 A 
ATOM      8  C   UNL     1       2.767   6.124  18.837  0.00  0.00    +0.000 A 
ATOM      9  C   UNL     1       4.048   6.136  18.226  0.00  0.00    +0.000 A 
ENDROOT
BRANCH   8  10
ATOM     10  C   UNL     1       2.120   5.009  19.570  0.00  0.00    +0.000 A 
ATOM     11  C   UNL     1       2.292   4.919  20.957  0.00  0.00    +0.000 A 
ATOM     12  C   UNL     1       1.967   3.771  21.683  0.00  0.00    +0.000 A 
ATOM     13  C   UNL     1       1.341   2.717  21.047  0.00  0.00    +0.000 A 
ATOM     14  C   UNL     1       0.984   2.855  19.710  0.00  0.00    +0.000 A 
ATOM     15  C   UNL     1       1.318   4.008  18.966  0.00  0.00    +0.000 A 
BRANCH  15  16
ATOM     16  N   UNL     1       1.009   3.951  17.591  0.00  0.00    +0.000 N 
ATOM     17  H   UNL     1       0.499   3.102  17.351  0.00  0.00    +0.000 HD
ATOM     18  H   UNL     1       0.502   4.762  17.258  0.00  0.00    +0.000 HD
ENDBRANCH  15  16
ENDBRANCH   8  10
BRANCH   1  20
ATOM     19  C   UNL     1       7.603   5.511  19.261  0.00  0.00    +0.000 C 
ATOM     20  C   UNL     1       6.113   5.217  19.424  0.00  0.00    +0.000 C 
ENDBRANCH   1  20
BRANCH   1  21
ATOM     21  C   UNL     1       4.770   3.679  17.839  0.00  0.00    +0.000 C 
BRANCH  21  22
ATOM     22  C   UNL     1       4.700   2.769  19.069  0.00  0.00    +0.000 C 
BRANCH  22  23
ATOM     23  C   UNL     1       4.099   1.444  18.698  0.00  0.00    +0.000 C 
ATOM     24  O   UNL     1       3.098   1.322  17.989  0.00  0.00    +0.000 OA
BRANCH  23  25
ATOM     25  O   UNL     1       4.769   0.377  19.186  0.00  0.00    +0.000 OA
ATOM     26  H   UNL     1       4.178  -0.354  19.454  0.00  0.00    +0.000 HD
ENDBRANCH  23  25
ENDBRANCH  22  23
ENDBRANCH  21  22
ENDBRANCH   1  21
TORSDOF 7
ENDMDL
MODEL 9
REMARK VINA RESULT:      -5.8     10.190     12.332
REMARK  Name = 
REMARK  8 active torsions:
REMARK  status: ('A' for Active; 'I' for Inactive)
REMARK    1  A    between atoms: C_1  and  C_2
REMARK    2  A    between atoms: C_2  and  C_3
REMARK    3  A    between atoms: C_3  and  C_4
REMARK    4  A    between atoms: C_4  and  C_5
REMARK    5  A    between atoms: C_5  and  C_6
REMARK    6  A    between atoms: C_6  and  O_8
REMARK    7  A    between atoms: C_15  and  C_16
REMARK    8  A    between atoms: C_21  and  N_22
REMARK                            x       y       z     vdW  Elec       q    Type
REMARK                         _______ _______ _______ _____ _____    ______ ____
ROOT
ATOM      1  C   UNL     1      10.308  12.766  18.441  0.00  0.00    +0.000 C 
ATOM      2  C   UNL     1      10.743  13.063  16.965  0.00  0.00    +0.000 C 
ATOM      3  C   UNL     1      12.161  13.605  16.881  0.00  0.00    +0.000 C 
ATOM      4  C   UNL     1      12.204  14.944  17.589  0.00  0.00    +0.000 C 
ATOM      5  N   UNL     1      11.553  14.932  18.890  0.00  0.00    +0.000 N 
ATOM      6  C   UNL     1      11.712  15.946  19.787  0.00  0.00    +0.000 A 
ATOM      7  C   UNL     1      10.953  15.652  20.888  0.00  0.00    +0.000 A 
ATOM      8  C   UNL     1      10.212  14.456  20.627  0.00  0.00    +0.000 A 
ATOM      9  C   UNL     1      10.639  13.989  19.356  0.00  0.00    +0.000 A 
ENDROOT
BRANCH   8  10
ATOM     10  C   UNL     1       9.173  13.870  21.509  0.00  0.00    +0.000 A 
ATOM     11  C   UNL     1       9.438  12.657  22.155  0.00  0.00    +0.000 A 
ATOM     12  C   UNL     1       8.440  11.896  22.766  0.00  0.00    +0.000 A 
ATOM     13  C   UNL     1       7.157  12.399  22.852  0.00  0.00    +0.000 A 
ATOM     14  C   UNL     1       6.906  13.685  22.388  0.00  0.00    +0.000 A 
ATOM     15  C   UNL     1       7.908  14.457  21.760  0.00  0.00    +0.000 A 
BRANCH  15  16
ATOM     16  N   UNL     1       7.475  15.688  21.223  0.00  0.00    +0.000 N 
ATOM     17  H   UNL     1       6.545  15.941  21.554  0.00  0.00    +0.000 HD
ATOM     18  H   UNL     1       8.120  16.450  21.393  0.00  0.00    +0.000 HD
ENDBRANCH  15  16
ENDBRANCH   8  10
BRANCH   1  20
ATOM     19  C   UNL     1      12.329  11.778  19.841  0.00  0.00    +0.000 C 
ATOM     20  C   UNL     1      11.130  11.515  18.933  0.00  0.00    +0.000 C 
ENDBRANCH   1  20
BRANCH   1  21
ATOM     21  C   UNL     1       8.781  12.456  18.404  0.00  0.00    +0.000 C 
BRANCH  21  22
ATOM     22  C   UNL     1       8.008  13.089  17.243  0.00  0.00    +0.000 C 
BRANCH  22  23
ATOM     23  C   UNL     1       7.189  14.245  17.738  0.00  0.00    +0.000 C 
ATOM     24  O   UNL     1       7.675  15.265  18.234  0.00  0.00    +0.000 OA
BRANCH  23  25
ATOM     25  O   UNL     1       5.857  14.091  17.571  0.00  0.00    +0.000 OA
ATOM     26  H   UNL     1       5.514  14.564  16.788  0.00  0.00    +0.000 HD
ENDBRANCH  23  25
ENDBRANCH  22  23
ENDBRANCH  21  22
ENDBRANCH   1  21
TORSDOF 7
ENDMDL
