MODEL 1
REMARK VINA RESULT:      -7.6      0.000      0.000
REMARK  Name = 
REMARK  4 active torsions:
REMARK  status: ('A' for Active; 'I' for Inactive)
REMARK    1  A    between atoms: C_1  and  C_2
REMARK    2  A    between atoms: C_7  and  C_8
REMARK    3  A    between atoms: C_14  and  C_15
REMARK    4  A    between atoms: C_15  and  N_16
REMARK                            x       y       z     vdW  Elec       q    Type
REMARK                         _______ _______ _______ _____ _____    ______ ____
ROOT
ATOM      1  C   UNL     1       7.155   4.725  16.293  0.00  0.00    +0.000 C 
ATOM      2  O   UNL     1       8.070   4.144  16.866  0.00  0.00    +0.000 OA
ATOM      3  N   UNL     1       6.195   5.474  16.976  0.00  0.00    +0.000 N 
ATOM      4  C   UNL     1       6.440   5.794  18.384  0.00  0.00    +0.000 C 
ATOM      5  C   UNL     1       5.317   5.264  19.271  0.00  0.00    +0.000 C 
ATOM      6  C   UNL     1       3.959   5.750  18.763  0.00  0.00    +0.000 C 
ATOM      7  C   UNL     1       3.730   5.374  17.293  0.00  0.00    +0.000 C 
ATOM      8  C   UNL     1       4.892   5.901  16.448  0.00  0.00    +0.000 C 
ENDROOT
BRANCH   1  15
ATOM      9  C   UNL     1       5.284   2.610  12.135  0.00  0.00    +0.000 C 
ATOM     10  C   UNL     1       6.168   3.639  12.773  0.00  0.00    +0.000 A 
ATOM     11  C   UNL     1       6.932   4.531  12.015  0.00  0.00    +0.000 A 
ATOM     12  C   UNL     1       7.762   5.459  12.650  0.00  0.00    +0.000 A 
ATOM     13 CL   UNL     1       8.647   6.591  11.703  0.00  0.00    +0.000 Cl
ATOM     14  C   UNL     1       7.864   5.494  14.039  0.00  0.00    +0.000 A 
ATOM     15  C   UNL     1       7.100   4.610  14.806  0.00  0.00    +0.000 A 
ATOM     16  C   UNL     1       6.228   3.718  14.166  0.00  0.00    +0.000 A 
ENDBRANCH   1  15
BRANCH   7  17
ATOM     17  C   UNL     1       3.568   3.862  17.044  0.00  0.00    +0.000 C 
BRANCH  17  18
ATOM     18  N   UNL     1       2.598   3.219  17.898  0.00  0.00    +0.000 N 
ATOM     19  C   UNL     1       2.812   2.261  18.840  0.00  0.00    +0.000 A 
ATOM     20  C   UNL     1       1.545   1.904  19.234  0.00  0.00    +0.000 A 
ATOM     21  N   UNL     1       0.625   2.655  18.558  0.00  0.00    +0.000 NA
ATOM     22  N   UNL     1       1.289   3.460  17.730  0.00  0.00    +0.000 NA
ENDBRANCH  17  18
ENDBRANCH   7  17
TORSDOF 3
ENDMDL
MODEL 2
REMARK VINA RESULT:      -7.6      1.197      1.886
REMARK  Name = 
REMARK  4 active torsions:
REMARK  status: ('A' for Active; 'I' for Inactive)
REMARK    1  A    between atoms: C_1  and  C_2
REMARK    2  A    between atoms: C_7  and  C_8
REMARK    3  A    between atoms: C_14  and  C_15
REMARK    4  A    between atoms: C_15  and  N_16
REMARK                            x       y       z     vdW  Elec       q    Type
REMARK                         _______ _______ _______ _____ _____    ______ ____
ROOT
ATOM      1  C   UNL     1       7.135   4.760  16.263  0.00  0.00    +0.000 C 
ATOM      2  O   UNL     1       8.048   4.139  16.796  0.00  0.00    +0.000 OA
ATOM      3  N   UNL     1       6.196   5.491  16.993  0.00  0.00    +0.000 N 
ATOM      4  C   UNL     1       6.464   5.741  18.411  0.00  0.00    +0.000 C 
ATOM      5  C   UNL     1       5.343   5.189  19.287  0.00  0.00    +0.000 C 
ATOM      6  C   UNL     1       3.988   5.719  18.821  0.00  0.00    +0.000 C 
ATOM      7  C   UNL     1       3.734   5.416  17.339  0.00  0.00    +0.000 C 
ATOM      8  C   UNL     1       4.893   5.963  16.503  0.00  0.00    +0.000 C 
ENDROOT
BRANCH   1  15
ATOM      9  C   UNL     1       8.579   6.452  11.756  0.00  0.00    +0.000 C 
ATOM     10  C   UNL     1       7.784   5.480  12.575  0.00  0.00    +0.000 A 
ATOM     11  C   UNL     1       6.985   4.496  11.986  0.00  0.00    +0.000 A 
ATOM     12  C   UNL     1       6.241   3.625  12.786  0.00  0.00    +0.000 A 
ATOM     13 CL   UNL     1       5.312   2.380  12.046  0.00  0.00    +0.000 Cl
ATOM     14  C   UNL     1       6.259   3.738  14.174  0.00  0.00    +0.000 A 
ATOM     15  C   UNL     1       7.059   4.715  14.774  0.00  0.00    +0.000 A 
ATOM     16  C   UNL     1       7.846   5.550  13.969  0.00  0.00    +0.000 A 
ENDBRANCH   1  15
BRANCH   7  17
ATOM     17  C   UNL     1       3.544   3.920  17.022  0.00  0.00    +0.000 C 
BRANCH  17  18
ATOM     18  N   UNL     1       2.589   3.248  17.871  0.00  0.00    +0.000 N 
ATOM     19  C   UNL     1       2.823   2.268  18.786  0.00  0.00    +0.000 A 
ATOM     20  C   UNL     1       1.563   1.892  19.186  0.00  0.00    +0.000 A 
ATOM     21  N   UNL     1       0.629   2.653  18.542  0.00  0.00    +0.000 NA
ATOM     22  N   UNL     1       1.276   3.483  17.726  0.00  0.00    +0.000 NA
ENDBRANCH  17  18
ENDBRANCH   7  17
TORSDOF 3
ENDMDL
MODEL 3
REMARK VINA RESULT:      -7.3      4.129      7.386
REMARK  Name = 
REMARK  4 active torsions:
REMARK  status: ('A' for Active; 'I' for Inactive)
REMARK    1  A    between atoms: C_1  and  C_2
REMARK    2  A    between atoms: C_7  and  C_8
REMARK    3  A    between atoms: C_14  and  C_15
REMARK    4  A    between atoms: C_15  and  N_16
REMARK                            x       y       z     vdW  Elec       q    Type
REMARK                         _______ _______ _______ _____ _____    ______ ____
ROOT
ATOM      1  C   UNL     1       2.113   4.873  20.475  0.00  0.00    +0.000 C 
ATOM      2  O   UNL     1       2.336   4.480  21.615  0.00  0.00    +0.000 OA
ATOM      3  N   UNL     1       2.094   4.016  19.374  0.00  0.00    +0.000 N 
ATOM      4  C   UNL     1       2.078   2.572  19.621  0.00  0.00    +0.000 C 
ATOM      5  C   UNL     1       3.274   1.889  18.964  0.00  0.00    +0.000 C 
ATOM      6  C   UNL     1       3.351   2.252  17.481  0.00  0.00    +0.000 C 
ATOM      7  C   UNL     1       3.392   3.771  17.266  0.00  0.00    +0.000 C 
ATOM      8  C   UNL     1       2.191   4.415  17.963  0.00  0.00    +0.000 C 
ENDROOT
BRANCH   1  15
ATOM      9  C   UNL     1       2.405   9.069  17.723  0.00  0.00    +0.000 C 
ATOM     10  C   UNL     1       1.927   8.368  18.959  0.00  0.00    +0.000 A 
ATOM     11  C   UNL     1       1.203   9.032  19.953  0.00  0.00    +0.000 A 
ATOM     12  C   UNL     1       0.797   8.346  21.102  0.00  0.00    +0.000 A 
ATOM     13 CL   UNL     1      -0.147   9.162  22.286  0.00  0.00    +0.000 Cl
ATOM     14  C   UNL     1       1.129   7.006  21.288  0.00  0.00    +0.000 A 
ATOM     15  C   UNL     1       1.848   6.331  20.297  0.00  0.00    +0.000 A 
ATOM     16  C   UNL     1       2.205   7.008  19.123  0.00  0.00    +0.000 A 
ENDBRANCH   1  15
BRANCH   7  17
ATOM     17  C   UNL     1       4.685   4.446  17.760  0.00  0.00    +0.000 C 
BRANCH  17  18
ATOM     18  N   UNL     1       5.705   4.589  16.749  0.00  0.00    +0.000 N 
ATOM     19  C   UNL     1       5.547   4.641  15.398  0.00  0.00    +0.000 A 
ATOM     20  C   UNL     1       6.836   4.626  14.920  0.00  0.00    +0.000 A 
ATOM     21  N   UNL     1       7.714   4.596  15.967  0.00  0.00    +0.000 NA
ATOM     22  N   UNL     1       7.002   4.567  17.092  0.00  0.00    +0.000 NA
ENDBRANCH  17  18
ENDBRANCH   7  17
TORSDOF 3
ENDMDL
MODEL 4
REMARK VINA RESULT:      -7.2      3.329      4.762
REMARK  Name = 
REMARK  4 active torsions:
REMARK  status: ('A' for Active; 'I' for Inactive)
REMARK    1  A    between atoms: C_1  and  C_2
REMARK    2  A    between atoms: C_7  and  C_8
REMARK    3  A    between atoms: C_14  and  C_15
REMARK    4  A    between atoms: C_15  and  N_16
REMARK                            x       y       z     vdW  Elec       q    Type
REMARK                         _______ _______ _______ _____ _____    ______ ____
ROOT
ATOM      1  C   UNL     1       3.768   3.536  17.876  0.00  0.00    +0.000 C 
ATOM      2  O   UNL     1       3.162   2.611  17.347  0.00  0.00    +0.000 OA
ATOM      3  N   UNL     1       3.400   4.066  19.114  0.00  0.00    +0.000 N 
ATOM      4  C   UNL     1       2.430   3.325  19.923  0.00  0.00    +0.000 C 
ATOM      5  C   UNL     1       1.206   4.182  20.232  0.00  0.00    +0.000 C 
ATOM      6  C   UNL     1       1.626   5.514  20.853  0.00  0.00    +0.000 C 
ATOM      7  C   UNL     1       2.622   6.270  19.965  0.00  0.00    +0.000 C 
ATOM      8  C   UNL     1       3.817   5.365  19.659  0.00  0.00    +0.000 C 
ENDROOT
BRANCH   1  15
ATOM      9  C   UNL     1       6.465   4.014  13.661  0.00  0.00    +0.000 C 
ATOM     10  C   UNL     1       6.241   4.381  15.098  0.00  0.00    +0.000 A 
ATOM     11  C   UNL     1       7.088   5.258  15.779  0.00  0.00    +0.000 A 
ATOM     12  C   UNL     1       6.857   5.554  17.125  0.00  0.00    +0.000 A 
ATOM     13 CL   UNL     1       7.873   6.685  17.930  0.00  0.00    +0.000 Cl
ATOM     14  C   UNL     1       5.802   4.962  17.815  0.00  0.00    +0.000 A 
ATOM     15  C   UNL     1       4.945   4.087  17.142  0.00  0.00    +0.000 A 
ATOM     16  C   UNL     1       5.148   3.836  15.778  0.00  0.00    +0.000 A 
ENDBRANCH   1  15
BRANCH   7  17
ATOM     17  C   UNL     1       2.026   6.784  18.640  0.00  0.00    +0.000 C 
BRANCH  17  18
ATOM     18  N   UNL     1       1.911   8.221  18.558  0.00  0.00    +0.000 N 
ATOM     19  C   UNL     1       1.264   9.062  19.410  0.00  0.00    +0.000 A 
ATOM     20  C   UNL     1       1.341  10.282  18.782  0.00  0.00    +0.000 A 
ATOM     21  N   UNL     1       2.038  10.154  17.613  0.00  0.00    +0.000 NA
ATOM     22  N   UNL     1       2.379   8.874  17.483  0.00  0.00    +0.000 NA
ENDBRANCH  17  18
ENDBRANCH   7  17
TORSDOF 3
ENDMDL
MODEL 5
REMARK VINA RESULT:      -7.0      3.510      7.235
REMARK  Name = 
REMARK  4 active torsions:
REMARK  status: ('A' for Active; 'I' for Inactive)
REMARK    1  A    between atoms: C_1  and  C_2
REMARK    2  A    between atoms: C_7  and  C_8
REMARK    3  A    between atoms: C_14  and  C_15
REMARK    4  A    between atoms: C_15  and  N_16
REMARK                            x       y       z     vdW  Elec       q    Type
REMARK                         _______ _______ _______ _____ _____    ______ ____
ROOT
ATOM      1  C   UNL     1       2.164   4.765  20.487  0.00  0.00    +0.000 C 
ATOM      2  O   UNL     1       2.446   4.406  21.625  0.00  0.00    +0.000 OA
ATOM      3  N   UNL     1       2.160   3.887  19.401  0.00  0.00    +0.000 N 
ATOM      4  C   UNL     1       2.235   2.450  19.673  0.00  0.00    +0.000 C 
ATOM      5  C   UNL     1       3.446   1.824  18.988  0.00  0.00    +0.000 C 
ATOM      6  C   UNL     1       3.454   2.164  17.498  0.00  0.00    +0.000 C 
ATOM      7  C   UNL     1       3.401   3.678  17.256  0.00  0.00    +0.000 C 
ATOM      8  C   UNL     1       2.188   4.265  17.982  0.00  0.00    +0.000 C 
ENDROOT
BRANCH   1  15
ATOM      9  C   UNL     1      -0.013   8.992  22.117  0.00  0.00    +0.000 C 
ATOM     10  C   UNL     1       0.810   8.279  21.086  0.00  0.00    +0.000 A 
ATOM     11  C   UNL     1       1.293   8.928  19.946  0.00  0.00    +0.000 A 
ATOM     12  C   UNL     1       2.036   8.220  18.997  0.00  0.00    +0.000 A 
ATOM     13 CL   UNL     1       2.676   9.050  17.632  0.00  0.00    +0.000 Cl
ATOM     14  C   UNL     1       2.284   6.859  19.155  0.00  0.00    +0.000 A 
ATOM     15  C   UNL     1       1.810   6.201  20.294  0.00  0.00    +0.000 A 
ATOM     16  C   UNL     1       1.113   6.928  21.269  0.00  0.00    +0.000 A 
ENDBRANCH   1  15
BRANCH   7  17
ATOM     17  C   UNL     1       4.668   4.435  17.696  0.00  0.00    +0.000 C 
BRANCH  17  18
ATOM     18  N   UNL     1       5.586   4.733  16.622  0.00  0.00    +0.000 N 
ATOM     19  C   UNL     1       5.696   4.113  15.415  0.00  0.00    +0.000 A 
ATOM     20  C   UNL     1       6.813   4.687  14.856  0.00  0.00    +0.000 A 
ATOM     21  N   UNL     1       7.317   5.632  15.704  0.00  0.00    +0.000 NA
ATOM     22  N   UNL     1       6.553   5.646  16.795  0.00  0.00    +0.000 NA
ENDBRANCH  17  18
ENDBRANCH   7  17
TORSDOF 3
ENDMDL
MODEL 6
REMARK VINA RESULT:      -7.0      3.198      4.917
REMARK  Name = 
REMARK  4 active torsions:
REMARK  status: ('A' for Active; 'I' for Inactive)
REMARK    1  A    between atoms: C_1  and  C_2
REMARK    2  A    between atoms: C_7  and  C_8
REMARK    3  A    between atoms: C_14  and  C_15
REMARK    4  A    between atoms: C_15  and  N_16
REMARK                            x       y       z     vdW  Elec       q    Type
REMARK                         _______ _______ _______ _____ _____    ______ ____
ROOT
ATOM      1  C   UNL     1       3.746   3.712  17.760  0.00  0.00    +0.000 C 
ATOM      2  O   UNL     1       3.169   2.775  17.219  0.00  0.00    +0.000 OA
ATOM      3  N   UNL     1       3.392   4.185  19.025  0.00  0.00    +0.000 N 
ATOM      4  C   UNL     1       2.484   3.372  19.838  0.00  0.00    +0.000 C 
ATOM      5  C   UNL     1       1.230   4.157  20.211  0.00  0.00    +0.000 C 
ATOM      6  C   UNL     1       1.604   5.488  20.862  0.00  0.00    +0.000 C 
ATOM      7  C   UNL     1       2.534   6.320  19.969  0.00  0.00    +0.000 C 
ATOM      8  C   UNL     1       3.762   5.485  19.599  0.00  0.00    +0.000 C 
ENDROOT
BRANCH   1  15
ATOM      9  C   UNL     1       7.698   6.812  17.594  0.00  0.00    +0.000 C 
ATOM     10  C   UNL     1       6.825   5.798  16.918  0.00  0.00    +0.000 A 
ATOM     11  C   UNL     1       7.048   5.391  15.600  0.00  0.00    +0.000 A 
ATOM     12  C   UNL     1       6.195   4.460  14.999  0.00  0.00    +0.000 A 
ATOM     13 CL   UNL     1       6.521   3.924  13.398  0.00  0.00    +0.000 Cl
ATOM     14  C   UNL     1       5.100   3.947  15.689  0.00  0.00    +0.000 A 
ATOM     15  C   UNL     1       4.871   4.343  17.010  0.00  0.00    +0.000 A 
ATOM     16  C   UNL     1       5.761   5.234  17.626  0.00  0.00    +0.000 A 
ENDBRANCH   1  15
BRANCH   7  17
ATOM     17  C   UNL     1       1.873   6.845  18.680  0.00  0.00    +0.000 C 
BRANCH  17  18
ATOM     18  N   UNL     1       1.830   8.284  18.577  0.00  0.00    +0.000 N 
ATOM     19  C   UNL     1       1.222   9.168  19.414  0.00  0.00    +0.000 A 
ATOM     20  C   UNL     1       1.362  10.374  18.770  0.00  0.00    +0.000 A 
ATOM     21  N   UNL     1       2.057  10.195  17.607  0.00  0.00    +0.000 NA
ATOM     22  N   UNL     1       2.335   8.897  17.496  0.00  0.00    +0.000 NA
ENDBRANCH  17  18
ENDBRANCH   7  17
TORSDOF 3
ENDMDL
MODEL 7
REMARK VINA RESULT:      -6.9      3.284      4.863
REMARK  Name = 
REMARK  4 active torsions:
REMARK  status: ('A' for Active; 'I' for Inactive)
REMARK    1  A    between atoms: C_1  and  C_2
REMARK    2  A    between atoms: C_7  and  C_8
REMARK    3  A    between atoms: C_14  and  C_15
REMARK    4  A    between atoms: C_15  and  N_16
REMARK                            x       y       z     vdW  Elec       q    Type
REMARK                         _______ _______ _______ _____ _____    ______ ____
ROOT
ATOM      1  C   UNL     1       3.404   3.746  17.331  0.00  0.00    +0.000 C 
ATOM      2  O   UNL     1       2.638   3.132  16.597  0.00  0.00    +0.000 OA
ATOM      3  N   UNL     1       3.178   3.892  18.701  0.00  0.00    +0.000 N 
ATOM      4  C   UNL     1       2.141   3.066  19.322  0.00  0.00    +0.000 C 
ATOM      5  C   UNL     1       1.079   3.931  19.995  0.00  0.00    +0.000 C 
ATOM      6  C   UNL     1       1.729   4.923  20.960  0.00  0.00    +0.000 C 
ATOM      7  C   UNL     1       2.790   5.786  20.266  0.00  0.00    +0.000 C 
ATOM      8  C   UNL     1       3.815   4.878  19.584  0.00  0.00    +0.000 C 
ENDROOT
BRANCH   1  15
ATOM      9  C   UNL     1       7.471   6.687  17.597  0.00  0.00    +0.000 C 
ATOM     10  C   UNL     1       6.628   5.719  16.822  0.00  0.00    +0.000 A 
ATOM     11  C   UNL     1       6.958   5.324  15.523  0.00  0.00    +0.000 A 
ATOM     12  C   UNL     1       6.130   4.438  14.827  0.00  0.00    +0.000 A 
ATOM     13 CL   UNL     1       6.585   3.914  13.253  0.00  0.00    +0.000 Cl
ATOM     14  C   UNL     1       4.955   3.959  15.401  0.00  0.00    +0.000 A 
ATOM     15  C   UNL     1       4.619   4.343  16.702  0.00  0.00    +0.000 A 
ATOM     16  C   UNL     1       5.480   5.188  17.415  0.00  0.00    +0.000 A 
ENDBRANCH   1  15
BRANCH   7  17
ATOM     17  C   UNL     1       2.223   6.775  19.230  0.00  0.00    +0.000 C 
BRANCH  17  18
ATOM     18  N   UNL     1       1.744   8.016  19.791  0.00  0.00    +0.000 N 
ATOM     19  C   UNL     1       1.395   8.274  21.081  0.00  0.00    +0.000 A 
ATOM     20  C   UNL     1       0.873   9.544  21.028  0.00  0.00    +0.000 A 
ATOM     21  N   UNL     1       0.945  10.017  19.748  0.00  0.00    +0.000 NA
ATOM     22  N   UNL     1       1.480   9.060  18.992  0.00  0.00    +0.000 NA
ENDBRANCH  17  18
ENDBRANCH   7  17
TORSDOF 3
ENDMDL
MODEL 8
REMARK VINA RESULT:      -6.8      3.132      4.613
REMARK  Name = 
REMARK  4 active torsions:
REMARK  status: ('A' for Active; 'I' for Inactive)
REMARK    1  A    between atoms: C_1  and  C_2
REMARK    2  A    between atoms: C_7  and  C_8
REMARK    3  A    between atoms: C_14  and  C_15
REMARK    4  A    between atoms: C_15  and  N_16
REMARK                            x       y       z     vdW  Elec       q    Type
REMARK                         _______ _______ _______ _____ _____    ______ ____
ROOT
ATOM      1  C   UNL     1       3.407   5.289  17.811  0.00  0.00    +0.000 C 
ATOM      2  O   UNL     1       2.864   6.292  18.261  0.00  0.00    +0.000 OA
ATOM      3  N   UNL     1       2.793   4.035  17.818  0.00  0.00    +0.000 N 
ATOM      4  C   UNL     1       1.363   3.966  18.127  0.00  0.00    +0.000 C 
ATOM      5  C   UNL     1       1.106   3.071  19.336  0.00  0.00    +0.000 C 
ATOM      6  C   UNL     1       1.753   1.701  19.137  0.00  0.00    +0.000 C 
ATOM      7  C   UNL     1       3.254   1.815  18.840  0.00  0.00    +0.000 C 
ATOM      8  C   UNL     1       3.465   2.741  17.640  0.00  0.00    +0.000 C 
ENDROOT
BRANCH   1  15
ATOM      9  C   UNL     1       6.694   4.585  14.075  0.00  0.00    +0.000 C 
ATOM     10  C   UNL     1       6.372   5.175  15.415  0.00  0.00    +0.000 A 
ATOM     11  C   UNL     1       7.309   5.912  16.145  0.00  0.00    +0.000 A 
ATOM     12  C   UNL     1       6.974   6.423  17.402  0.00  0.00    +0.000 A 
ATOM     13 CL   UNL     1       8.118   7.381  18.258  0.00  0.00    +0.000 Cl
ATOM     14  C   UNL     1       5.720   6.185  17.959  0.00  0.00    +0.000 A 
ATOM     15  C   UNL     1       4.773   5.454  17.235  0.00  0.00    +0.000 A 
ATOM     16  C   UNL     1       5.095   4.990  15.952  0.00  0.00    +0.000 A 
ENDBRANCH   1  15
BRANCH   7  17
ATOM     17  C   UNL     1       4.097   2.324  20.025  0.00  0.00    +0.000 C 
BRANCH  17  18
ATOM     18  N   UNL     1       4.983   1.335  20.593  0.00  0.00    +0.000 N 
ATOM     19  C   UNL     1       5.267   0.091  20.119  0.00  0.00    +0.000 A 
ATOM     20  C   UNL     1       6.034  -0.467  21.113  0.00  0.00    +0.000 A 
ATOM     21  N   UNL     1       6.211   0.439  22.121  0.00  0.00    +0.000 NA
ATOM     22  N   UNL     1       5.551   1.547  21.790  0.00  0.00    +0.000 NA
ENDBRANCH  17  18
ENDBRANCH   7  17
TORSDOF 3
ENDMDL
MODEL 9
REMARK VINA RESULT:      -6.5      4.489      7.440
REMARK  Name = 
REMARK  4 active torsions:
REMARK  status: ('A' for Active; 'I' for Inactive)
REMARK    1  A    between atoms: C_1  and  C_2
REMARK    2  A    between atoms: C_7  and  C_8
REMARK    3  A    between atoms: C_14  and  C_15
REMARK    4  A    between atoms: C_15  and  N_16
REMARK                            x       y       z     vdW  Elec       q    Type
REMARK                         _______ _______ _______ _____ _____    ______ ____
ROOT
ATOM      1  C   UNL     1       1.664   4.745  20.005  0.00  0.00    +0.000 C 
ATOM      2  O   UNL     1       1.225   4.178  20.999  0.00  0.00    +0.000 OA
ATOM      3  N   UNL     1       2.143   4.049  18.893  0.00  0.00    +0.000 N 
ATOM      4  C   UNL     1       1.869   2.613  18.804  0.00  0.00    +0.000 C 
ATOM      5  C   UNL     1       3.164   1.812  18.705  0.00  0.00    +0.000 C 
ATOM      6  C   UNL     1       4.034   2.338  17.564  0.00  0.00    +0.000 C 
ATOM      7  C   UNL     1       4.319   3.839  17.706  0.00  0.00    +0.000 C 
ATOM      8  C   UNL     1       2.996   4.597  17.829  0.00  0.00    +0.000 C 
ENDROOT
BRANCH   1  15
ATOM      9  C   UNL     1       2.336   9.135  17.653  0.00  0.00    +0.000 C 
ATOM     10  C   UNL     1       1.930   8.380  18.882  0.00  0.00    +0.000 A 
ATOM     11  C   UNL     1       1.515   9.030  20.048  0.00  0.00    +0.000 A 
ATOM     12  C   UNL     1       1.168   8.287  21.180  0.00  0.00    +0.000 A 
ATOM     13 CL   UNL     1       0.599   9.102  22.585  0.00  0.00    +0.000 Cl
ATOM     14  C   UNL     1       1.256   6.897  21.177  0.00  0.00    +0.000 A 
ATOM     15  C   UNL     1       1.664   6.237  20.015  0.00  0.00    +0.000 A 
ATOM     16  C   UNL     1       1.958   6.983  18.865  0.00  0.00    +0.000 A 
ENDBRANCH   1  15
BRANCH   7  17
ATOM     17  C   UNL     1       5.222   4.201  18.901  0.00  0.00    +0.000 C 
BRANCH  17  18
ATOM     18  N   UNL     1       6.172   5.254  18.630  0.00  0.00    +0.000 N 
ATOM     19  C   UNL     1       6.204   6.103  17.567  0.00  0.00    +0.000 A 
ATOM     20  C   UNL     1       7.386   6.785  17.733  0.00  0.00    +0.000 A 
ATOM     21  N   UNL     1       8.005   6.362  18.875  0.00  0.00    +0.000 NA
ATOM     22  N   UNL     1       7.247   5.410  19.417  0.00  0.00    +0.000 NA
ENDBRANCH  17  18
ENDBRANCH   7  17
TORSDOF 3
ENDMDL
