MODEL 1
REMARK VINA RESULT:      -8.4      0.000      0.000
REMARK  Name = 
REMARK  12 active torsions:
REMARK  status: ('A' for Active; 'I' for Inactive)
REMARK    1  A    between atoms: C_1  and  C_2
REMARK    2  A    between atoms: C_3  and  C_4
REMARK    3  A    between atoms: C_10  and  C_11
REMARK    4  A    between atoms: C_11  and  C_12
REMARK    5  A    between atoms: C_12  and  C_13
REMARK    6  A    between atoms: C_14  and  O_15
REMARK    7  A    between atoms: O_15  and  C_16
REMARK    8  A    between atoms: C_16  and  C_17
REMARK    9  A    between atoms: C_20  and  C_21
REMARK   10  A    between atoms: C_21  and  O_23
REMARK   11  A    between atoms: C_25  and  O_26
REMARK   12  A    between atoms: O_26  and  C_27
REMARK                            x       y       z     vdW  Elec       q    Type
REMARK                         _______ _______ _______ _____ _____    ______ ____
ROOT
ATOM      1  C   UNL     1       1.572   9.475  19.272  0.00  0.00    +0.000 A 
ATOM      2  C   UNL     1       0.780   9.635  20.343  0.00  0.00    +0.000 A 
ATOM      3  C   UNL     1       0.475   8.565  21.295  0.00  0.00    +0.000 A 
ATOM      4  O   UNL     1      -0.287   8.759  22.236  0.00  0.00    +0.000 OA
ATOM      5  O   UNL     1       1.116   7.357  21.097  0.00  0.00    +0.000 OA
ATOM      6  C   UNL     1       1.889   7.094  19.943  0.00  0.00    +0.000 A 
ATOM      7  C   UNL     1       2.434   5.796  19.801  0.00  0.00    +0.000 A 
ATOM      8  C   UNL     1       3.239   5.553  18.674  0.00  0.00    +0.000 A 
ATOM      9  C   UNL     1       3.403   6.561  17.706  0.00  0.00    +0.000 A 
ATOM     10  C   UNL     1       2.868   7.836  17.891  0.00  0.00    +0.000 A 
ATOM     11  C   UNL     1       2.107   8.124  19.022  0.00  0.00    +0.000 A 
ENDROOT
BRANCH   1  14
ATOM     12  C   UNL     1       2.114  13.066  17.970  0.00  0.00    +0.000 C 
ATOM     13  C   UNL     1       1.833  11.894  18.851  0.00  0.00    +0.000 C 
ATOM     14  C   UNL     1       1.844  10.624  18.414  0.00  0.00    +0.000 C 
ENDBRANCH   1  14
BRANCH   7  15
ATOM     15  C   UNL     1       2.259   4.757  20.895  0.00  0.00    +0.000 C 
BRANCH  15  16
ATOM     16  C   UNL     1       1.109   3.742  20.752  0.00  0.00    +0.000 C 
ATOM     17  C   UNL     1       1.514   2.449  20.062  0.00  0.00    +0.000 C 
ENDBRANCH  15  16
ENDBRANCH   7  15
BRANCH   8  18
ATOM     18  O   UNL     1       3.869   4.334  18.574  0.00  0.00    +0.000 OA
BRANCH  18  19
ATOM     19  C   UNL     1       5.303   4.367  18.587  0.00  0.00    +0.000 C 
BRANCH  19  20
ATOM     20  C   UNL     1       5.879   4.676  17.226  0.00  0.00    +0.000 A 
ATOM     21  C   UNL     1       5.446   3.838  16.169  0.00  0.00    +0.000 A 
ATOM     22  C   UNL     1       5.991   3.929  14.893  0.00  0.00    +0.000 A 
ATOM     23  C   UNL     1       6.962   4.885  14.630  0.00  0.00    +0.000 A 
ATOM     24  C   UNL     1       7.413   5.720  15.662  0.00  0.00    +0.000 A 
ATOM     25  C   UNL     1       6.876   5.626  16.958  0.00  0.00    +0.000 A 
BRANCH  23  26
ATOM     26  C   UNL     1       7.548   4.929  13.259  0.00  0.00    +0.000 C 
ATOM     27  O   UNL     1       7.089   4.289  12.333  0.00  0.00    +0.000 OA
BRANCH  26  28
ATOM     28  O   UNL     1       8.580   5.782  13.139  0.00  0.00    +0.000 OA
ATOM     29  H   UNL     1       8.744   6.109  12.240  0.00  0.00    +0.000 HD
ENDBRANCH  26  28
ENDBRANCH  23  26
BRANCH  25  30
ATOM     30  O   UNL     1       7.538   6.429  17.847  0.00  0.00    +0.000 OA
ATOM     31  C   UNL     1       7.743   7.796  17.522  0.00  0.00    +0.000 C 
ENDBRANCH  25  30
ENDBRANCH  19  20
ENDBRANCH  18  19
ENDBRANCH   8  18
TORSDOF 9
ENDMDL
MODEL 2
REMARK VINA RESULT:      -8.1      2.793      8.745
REMARK  Name = 
REMARK  12 active torsions:
REMARK  status: ('A' for Active; 'I' for Inactive)
REMARK    1  A    between atoms: C_1  and  C_2
REMARK    2  A    between atoms: C_3  and  C_4
REMARK    3  A    between atoms: C_10  and  C_11
REMARK    4  A    between atoms: C_11  and  C_12
REMARK    5  A    between atoms: C_12  and  C_13
REMARK    6  A    between atoms: C_14  and  O_15
REMARK    7  A    between atoms: O_15  and  C_16
REMARK    8  A    between atoms: C_16  and  C_17
REMARK    9  A    between atoms: C_20  and  C_21
REMARK   10  A    between atoms: C_21  and  O_23
REMARK   11  A    between atoms: C_25  and  O_26
REMARK   12  A    between atoms: O_26  and  C_27
REMARK                            x       y       z     vdW  Elec       q    Type
REMARK                         _______ _______ _______ _____ _____    ______ ____
ROOT
ATOM      1  C   UNL     1       4.624   4.315  16.543  0.00  0.00    +0.000 A 
ATOM      2  C   UNL     1       4.514   3.007  16.822  0.00  0.00    +0.000 A 
ATOM      3  C   UNL     1       3.735   2.480  17.946  0.00  0.00    +0.000 A 
ATOM      4  O   UNL     1       3.701   1.275  18.175  0.00  0.00    +0.000 OA
ATOM      5  O   UNL     1       3.022   3.397  18.693  0.00  0.00    +0.000 OA
ATOM      6  C   UNL     1       3.165   4.791  18.510  0.00  0.00    +0.000 A 
ATOM      7  C   UNL     1       2.451   5.644  19.383  0.00  0.00    +0.000 A 
ATOM      8  C   UNL     1       2.561   7.030  19.169  0.00  0.00    +0.000 A 
ATOM      9  C   UNL     1       3.424   7.512  18.168  0.00  0.00    +0.000 A 
ATOM     10  C   UNL     1       4.096   6.640  17.311  0.00  0.00    +0.000 A 
ATOM     11  C   UNL     1       3.969   5.261  17.466  0.00  0.00    +0.000 A 
ENDROOT
BRANCH   1  14
ATOM     12  C   UNL     1       6.723   4.286  13.307  0.00  0.00    +0.000 C 
ATOM     13  C   UNL     1       5.942   3.861  14.506  0.00  0.00    +0.000 C 
ATOM     14  C   UNL     1       5.390   4.727  15.371  0.00  0.00    +0.000 C 
ENDBRANCH   1  14
BRANCH   7  15
ATOM     15  C   UNL     1       1.502   5.071  20.423  0.00  0.00    +0.000 C 
BRANCH  15  16
ATOM     16  C   UNL     1       2.084   4.124  21.490  0.00  0.00    +0.000 C 
ATOM     17  C   UNL     1       1.406   2.765  21.539  0.00  0.00    +0.000 C 
ENDBRANCH  15  16
ENDBRANCH   7  15
BRANCH   8  18
ATOM     18  O   UNL     1       1.788   7.871  19.935  0.00  0.00    +0.000 OA
BRANCH  18  19
ATOM     19  C   UNL     1       1.254   9.019  19.261  0.00  0.00    +0.000 C 
BRANCH  19  20
ATOM     20  C   UNL     1       0.524   9.945  20.203  0.00  0.00    +0.000 A 
ATOM     21  C   UNL     1       0.397   9.492  21.539  0.00  0.00    +0.000 A 
ATOM     22  C   UNL     1      -0.360  10.184  22.479  0.00  0.00    +0.000 A 
ATOM     23  C   UNL     1      -0.983  11.370  22.116  0.00  0.00    +0.000 A 
ATOM     24  C   UNL     1      -0.879  11.835  20.797  0.00  0.00    +0.000 A 
ATOM     25  C   UNL     1      -0.127  11.134  19.838  0.00  0.00    +0.000 A 
BRANCH  23  26
ATOM     26  C   UNL     1      -1.814  12.065  23.140  0.00  0.00    +0.000 C 
ATOM     27  O   UNL     1      -2.879  11.623  23.526  0.00  0.00    +0.000 OA
BRANCH  26  28
ATOM     28  O   UNL     1      -1.245  13.180  23.633  0.00  0.00    +0.000 OA
ATOM     29  H   UNL     1      -0.290  13.120  23.793  0.00  0.00    +0.000 HD
ENDBRANCH  26  28
ENDBRANCH  23  26
BRANCH  25  30
ATOM     30  O   UNL     1      -0.259  11.674  18.587  0.00  0.00    +0.000 OA
ATOM     31  C   UNL     1      -1.562  11.904  18.069  0.00  0.00    +0.000 C 
ENDBRANCH  25  30
ENDBRANCH  19  20
ENDBRANCH  18  19
ENDBRANCH   8  18
TORSDOF 9
ENDMDL
MODEL 3
REMARK VINA RESULT:      -8.1      3.642      8.998
REMARK  Name = 
REMARK  12 active torsions:
REMARK  status: ('A' for Active; 'I' for Inactive)
REMARK    1  A    between atoms: C_1  and  C_2
REMARK    2  A    between atoms: C_3  and  C_4
REMARK    3  A    between atoms: C_10  and  C_11
REMARK    4  A    between atoms: C_11  and  C_12
REMARK    5  A    between atoms: C_12  and  C_13
REMARK    6  A    between atoms: C_14  and  O_15
REMARK    7  A    between atoms: O_15  and  C_16
REMARK    8  A    between atoms: C_16  and  C_17
REMARK    9  A    between atoms: C_20  and  C_21
REMARK   10  A    between atoms: C_21  and  O_23
REMARK   11  A    between atoms: C_25  and  O_26
REMARK   12  A    between atoms: O_26  and  C_27
REMARK                            x       y       z     vdW  Elec       q    Type
REMARK                         _______ _______ _______ _____ _____    ______ ____
ROOT
ATOM      1  C   UNL     1       3.319   5.526  18.446  0.00  0.00    +0.000 A 
ATOM      2  C   UNL     1       3.206   4.586  19.396  0.00  0.00    +0.000 A 
ATOM      3  C   UNL     1       2.460   4.777  20.642  0.00  0.00    +0.000 A 
ATOM      4  O   UNL     1       2.422   3.895  21.493  0.00  0.00    +0.000 OA
ATOM      5  O   UNL     1       1.783   5.973  20.783  0.00  0.00    +0.000 OA
ATOM      6  C   UNL     1       1.933   7.037  19.865  0.00  0.00    +0.000 A 
ATOM      7  C   UNL     1       1.258   8.247  20.148  0.00  0.00    +0.000 A 
ATOM      8  C   UNL     1       1.375   9.288  19.209  0.00  0.00    +0.000 A 
ATOM      9  C   UNL     1       2.208   9.123  18.088  0.00  0.00    +0.000 A 
ATOM     10  C   UNL     1       2.842   7.907  17.830  0.00  0.00    +0.000 A 
ATOM     11  C   UNL     1       2.706   6.839  18.716  0.00  0.00    +0.000 A 
ENDROOT
BRANCH   1  14
ATOM     12  C   UNL     1       5.653   3.864  15.861  0.00  0.00    +0.000 C 
ATOM     13  C   UNL     1       4.909   4.185  17.116  0.00  0.00    +0.000 C 
ATOM     14  C   UNL     1       4.049   5.211  17.222  0.00  0.00    +0.000 C 
ENDBRANCH   1  14
BRANCH   7  15
ATOM     15  C   UNL     1       0.339   8.360  21.353  0.00  0.00    +0.000 C 
BRANCH  15  16
ATOM     16  C   UNL     1       0.778   9.270  22.516  0.00  0.00    +0.000 C 
ATOM     17  C   UNL     1      -0.379   9.901  23.272  0.00  0.00    +0.000 C 
ENDBRANCH  15  16
ENDBRANCH   7  15
BRANCH   8  18
ATOM     18  O   UNL     1       0.637  10.432  19.409  0.00  0.00    +0.000 OA
BRANCH  18  19
ATOM     19  C   UNL     1       0.025  10.995  18.240  0.00  0.00    +0.000 C 
BRANCH  19  20
ATOM     20  C   UNL     1      -1.481  11.021  18.342  0.00  0.00    +0.000 A 
ATOM     21  C   UNL     1      -2.171  10.087  17.530  0.00  0.00    +0.000 A 
ATOM     22  C   UNL     1      -3.558  10.088  17.430  0.00  0.00    +0.000 A 
ATOM     23  C   UNL     1      -4.297  11.002  18.167  0.00  0.00    +0.000 A 
ATOM     24  C   UNL     1      -3.636  11.943  18.971  0.00  0.00    +0.000 A 
ATOM     25  C   UNL     1      -2.234  11.957  19.067  0.00  0.00    +0.000 A 
BRANCH  23  26
ATOM     26  C   UNL     1      -5.779  10.996  18.006  0.00  0.00    +0.000 C 
ATOM     27  O   UNL     1      -6.515  10.396  18.766  0.00  0.00    +0.000 OA
BRANCH  26  28
ATOM     28  O   UNL     1      -6.217  11.759  16.989  0.00  0.00    +0.000 OA
ATOM     29  H   UNL     1      -7.121  12.097  17.085  0.00  0.00    +0.000 HD
ENDBRANCH  26  28
ENDBRANCH  23  26
BRANCH  25  30
ATOM     30  O   UNL     1      -1.781  13.028  19.790  0.00  0.00    +0.000 OA
ATOM     31  C   UNL     1      -1.714  12.926  21.205  0.00  0.00    +0.000 C 
ENDBRANCH  25  30
ENDBRANCH  19  20
ENDBRANCH  18  19
ENDBRANCH   8  18
TORSDOF 9
ENDMDL
MODEL 4
REMARK VINA RESULT:      -7.7      2.817      8.207
REMARK  Name = 
REMARK  12 active torsions:
REMARK  status: ('A' for Active; 'I' for Inactive)
REMARK    1  A    between atoms: C_1  and  C_2
REMARK    2  A    between atoms: C_3  and  C_4
REMARK    3  A    between atoms: C_10  and  C_11
REMARK    4  A    between atoms: C_11  and  C_12
REMARK    5  A    between atoms: C_12  and  C_13
REMARK    6  A    between atoms: C_14  and  O_15
REMARK    7  A    between atoms: O_15  and  C_16
REMARK    8  A    between atoms: C_16  and  C_17
REMARK    9  A    between atoms: C_20  and  C_21
REMARK   10  A    between atoms: C_21  and  O_23
REMARK   11  A    between atoms: C_25  and  O_26
REMARK   12  A    between atoms: O_26  and  C_27
REMARK                            x       y       z     vdW  Elec       q    Type
REMARK                         _______ _______ _______ _____ _____    ______ ____
ROOT
ATOM      1  C   UNL     1       4.565   4.213  16.617  0.00  0.00    +0.000 A 
ATOM      2  C   UNL     1       4.545   2.951  17.074  0.00  0.00    +0.000 A 
ATOM      3  C   UNL     1       3.868   2.545  18.308  0.00  0.00    +0.000 A 
ATOM      4  O   UNL     1       3.915   1.383  18.696  0.00  0.00    +0.000 OA
ATOM      5  O   UNL     1       3.153   3.521  18.974  0.00  0.00    +0.000 OA
ATOM      6  C   UNL     1       3.207   4.883  18.599  0.00  0.00    +0.000 A 
ATOM      7  C   UNL     1       2.502   5.812  19.400  0.00  0.00    +0.000 A 
ATOM      8  C   UNL     1       2.523   7.159  18.998  0.00  0.00    +0.000 A 
ATOM      9  C   UNL     1       3.293   7.541  17.885  0.00  0.00    +0.000 A 
ATOM     10  C   UNL     1       3.958   6.594  17.106  0.00  0.00    +0.000 A 
ATOM     11  C   UNL     1       3.917   5.244  17.450  0.00  0.00    +0.000 A 
ENDROOT
BRANCH   1  14
ATOM     12  C   UNL     1       7.247   4.810  13.910  0.00  0.00    +0.000 C 
ATOM     13  C   UNL     1       6.568   4.520  15.208  0.00  0.00    +0.000 C 
ATOM     14  C   UNL     1       5.233   4.497  15.352  0.00  0.00    +0.000 C 
ENDBRANCH   1  14
BRANCH   7  15
ATOM     15  C   UNL     1       1.653   5.341  20.569  0.00  0.00    +0.000 C 
BRANCH  15  16
ATOM     16  C   UNL     1       0.884   4.015  20.417  0.00  0.00    +0.000 C 
ATOM     17  C   UNL     1       1.268   2.962  21.444  0.00  0.00    +0.000 C 
ENDBRANCH  15  16
ENDBRANCH   7  15
BRANCH   8  18
ATOM     18  O   UNL     1       1.753   8.060  19.698  0.00  0.00    +0.000 OA
BRANCH  18  19
ATOM     19  C   UNL     1       1.735   9.399  19.185  0.00  0.00    +0.000 C 
BRANCH  19  20
ATOM     20  C   UNL     1       0.333   9.946  19.070  0.00  0.00    +0.000 A 
ATOM     21  C   UNL     1      -0.341   9.668  17.855  0.00  0.00    +0.000 A 
ATOM     22  C   UNL     1      -1.585  10.216  17.564  0.00  0.00    +0.000 A 
ATOM     23  C   UNL     1      -2.207  11.033  18.498  0.00  0.00    +0.000 A 
ATOM     24  C   UNL     1      -1.557  11.331  19.704  0.00  0.00    +0.000 A 
ATOM     25  C   UNL     1      -0.293  10.791  20.000  0.00  0.00    +0.000 A 
BRANCH  23  26
ATOM     26  C   UNL     1      -3.525  11.631  18.136  0.00  0.00    +0.000 C 
ATOM     27  O   UNL     1      -4.354  11.938  18.972  0.00  0.00    +0.000 OA
BRANCH  26  28
ATOM     28  O   UNL     1      -3.676  11.851  16.818  0.00  0.00    +0.000 OA
ATOM     29  H   UNL     1      -3.018  12.444  16.420  0.00  0.00    +0.000 HD
ENDBRANCH  26  28
ENDBRANCH  23  26
BRANCH  25  30
ATOM     30  O   UNL     1       0.226  11.305  21.157  0.00  0.00    +0.000 OA
ATOM     31  C   UNL     1       0.541  12.689  21.217  0.00  0.00    +0.000 C 
ENDBRANCH  25  30
ENDBRANCH  19  20
ENDBRANCH  18  19
ENDBRANCH   8  18
TORSDOF 9
ENDMDL
MODEL 5
REMARK VINA RESULT:      -7.7      3.584      9.661
REMARK  Name = 
REMARK  12 active torsions:
REMARK  status: ('A' for Active; 'I' for Inactive)
REMARK    1  A    between atoms: C_1  and  C_2
REMARK    2  A    between atoms: C_3  and  C_4
REMARK    3  A    between atoms: C_10  and  C_11
REMARK    4  A    between atoms: C_11  and  C_12
REMARK    5  A    between atoms: C_12  and  C_13
REMARK    6  A    between atoms: C_14  and  O_15
REMARK    7  A    between atoms: O_15  and  C_16
REMARK    8  A    between atoms: C_16  and  C_17
REMARK    9  A    between atoms: C_20  and  C_21
REMARK   10  A    between atoms: C_21  and  O_23
REMARK   11  A    between atoms: C_25  and  O_26
REMARK   12  A    between atoms: O_26  and  C_27
REMARK                            x       y       z     vdW  Elec       q    Type
REMARK                         _______ _______ _______ _____ _____    ______ ____
ROOT
ATOM      1  C   UNL     1       3.221   5.692  18.477  0.00  0.00    +0.000 A 
ATOM      2  C   UNL     1       3.070   4.749  19.418  0.00  0.00    +0.000 A 
ATOM      3  C   UNL     1       2.310   4.950  20.654  0.00  0.00    +0.000 A 
ATOM      4  O   UNL     1       2.237   4.063  21.498  0.00  0.00    +0.000 OA
ATOM      5  O   UNL     1       1.659   6.161  20.793  0.00  0.00    +0.000 OA
ATOM      6  C   UNL     1       1.849   7.227  19.885  0.00  0.00    +0.000 A 
ATOM      7  C   UNL     1       1.198   8.451  20.165  0.00  0.00    +0.000 A 
ATOM      8  C   UNL     1       1.354   9.494  19.235  0.00  0.00    +0.000 A 
ATOM      9  C   UNL     1       2.201   9.317  18.127  0.00  0.00    +0.000 A 
ATOM     10  C   UNL     1       2.810   8.088  17.870  0.00  0.00    +0.000 A 
ATOM     11  C   UNL     1       2.635   7.018  18.747  0.00  0.00    +0.000 A 
ENDROOT
BRANCH   1  14
ATOM     12  C   UNL     1       5.549   3.988  15.915  0.00  0.00    +0.000 C 
ATOM     13  C   UNL     1       4.793   4.317  17.160  0.00  0.00    +0.000 C 
ATOM     14  C   UNL     1       3.963   5.368  17.262  0.00  0.00    +0.000 C 
ENDBRANCH   1  14
BRANCH   7  15
ATOM     15  C   UNL     1       0.263   8.577  21.357  0.00  0.00    +0.000 C 
BRANCH  15  16
ATOM     16  C   UNL     1       0.773   9.331  22.600  0.00  0.00    +0.000 C 
ATOM     17  C   UNL     1      -0.331   9.974  23.423  0.00  0.00    +0.000 C 
ENDBRANCH  15  16
ENDBRANCH   7  15
BRANCH   8  18
ATOM     18  O   UNL     1       0.640  10.654  19.432  0.00  0.00    +0.000 OA
BRANCH  18  19
ATOM     19  C   UNL     1      -0.473  10.861  18.551  0.00  0.00    +0.000 C 
BRANCH  19  20
ATOM     20  C   UNL     1      -1.620  11.562  19.237  0.00  0.00    +0.000 A 
ATOM     21  C   UNL     1      -1.407  11.912  20.593  0.00  0.00    +0.000 A 
ATOM     22  C   UNL     1      -2.422  12.446  21.380  0.00  0.00    +0.000 A 
ATOM     23  C   UNL     1      -3.671  12.677  20.821  0.00  0.00    +0.000 A 
ATOM     24  C   UNL     1      -3.909  12.331  19.483  0.00  0.00    +0.000 A 
ATOM     25  C   UNL     1      -2.892  11.778  18.685  0.00  0.00    +0.000 A 
BRANCH  23  26
ATOM     26  C   UNL     1      -4.743  13.218  21.705  0.00  0.00    +0.000 C 
ATOM     27  O   UNL     1      -4.777  14.382  22.053  0.00  0.00    +0.000 OA
BRANCH  26  28
ATOM     28  O   UNL     1      -5.689  12.315  22.022  0.00  0.00    +0.000 OA
ATOM     29  H   UNL     1      -5.361  11.505  22.444  0.00  0.00    +0.000 HD
ENDBRANCH  26  28
ENDBRANCH  23  26
BRANCH  25  30
ATOM     30  O   UNL     1      -3.358  11.388  17.459  0.00  0.00    +0.000 OA
ATOM     31  C   UNL     1      -4.483  10.525  17.391  0.00  0.00    +0.000 C 
ENDBRANCH  25  30
ENDBRANCH  19  20
ENDBRANCH  18  19
ENDBRANCH   8  18
TORSDOF 9
ENDMDL
MODEL 6
REMARK VINA RESULT:      -7.7      1.544      2.268
REMARK  Name = 
REMARK  12 active torsions:
REMARK  status: ('A' for Active; 'I' for Inactive)
REMARK    1  A    between atoms: C_1  and  C_2
REMARK    2  A    between atoms: C_3  and  C_4
REMARK    3  A    between atoms: C_10  and  C_11
REMARK    4  A    between atoms: C_11  and  C_12
REMARK    5  A    between atoms: C_12  and  C_13
REMARK    6  A    between atoms: C_14  and  O_15
REMARK    7  A    between atoms: O_15  and  C_16
REMARK    8  A    between atoms: C_16  and  C_17
REMARK    9  A    between atoms: C_20  and  C_21
REMARK   10  A    between atoms: C_21  and  O_23
REMARK   11  A    between atoms: C_25  and  O_26
REMARK   12  A    between atoms: O_26  and  C_27
REMARK                            x       y       z     vdW  Elec       q    Type
REMARK                         _______ _______ _______ _____ _____    ______ ____
ROOT
ATOM      1  C   UNL     1       0.714  10.602  19.897  0.00  0.00    +0.000 A 
ATOM      2  C   UNL     1       0.076  10.567  21.076  0.00  0.00    +0.000 A 
ATOM      3  C   UNL     1      -0.020   9.368  21.912  0.00  0.00    +0.000 A 
ATOM      4  O   UNL     1      -0.649   9.384  22.965  0.00  0.00    +0.000 OA
ATOM      5  O   UNL     1       0.662   8.249  21.473  0.00  0.00    +0.000 OA
ATOM      6  C   UNL     1       1.275   8.191  20.201  0.00  0.00    +0.000 A 
ATOM      7  C   UNL     1       1.876   6.969  19.818  0.00  0.00    +0.000 A 
ATOM      8  C   UNL     1       2.524   6.930  18.570  0.00  0.00    +0.000 A 
ATOM      9  C   UNL     1       2.481   8.057  17.729  0.00  0.00    +0.000 A 
ATOM     10  C   UNL     1       1.898   9.252  18.150  0.00  0.00    +0.000 A 
ATOM     11  C   UNL     1       1.291   9.339  19.402  0.00  0.00    +0.000 A 
ENDROOT
BRANCH   1  14
ATOM     12  C   UNL     1       1.860  14.033  18.555  0.00  0.00    +0.000 C 
ATOM     13  C   UNL     1       1.790  12.743  19.305  0.00  0.00    +0.000 C 
ATOM     14  C   UNL     1       0.784  11.864  19.167  0.00  0.00    +0.000 C 
ENDBRANCH   1  14
BRANCH   7  15
ATOM     15  C   UNL     1       1.927   5.794  20.781  0.00  0.00    +0.000 C 
BRANCH  15  16
ATOM     16  C   UNL     1       1.097   4.542  20.439  0.00  0.00    +0.000 C 
ATOM     17  C   UNL     1       1.554   3.287  21.165  0.00  0.00    +0.000 C 
ENDBRANCH  15  16
ENDBRANCH   7  15
BRANCH   8  18
ATOM     18  O   UNL     1       3.209   5.787  18.228  0.00  0.00    +0.000 OA
BRANCH  18  19
ATOM     19  C   UNL     1       4.631   5.925  18.096  0.00  0.00    +0.000 C 
BRANCH  19  20
ATOM     20  C   UNL     1       5.159   5.227  16.867  0.00  0.00    +0.000 A 
ATOM     21  C   UNL     1       5.669   6.069  15.849  0.00  0.00    +0.000 A 
ATOM     22  C   UNL     1       6.070   5.568  14.615  0.00  0.00    +0.000 A 
ATOM     23  C   UNL     1       6.003   4.203  14.377  0.00  0.00    +0.000 A 
ATOM     24  C   UNL     1       5.493   3.349  15.366  0.00  0.00    +0.000 A 
ATOM     25  C   UNL     1       5.074   3.849  16.610  0.00  0.00    +0.000 A 
BRANCH  23  26
ATOM     26  C   UNL     1       6.407   3.707  13.030  0.00  0.00    +0.000 C 
ATOM     27  O   UNL     1       7.162   4.327  12.305  0.00  0.00    +0.000 OA
BRANCH  26  28
ATOM     28  O   UNL     1       5.910   2.495  12.728  0.00  0.00    +0.000 OA
ATOM     29  H   UNL     1       6.489   1.746  12.942  0.00  0.00    +0.000 HD
ENDBRANCH  26  28
ENDBRANCH  23  26
BRANCH  25  30
ATOM     30  O   UNL     1       4.488   2.882  17.381  0.00  0.00    +0.000 OA
ATOM     31  C   UNL     1       3.087   2.675  17.281  0.00  0.00    +0.000 C 
ENDBRANCH  25  30
ENDBRANCH  19  20
ENDBRANCH  18  19
ENDBRANCH   8  18
TORSDOF 9
ENDMDL
MODEL 7
REMARK VINA RESULT:      -7.7      3.362      9.172
REMARK  Name = 
REMARK  12 active torsions:
REMARK  status: ('A' for Active; 'I' for Inactive)
REMARK    1  A    between atoms: C_1  and  C_2
REMARK    2  A    between atoms: C_3  and  C_4
REMARK    3  A    between atoms: C_10  and  C_11
REMARK    4  A    between atoms: C_11  and  C_12
REMARK    5  A    between atoms: C_12  and  C_13
REMARK    6  A    between atoms: C_14  and  O_15
REMARK    7  A    between atoms: O_15  and  C_16
REMARK    8  A    between atoms: C_16  and  C_17
REMARK    9  A    between atoms: C_20  and  C_21
REMARK   10  A    between atoms: C_21  and  O_23
REMARK   11  A    between atoms: C_25  and  O_26
REMARK   12  A    between atoms: O_26  and  C_27
REMARK                            x       y       z     vdW  Elec       q    Type
REMARK                         _______ _______ _______ _____ _____    ______ ____
ROOT
ATOM      1  C   UNL     1       3.430   5.021  18.365  0.00  0.00    +0.000 A 
ATOM      2  C   UNL     1       3.307   4.120  19.352  0.00  0.00    +0.000 A 
ATOM      3  C   UNL     1       2.623   4.392  20.618  0.00  0.00    +0.000 A 
ATOM      4  O   UNL     1       2.574   3.541  21.500  0.00  0.00    +0.000 OA
ATOM      5  O   UNL     1       2.012   5.625  20.742  0.00  0.00    +0.000 OA
ATOM      6  C   UNL     1       2.179   6.648  19.782  0.00  0.00    +0.000 A 
ATOM      7  C   UNL     1       1.576   7.901  20.047  0.00  0.00    +0.000 A 
ATOM      8  C   UNL     1       1.708   8.902  19.068  0.00  0.00    +0.000 A 
ATOM      9  C   UNL     1       2.486   8.656  17.923  0.00  0.00    +0.000 A 
ATOM     10  C   UNL     1       3.048   7.402  17.684  0.00  0.00    +0.000 A 
ATOM     11  C   UNL     1       2.894   6.373  18.612  0.00  0.00    +0.000 A 
ENDROOT
BRANCH   1  14
ATOM     12  C   UNL     1       6.093   4.027  15.757  0.00  0.00    +0.000 C 
ATOM     13  C   UNL     1       5.418   4.431  17.026  0.00  0.00    +0.000 C 
ATOM     14  C   UNL     1       4.093   4.628  17.126  0.00  0.00    +0.000 C 
ENDBRANCH   1  14
BRANCH   7  15
ATOM     15  C   UNL     1       0.713   8.100  21.282  0.00  0.00    +0.000 C 
BRANCH  15  16
ATOM     16  C   UNL     1       0.938   9.371  22.124  0.00  0.00    +0.000 C 
ATOM     17  C   UNL     1      -0.155   9.629  23.149  0.00  0.00    +0.000 C 
ENDBRANCH  15  16
ENDBRANCH   7  15
BRANCH   8  18
ATOM     18  O   UNL     1       1.037  10.088  19.255  0.00  0.00    +0.000 OA
BRANCH  18  19
ATOM     19  C   UNL     1       0.240  10.538  18.151  0.00  0.00    +0.000 C 
BRANCH  19  20
ATOM     20  C   UNL     1      -1.050  11.179  18.602  0.00  0.00    +0.000 A 
ATOM     21  C   UNL     1      -0.968  11.976  19.770  0.00  0.00    +0.000 A 
ATOM     22  C   UNL     1      -2.100  12.520  20.367  0.00  0.00    +0.000 A 
ATOM     23  C   UNL     1      -3.345  12.309  19.792  0.00  0.00    +0.000 A 
ATOM     24  C   UNL     1      -3.453  11.515  18.640  0.00  0.00    +0.000 A 
ATOM     25  C   UNL     1      -2.315  10.951  18.038  0.00  0.00    +0.000 A 
BRANCH  23  26
ATOM     26  C   UNL     1      -4.539  12.878  20.480  0.00  0.00    +0.000 C 
ATOM     27  O   UNL     1      -5.096  12.308  21.398  0.00  0.00    +0.000 OA
BRANCH  26  28
ATOM     28  O   UNL     1      -4.895  14.094  20.029  0.00  0.00    +0.000 OA
ATOM     29  H   UNL     1      -5.814  14.171  19.728  0.00  0.00    +0.000 HD
ENDBRANCH  26  28
ENDBRANCH  23  26
BRANCH  25  30
ATOM     30  O   UNL     1      -2.643  10.107  17.012  0.00  0.00    +0.000 OA
ATOM     31  C   UNL     1      -2.705  10.621  15.689  0.00  0.00    +0.000 C 
ENDBRANCH  25  30
ENDBRANCH  19  20
ENDBRANCH  18  19
ENDBRANCH   8  18
TORSDOF 9
ENDMDL
MODEL 8
REMARK VINA RESULT:      -7.6      2.752      8.485
REMARK  Name = 
REMARK  12 active torsions:
REMARK  status: ('A' for Active; 'I' for Inactive)
REMARK    1  A    between atoms: C_1  and  C_2
REMARK    2  A    between atoms: C_3  and  C_4
REMARK    3  A    between atoms: C_10  and  C_11
REMARK    4  A    between atoms: C_11  and  C_12
REMARK    5  A    between atoms: C_12  and  C_13
REMARK    6  A    between atoms: C_14  and  O_15
REMARK    7  A    between atoms: O_15  and  C_16
REMARK    8  A    between atoms: C_16  and  C_17
REMARK    9  A    between atoms: C_20  and  C_21
REMARK   10  A    between atoms: C_21  and  O_23
REMARK   11  A    between atoms: C_25  and  O_26
REMARK   12  A    between atoms: O_26  and  C_27
REMARK                            x       y       z     vdW  Elec       q    Type
REMARK                         _______ _______ _______ _____ _____    ______ ____
ROOT
ATOM      1  C   UNL     1       4.578   4.170  16.448  0.00  0.00    +0.000 A 
ATOM      2  C   UNL     1       4.478   2.902  16.875  0.00  0.00    +0.000 A 
ATOM      3  C   UNL     1       3.730   2.504  18.069  0.00  0.00    +0.000 A 
ATOM      4  O   UNL     1       3.704   1.333  18.433  0.00  0.00    +0.000 OA
ATOM      5  O   UNL     1       3.035   3.500  18.728  0.00  0.00    +0.000 OA
ATOM      6  C   UNL     1       3.170   4.865  18.386  0.00  0.00    +0.000 A 
ATOM      7  C   UNL     1       2.476   5.811  19.177  0.00  0.00    +0.000 A 
ATOM      8  C   UNL     1       2.578   7.163  18.806  0.00  0.00    +0.000 A 
ATOM      9  C   UNL     1       3.414   7.530  17.736  0.00  0.00    +0.000 A 
ATOM     10  C   UNL     1       4.066   6.568  16.964  0.00  0.00    +0.000 A 
ATOM     11  C   UNL     1       3.945   5.214  17.276  0.00  0.00    +0.000 A 
ENDROOT
BRANCH   1  14
ATOM     12  C   UNL     1       7.392   4.906  13.914  0.00  0.00    +0.000 C 
ATOM     13  C   UNL     1       6.643   4.624  15.175  0.00  0.00    +0.000 C 
ATOM     14  C   UNL     1       5.313   4.448  15.218  0.00  0.00    +0.000 C 
ENDBRANCH   1  14
BRANCH   7  15
ATOM     15  C   UNL     1       1.556   5.358  20.299  0.00  0.00    +0.000 C 
BRANCH  15  16
ATOM     16  C   UNL     1       2.118   4.376  21.345  0.00  0.00    +0.000 C 
ATOM     17  C   UNL     1       1.396   3.039  21.381  0.00  0.00    +0.000 C 
ENDBRANCH  15  16
ENDBRANCH   7  15
BRANCH   8  18
ATOM     18  O   UNL     1       1.823   8.086  19.493  0.00  0.00    +0.000 OA
BRANCH  18  19
ATOM     19  C   UNL     1       1.648   9.356  18.850  0.00  0.00    +0.000 C 
BRANCH  19  20
ATOM     20  C   UNL     1       0.461  10.112  19.395  0.00  0.00    +0.000 A 
ATOM     21  C   UNL     1      -0.431  10.639  18.430  0.00  0.00    +0.000 A 
ATOM     22  C   UNL     1      -1.494  11.462  18.786  0.00  0.00    +0.000 A 
ATOM     23  C   UNL     1      -1.715  11.753  20.125  0.00  0.00    +0.000 A 
ATOM     24  C   UNL     1      -0.840  11.250  21.099  0.00  0.00    +0.000 A 
ATOM     25  C   UNL     1       0.245  10.429  20.745  0.00  0.00    +0.000 A 
BRANCH  23  26
ATOM     26  C   UNL     1      -2.842  12.667  20.466  0.00  0.00    +0.000 C 
ATOM     27  O   UNL     1      -2.881  13.297  21.505  0.00  0.00    +0.000 OA
BRANCH  26  28
ATOM     28  O   UNL     1      -3.767  12.772  19.495  0.00  0.00    +0.000 OA
ATOM     29  H   UNL     1      -4.210  13.633  19.437  0.00  0.00    +0.000 HD
ENDBRANCH  26  28
ENDBRANCH  23  26
BRANCH  25  30
ATOM     30  O   UNL     1       1.051  10.154  21.817  0.00  0.00    +0.000 OA
ATOM     31  C   UNL     1       0.533   9.381  22.889  0.00  0.00    +0.000 C 
ENDBRANCH  25  30
ENDBRANCH  19  20
ENDBRANCH  18  19
ENDBRANCH   8  18
TORSDOF 9
ENDMDL
MODEL 9
REMARK VINA RESULT:      -7.5      2.709      8.748
REMARK  Name = 
REMARK  12 active torsions:
REMARK  status: ('A' for Active; 'I' for Inactive)
REMARK    1  A    between atoms: C_1  and  C_2
REMARK    2  A    between atoms: C_3  and  C_4
REMARK    3  A    between atoms: C_10  and  C_11
REMARK    4  A    between atoms: C_11  and  C_12
REMARK    5  A    between atoms: C_12  and  C_13
REMARK    6  A    between atoms: C_14  and  O_15
REMARK    7  A    between atoms: O_15  and  C_16
REMARK    8  A    between atoms: C_16  and  C_17
REMARK    9  A    between atoms: C_20  and  C_21
REMARK   10  A    between atoms: C_21  and  O_23
REMARK   11  A    between atoms: C_25  and  O_26
REMARK   12  A    between atoms: O_26  and  C_27
REMARK                            x       y       z     vdW  Elec       q    Type
REMARK                         _______ _______ _______ _____ _____    ______ ____
ROOT
ATOM      1  C   UNL     1       5.375   4.906  17.409  0.00  0.00    +0.000 A 
ATOM      2  C   UNL     1       5.591   3.773  18.094  0.00  0.00    +0.000 A 
ATOM      3  C   UNL     1       4.835   3.391  19.289  0.00  0.00    +0.000 A 
ATOM      4  O   UNL     1       5.102   2.360  19.898  0.00  0.00    +0.000 OA
ATOM      5  O   UNL     1       3.798   4.224  19.662  0.00  0.00    +0.000 OA
ATOM      6  C   UNL     1       3.576   5.474  19.041  0.00  0.00    +0.000 A 
ATOM      7  C   UNL     1       2.537   6.286  19.554  0.00  0.00    +0.000 A 
ATOM      8  C   UNL     1       2.291   7.509  18.904  0.00  0.00    +0.000 A 
ATOM      9  C   UNL     1       3.121   7.912  17.843  0.00  0.00    +0.000 A 
ATOM     10  C   UNL     1       4.123   7.076  17.350  0.00  0.00    +0.000 A 
ATOM     11  C   UNL     1       4.360   5.835  17.940  0.00  0.00    +0.000 A 
ENDROOT
BRANCH   1  14
ATOM     12  C   UNL     1       6.800   4.753  13.827  0.00  0.00    +0.000 C 
ATOM     13  C   UNL     1       6.000   4.483  15.058  0.00  0.00    +0.000 C 
ATOM     14  C   UNL     1       6.157   5.165  16.204  0.00  0.00    +0.000 C 
ENDBRANCH   1  14
BRANCH   7  15
ATOM     15  C   UNL     1       1.645   5.785  20.678  0.00  0.00    +0.000 C 
BRANCH  15  16
ATOM     16  C   UNL     1       0.880   4.466  20.461  0.00  0.00    +0.000 C 
ATOM     17  C   UNL     1       1.373   3.321  21.332  0.00  0.00    +0.000 C 
ENDBRANCH  15  16
ENDBRANCH   7  15
BRANCH   8  18
ATOM     18  O   UNL     1       1.215   8.260  19.317  0.00  0.00    +0.000 OA
BRANCH  18  19
ATOM     19  C   UNL     1       1.279   9.662  19.019  0.00  0.00    +0.000 C 
BRANCH  19  20
ATOM     20  C   UNL     1       0.451  10.486  19.975  0.00  0.00    +0.000 A 
ATOM     21  C   UNL     1       0.534  10.116  21.340  0.00  0.00    +0.000 A 
ATOM     22  C   UNL     1      -0.271  10.705  22.310  0.00  0.00    +0.000 A 
ATOM     23  C   UNL     1      -1.158  11.708  21.945  0.00  0.00    +0.000 A 
ATOM     24  C   UNL     1      -1.264  12.086  20.598  0.00  0.00    +0.000 A 
ATOM     25  C   UNL     1      -0.464  11.485  19.611  0.00  0.00    +0.000 A 
BRANCH  23  26
ATOM     26  C   UNL     1      -2.029  12.291  23.005  0.00  0.00    +0.000 C 
ATOM     27  O   UNL     1      -3.107  11.813  23.301  0.00  0.00    +0.000 OA
BRANCH  26  28
ATOM     28  O   UNL     1      -1.482  13.347  23.634  0.00  0.00    +0.000 OA
ATOM     29  H   UNL     1      -1.011  13.139  24.457  0.00  0.00    +0.000 HD
ENDBRANCH  26  28
ENDBRANCH  23  26
BRANCH  25  30
ATOM     30  O   UNL     1      -0.812  11.893  18.351  0.00  0.00    +0.000 OA
ATOM     31  C   UNL     1      -2.069  11.501  17.821  0.00  0.00    +0.000 C 
ENDBRANCH  25  30
ENDBRANCH  19  20
ENDBRANCH  18  19
ENDBRANCH   8  18
TORSDOF 9
ENDMDL
