MODEL 1
REMARK VINA RESULT:      -7.7      0.000      0.000
REMARK  Name = 
REMARK  4 active torsions:
REMARK  status: ('A' for Active; 'I' for Inactive)
REMARK    1  A    between atoms: C_1  and  C_2
REMARK    2  A    between atoms: C_2  and  C_10
REMARK    3  A    between atoms: C_3  and  C_4
REMARK    4  A    between atoms: N_14  and  C_15
REMARK                            x       y       z     vdW  Elec       q    Type
REMARK                         _______ _______ _______ _____ _____    ______ ____
ROOT
ATOM      1  C   UNL     1       0.759  10.827  19.856  0.00  0.00    +0.000 C 
ATOM      2  C   UNL     1       1.295   9.633  19.564  0.00  0.00    +0.000 C 
ATOM      3  S   UNL     1       2.064   9.117  18.118  0.00  0.00    +0.000 S 
ATOM      4  C   UNL     1       2.318   7.536  18.822  0.00  0.00    +0.000 C 
ATOM      5  N   UNL     1       2.995   6.642  18.053  0.00  0.00    +0.000 N 
ATOM      6  N   UNL     1       1.853   7.372  20.015  0.00  0.00    +0.000 NA
ATOM      7  C   UNL     1       1.255   8.498  20.532  0.00  0.00    +0.000 C 
ATOM      8  O   UNL     1       0.768   8.578  21.651  0.00  0.00    +0.000 OA
ATOM      9  H   UNL     1       3.497   6.986  17.244  0.00  0.00    +0.000 HD
ENDROOT
BRANCH   5  10
ATOM     10  C   UNL     1       2.961   5.241  18.180  0.00  0.00    +0.000 A 
ATOM     11  C   UNL     1       1.819   4.510  17.819  0.00  0.00    +0.000 A 
ATOM     12  C   UNL     1       1.779   3.121  17.946  0.00  0.00    +0.000 A 
ATOM     13  C   UNL     1       2.871   2.435  18.468  0.00  0.00    +0.000 A 
ATOM     14  C   UNL     1       4.003   3.140  18.867  0.00  0.00    +0.000 A 
ATOM     15  C   UNL     1       4.048   4.532  18.724  0.00  0.00    +0.000 A 
ATOM     16 CL   UNL     1       5.472   5.361  19.248  0.00  0.00    +0.000 Cl
ENDBRANCH   5  10
BRANCH   1  18
ATOM     17  C   UNL     1       1.891  12.963  19.109  0.00  0.00    +0.000 C 
ATOM     18  C   UNL     1       0.721  12.016  19.016  0.00  0.00    +0.000 C 
ATOM     19  C   UNL     1      -0.344  12.333  18.256  0.00  0.00    +0.000 C 
BRANCH  19  20
ATOM     20  C   UNL     1      -1.594  11.574  18.137  0.00  0.00    +0.000 A 
ATOM     21  C   UNL     1      -2.754  12.057  18.753  0.00  0.00    +0.000 A 
ATOM     22  C   UNL     1      -3.964  11.377  18.608  0.00  0.00    +0.000 A 
ATOM     23  C   UNL     1      -4.022  10.213  17.844  0.00  0.00    +0.000 A 
ATOM     24  C   UNL     1      -2.867   9.723  17.233  0.00  0.00    +0.000 A 
ATOM     25  C   UNL     1      -1.655  10.402  17.382  0.00  0.00    +0.000 A 
ENDBRANCH  19  20
ENDBRANCH   1  18
TORSDOF 3
ENDMDL
MODEL 2
REMARK VINA RESULT:      -7.5      1.745      2.190
REMARK  Name = 
REMARK  4 active torsions:
REMARK  status: ('A' for Active; 'I' for Inactive)
REMARK    1  A    between atoms: C_1  and  C_2
REMARK    2  A    between atoms: C_2  and  C_10
REMARK    3  A    between atoms: C_3  and  C_4
REMARK    4  A    between atoms: N_14  and  C_15
REMARK                            x       y       z     vdW  Elec       q    Type
REMARK                         _______ _______ _______ _____ _____    ______ ____
ROOT
ATOM      1  C   UNL     1       0.173  10.973  20.580  0.00  0.00    +0.000 C 
ATOM      2  C   UNL     1       0.630   9.712  20.571  0.00  0.00    +0.000 C 
ATOM      3  S   UNL     1       1.669   8.947  19.438  0.00  0.00    +0.000 S 
ATOM      4  C   UNL     1       1.567   7.461  20.355  0.00  0.00    +0.000 C 
ATOM      5  N   UNL     1       2.309   6.420  19.889  0.00  0.00    +0.000 N 
ATOM      6  N   UNL     1       0.808   7.496  21.397  0.00  0.00    +0.000 NA
ATOM      7  C   UNL     1       0.229   8.725  21.615  0.00  0.00    +0.000 C 
ATOM      8  O   UNL     1      -0.506   8.993  22.555  0.00  0.00    +0.000 OA
ATOM      9  H   UNL     1       3.030   6.612  19.204  0.00  0.00    +0.000 HD
ENDROOT
BRANCH   5  10
ATOM     10  C   UNL     1       2.092   5.057  20.158  0.00  0.00    +0.000 A 
ATOM     11  C   UNL     1       2.349   4.521  21.429  0.00  0.00    +0.000 A 
ATOM     12  C   UNL     1       2.139   3.168  21.699  0.00  0.00    +0.000 A 
ATOM     13  C   UNL     1       1.698   2.314  20.694  0.00  0.00    +0.000 A 
ATOM     14  C   UNL     1       1.469   2.813  19.414  0.00  0.00    +0.000 A 
ATOM     15  C   UNL     1       1.665   4.174  19.149  0.00  0.00    +0.000 A 
ATOM     16 CL   UNL     1       1.381   4.740  17.539  0.00  0.00    +0.000 Cl
ENDBRANCH   5  10
BRANCH   1  18
ATOM     17  C   UNL     1       1.675  12.901  19.924  0.00  0.00    +0.000 C 
ATOM     18  C   UNL     1       0.474  12.037  19.633  0.00  0.00    +0.000 C 
ATOM     19  C   UNL     1      -0.326  12.324  18.588  0.00  0.00    +0.000 C 
BRANCH  19  20
ATOM     20  C   UNL     1      -1.578  11.648  18.230  0.00  0.00    +0.000 A 
ATOM     21  C   UNL     1      -1.533  10.479  17.462  0.00  0.00    +0.000 A 
ATOM     22  C   UNL     1      -2.709   9.792  17.155  0.00  0.00    +0.000 A 
ATOM     23  C   UNL     1      -3.934  10.269  17.617  0.00  0.00    +0.000 A 
ATOM     24  C   UNL     1      -3.986  11.438  18.377  0.00  0.00    +0.000 A 
ATOM     25  C   UNL     1      -2.808  12.127  18.680  0.00  0.00    +0.000 A 
ENDBRANCH  19  20
ENDBRANCH   1  18
TORSDOF 3
ENDMDL
MODEL 3
REMARK VINA RESULT:      -7.4      1.239      1.267
REMARK  Name = 
REMARK  4 active torsions:
REMARK  status: ('A' for Active; 'I' for Inactive)
REMARK    1  A    between atoms: C_1  and  C_2
REMARK    2  A    between atoms: C_2  and  C_10
REMARK    3  A    between atoms: C_3  and  C_4
REMARK    4  A    between atoms: N_14  and  C_15
REMARK                            x       y       z     vdW  Elec       q    Type
REMARK                         _______ _______ _______ _____ _____    ______ ____
ROOT
ATOM      1  C   UNL     1       0.306  11.156  20.370  0.00  0.00    +0.000 C 
ATOM      2  C   UNL     1       0.812   9.916  20.330  0.00  0.00    +0.000 C 
ATOM      3  S   UNL     1       1.705   9.153  19.077  0.00  0.00    +0.000 S 
ATOM      4  C   UNL     1       1.808   7.697  20.042  0.00  0.00    +0.000 C 
ATOM      5  N   UNL     1       2.519   6.672  19.502  0.00  0.00    +0.000 N 
ATOM      6  N   UNL     1       1.211   7.739  21.185  0.00  0.00    +0.000 NA
ATOM      7  C   UNL     1       0.615   8.951  21.451  0.00  0.00    +0.000 C 
ATOM      8  O   UNL     1       0.016   9.222  22.481  0.00  0.00    +0.000 OA
ATOM      9  H   UNL     1       3.121   6.868  18.711  0.00  0.00    +0.000 HD
ENDROOT
BRANCH   5  10
ATOM     10  C   UNL     1       2.405   5.311  19.839  0.00  0.00    +0.000 A 
ATOM     11  C   UNL     1       1.195   4.783  20.314  0.00  0.00    +0.000 A 
ATOM     12  C   UNL     1       1.078   3.434  20.654  0.00  0.00    +0.000 A 
ATOM     13  C   UNL     1       2.180   2.591  20.557  0.00  0.00    +0.000 A 
ATOM     14  C   UNL     1       3.401   3.097  20.122  0.00  0.00    +0.000 A 
ATOM     15  C   UNL     1       3.513   4.446  19.766  0.00  0.00    +0.000 A 
ATOM     16 CL   UNL     1       5.057   5.028  19.246  0.00  0.00    +0.000 Cl
ENDBRANCH   5  10
BRANCH   1  18
ATOM     17  C   UNL     1       1.560  13.169  19.488  0.00  0.00    +0.000 C 
ATOM     18  C   UNL     1       0.414  12.197  19.358  0.00  0.00    +0.000 C 
ATOM     19  C   UNL     1      -0.510  12.370  18.394  0.00  0.00    +0.000 C 
BRANCH  19  20
ATOM     20  C   UNL     1      -1.729  11.578  18.196  0.00  0.00    +0.000 A 
ATOM     21  C   UNL     1      -2.944  12.044  18.711  0.00  0.00    +0.000 A 
ATOM     22  C   UNL     1      -4.124  11.332  18.488  0.00  0.00    +0.000 A 
ATOM     23  C   UNL     1      -4.096  10.153  17.746  0.00  0.00    +0.000 A 
ATOM     24  C   UNL     1      -2.886   9.680  17.235  0.00  0.00    +0.000 A 
ATOM     25  C   UNL     1      -1.705  10.391  17.463  0.00  0.00    +0.000 A 
ENDBRANCH  19  20
ENDBRANCH   1  18
TORSDOF 3
ENDMDL
MODEL 4
REMARK VINA RESULT:      -7.4      0.483      1.092
REMARK  Name = 
REMARK  4 active torsions:
REMARK  status: ('A' for Active; 'I' for Inactive)
REMARK    1  A    between atoms: C_1  and  C_2
REMARK    2  A    between atoms: C_2  and  C_10
REMARK    3  A    between atoms: C_3  and  C_4
REMARK    4  A    between atoms: N_14  and  C_15
REMARK                            x       y       z     vdW  Elec       q    Type
REMARK                         _______ _______ _______ _____ _____    ______ ____
ROOT
ATOM      1  C   UNL     1       0.494  11.019  19.943  0.00  0.00    +0.000 C 
ATOM      2  C   UNL     1       1.102   9.879  19.587  0.00  0.00    +0.000 C 
ATOM      3  S   UNL     1       1.933   9.505  18.131  0.00  0.00    +0.000 S 
ATOM      4  C   UNL     1       2.258   7.896  18.735  0.00  0.00    +0.000 C 
ATOM      5  N   UNL     1       3.001   7.093  17.926  0.00  0.00    +0.000 N 
ATOM      6  N   UNL     1       1.774   7.625  19.900  0.00  0.00    +0.000 NA
ATOM      7  C   UNL     1       1.102   8.680  20.475  0.00  0.00    +0.000 C 
ATOM      8  O   UNL     1       0.585   8.656  21.582  0.00  0.00    +0.000 OA
ATOM      9  H   UNL     1       3.503   7.519  17.156  0.00  0.00    +0.000 HD
ENDROOT
BRANCH   5  10
ATOM     10  C   UNL     1       3.042   5.688  17.958  0.00  0.00    +0.000 A 
ATOM     11  C   UNL     1       1.866   4.928  17.867  0.00  0.00    +0.000 A 
ATOM     12  C   UNL     1       1.901   3.534  17.901  0.00  0.00    +0.000 A 
ATOM     13  C   UNL     1       3.112   2.868  18.061  0.00  0.00    +0.000 A 
ATOM     14  C   UNL     1       4.290   3.599  18.189  0.00  0.00    +0.000 A 
ATOM     15  C   UNL     1       4.255   4.997  18.138  0.00  0.00    +0.000 A 
ATOM     16 CL   UNL     1       5.745   5.858  18.317  0.00  0.00    +0.000 Cl
ENDBRANCH   5  10
BRANCH   1  18
ATOM     17  C   UNL     1       1.489  13.287  19.420  0.00  0.00    +0.000 C 
ATOM     18  C   UNL     1       0.411  12.260  19.183  0.00  0.00    +0.000 C 
ATOM     19  C   UNL     1      -0.627  12.546  18.374  0.00  0.00    +0.000 C 
BRANCH  19  20
ATOM     20  C   UNL     1      -1.799  11.700  18.119  0.00  0.00    +0.000 A 
ATOM     21  C   UNL     1      -1.680  10.600  17.263  0.00  0.00    +0.000 A 
ATOM     22  C   UNL     1      -2.768   9.752  17.048  0.00  0.00    +0.000 A 
ATOM     23  C   UNL     1      -3.980  10.000  17.691  0.00  0.00    +0.000 A 
ATOM     24  C   UNL     1      -4.107  11.100  18.540  0.00  0.00    +0.000 A 
ATOM     25  C   UNL     1      -3.018  11.950  18.751  0.00  0.00    +0.000 A 
ENDBRANCH  19  20
ENDBRANCH   1  18
TORSDOF 3
ENDMDL
MODEL 5
REMARK VINA RESULT:      -7.3      5.871      8.941
REMARK  Name = 
REMARK  4 active torsions:
REMARK  status: ('A' for Active; 'I' for Inactive)
REMARK    1  A    between atoms: C_1  and  C_2
REMARK    2  A    between atoms: C_2  and  C_10
REMARK    3  A    between atoms: C_3  and  C_4
REMARK    4  A    between atoms: N_14  and  C_15
REMARK                            x       y       z     vdW  Elec       q    Type
REMARK                         _______ _______ _______ _____ _____    ______ ____
ROOT
ATOM      1  C   UNL     1       6.825   4.704  17.269  0.00  0.00    +0.000 C 
ATOM      2  C   UNL     1       7.195   5.954  17.581  0.00  0.00    +0.000 C 
ATOM      3  S   UNL     1       6.866   7.419  16.748  0.00  0.00    +0.000 S 
ATOM      4  C   UNL     1       7.768   8.304  17.957  0.00  0.00    +0.000 C 
ATOM      5  N   UNL     1       7.804   9.655  17.806  0.00  0.00    +0.000 N 
ATOM      6  N   UNL     1       8.303   7.592  18.891  0.00  0.00    +0.000 NA
ATOM      7  C   UNL     1       8.040   6.246  18.776  0.00  0.00    +0.000 C 
ATOM      8  O   UNL     1       8.424   5.391  19.560  0.00  0.00    +0.000 OA
ATOM      9  H   UNL     1       7.147  10.085  17.165  0.00  0.00    +0.000 HD
ENDROOT
BRANCH   5  10
ATOM     10  C   UNL     1       8.763  10.530  18.348  0.00  0.00    +0.000 A 
ATOM     11  C   UNL     1       9.703  10.078  19.287  0.00  0.00    +0.000 A 
ATOM     12  C   UNL     1      10.655  10.942  19.830  0.00  0.00    +0.000 A 
ATOM     13  C   UNL     1      10.667  12.285  19.470  0.00  0.00    +0.000 A 
ATOM     14  C   UNL     1       9.723  12.767  18.566  0.00  0.00    +0.000 A 
ATOM     15  C   UNL     1       8.779  11.896  18.010  0.00  0.00    +0.000 A 
ATOM     16 CL   UNL     1       7.620  12.547  16.904  0.00  0.00    +0.000 Cl
ENDBRANCH   5  10
BRANCH   1  18
ATOM     17  C   UNL     1       6.677   4.221  14.789  0.00  0.00    +0.000 C 
ATOM     18  C   UNL     1       6.011   4.270  16.141  0.00  0.00    +0.000 C 
ATOM     19  C   UNL     1       4.694   4.016  16.254  0.00  0.00    +0.000 C 
BRANCH  19  20
ATOM     20  C   UNL     1       3.882   4.118  17.472  0.00  0.00    +0.000 A 
ATOM     21  C   UNL     1       3.264   5.333  17.787  0.00  0.00    +0.000 A 
ATOM     22  C   UNL     1       2.444   5.436  18.912  0.00  0.00    +0.000 A 
ATOM     23  C   UNL     1       2.236   4.324  19.726  0.00  0.00    +0.000 A 
ATOM     24  C   UNL     1       2.855   3.111  19.421  0.00  0.00    +0.000 A 
ATOM     25  C   UNL     1       3.679   3.010  18.296  0.00  0.00    +0.000 A 
ENDBRANCH  19  20
ENDBRANCH   1  18
TORSDOF 3
ENDMDL
MODEL 6
REMARK VINA RESULT:      -7.3      2.823      8.288
REMARK  Name = 
REMARK  4 active torsions:
REMARK  status: ('A' for Active; 'I' for Inactive)
REMARK    1  A    between atoms: C_1  and  C_2
REMARK    2  A    between atoms: C_2  and  C_10
REMARK    3  A    between atoms: C_3  and  C_4
REMARK    4  A    between atoms: N_14  and  C_15
REMARK                            x       y       z     vdW  Elec       q    Type
REMARK                         _______ _______ _______ _____ _____    ______ ____
ROOT
ATOM      1  C   UNL     1       3.058   5.288  18.746  0.00  0.00    +0.000 C 
ATOM      2  C   UNL     1       2.607   6.550  18.697  0.00  0.00    +0.000 C 
ATOM      3  S   UNL     1       2.478   7.601  17.345  0.00  0.00    +0.000 S 
ATOM      4  C   UNL     1       1.836   8.853  18.385  0.00  0.00    +0.000 C 
ATOM      5  N   UNL     1       1.480  10.013  17.772  0.00  0.00    +0.000 N 
ATOM      6  N   UNL     1       1.747   8.551  19.636  0.00  0.00    +0.000 NA
ATOM      7  C   UNL     1       2.155   7.269  19.924  0.00  0.00    +0.000 C 
ATOM      8  O   UNL     1       2.134   6.763  21.037  0.00  0.00    +0.000 OA
ATOM      9  H   UNL     1       1.388  10.016  16.763  0.00  0.00    +0.000 HD
ENDROOT
BRANCH   5  10
ATOM     10  C   UNL     1       1.353  11.274  18.384  0.00  0.00    +0.000 A 
ATOM     11  C   UNL     1       2.417  12.188  18.379  0.00  0.00    +0.000 A 
ATOM     12  C   UNL     1       2.299  13.439  18.987  0.00  0.00    +0.000 A 
ATOM     13  C   UNL     1       1.123  13.789  19.643  0.00  0.00    +0.000 A 
ATOM     14  C   UNL     1       0.065  12.886  19.693  0.00  0.00    +0.000 A 
ATOM     15  C   UNL     1       0.179  11.638  19.068  0.00  0.00    +0.000 A 
ATOM     16 CL   UNL     1      -1.159  10.547  19.172  0.00  0.00    +0.000 Cl
ENDBRANCH   5  10
BRANCH   1  18
ATOM     17  C   UNL     1       2.586   3.424  17.102  0.00  0.00    +0.000 C 
ATOM     18  C   UNL     1       3.532   4.468  17.640  0.00  0.00    +0.000 C 
ATOM     19  C   UNL     1       4.789   4.547  17.165  0.00  0.00    +0.000 C 
BRANCH  19  20
ATOM     20  C   UNL     1       5.855   5.433  17.646  0.00  0.00    +0.000 A 
ATOM     21  C   UNL     1       6.620   5.050  18.754  0.00  0.00    +0.000 A 
ATOM     22  C   UNL     1       7.673   5.854  19.195  0.00  0.00    +0.000 A 
ATOM     23  C   UNL     1       7.967   7.043  18.530  0.00  0.00    +0.000 A 
ATOM     24  C   UNL     1       7.203   7.433  17.429  0.00  0.00    +0.000 A 
ATOM     25  C   UNL     1       6.146   6.630  16.991  0.00  0.00    +0.000 A 
ENDBRANCH  19  20
ENDBRANCH   1  18
TORSDOF 3
ENDMDL
MODEL 7
REMARK VINA RESULT:      -7.0      2.648      7.916
REMARK  Name = 
REMARK  4 active torsions:
REMARK  status: ('A' for Active; 'I' for Inactive)
REMARK    1  A    between atoms: C_1  and  C_2
REMARK    2  A    between atoms: C_2  and  C_10
REMARK    3  A    between atoms: C_3  and  C_4
REMARK    4  A    between atoms: N_14  and  C_15
REMARK                            x       y       z     vdW  Elec       q    Type
REMARK                         _______ _______ _______ _____ _____    ______ ____
ROOT
ATOM      1  C   UNL     1       2.841   6.921  19.157  0.00  0.00    +0.000 C 
ATOM      2  C   UNL     1       2.079   8.023  19.137  0.00  0.00    +0.000 C 
ATOM      3  S   UNL     1       1.739   9.079  17.825  0.00  0.00    +0.000 S 
ATOM      4  C   UNL     1       0.748  10.062  18.879  0.00  0.00    +0.000 C 
ATOM      5  N   UNL     1       0.129  11.124  18.297  0.00  0.00    +0.000 N 
ATOM      6  N   UNL     1       0.685   9.679  20.110  0.00  0.00    +0.000 NA
ATOM      7  C   UNL     1       1.401   8.531  20.366  0.00  0.00    +0.000 C 
ATOM      8  O   UNL     1       1.463   7.976  21.453  0.00  0.00    +0.000 OA
ATOM      9  H   UNL     1       0.084  11.159  17.286  0.00  0.00    +0.000 HD
ENDROOT
BRANCH   5  10
ATOM     10  C   UNL     1      -0.349  12.273  18.954  0.00  0.00    +0.000 A 
ATOM     11  C   UNL     1      -1.606  12.278  19.577  0.00  0.00    +0.000 A 
ATOM     12  C   UNL     1      -2.086  13.416  20.227  0.00  0.00    +0.000 A 
ATOM     13  C   UNL     1      -1.332  14.585  20.239  0.00  0.00    +0.000 A 
ATOM     14  C   UNL     1      -0.096  14.617  19.598  0.00  0.00    +0.000 A 
ATOM     15  C   UNL     1       0.391  13.470  18.961  0.00  0.00    +0.000 A 
ATOM     16 CL   UNL     1       1.924  13.566  18.166  0.00  0.00    +0.000 Cl
ENDBRANCH   5  10
BRANCH   1  18
ATOM     17  C   UNL     1       4.320   7.238  17.129  0.00  0.00    +0.000 C 
ATOM     18  C   UNL     1       3.560   6.313  18.046  0.00  0.00    +0.000 C 
ATOM     19  C   UNL     1       3.485   4.998  17.766  0.00  0.00    +0.000 C 
BRANCH  19  20
ATOM     20  C   UNL     1       2.709   3.989  18.496  0.00  0.00    +0.000 A 
ATOM     21  C   UNL     1       3.224   3.448  19.679  0.00  0.00    +0.000 A 
ATOM     22  C   UNL     1       2.479   2.527  20.417  0.00  0.00    +0.000 A 
ATOM     23  C   UNL     1       1.213   2.143  19.975  0.00  0.00    +0.000 A 
ATOM     24  C   UNL     1       0.697   2.674  18.793  0.00  0.00    +0.000 A 
ATOM     25  C   UNL     1       1.446   3.593  18.053  0.00  0.00    +0.000 A 
ENDBRANCH  19  20
ENDBRANCH   1  18
TORSDOF 3
ENDMDL
MODEL 8
REMARK VINA RESULT:      -7.0      2.551      7.874
REMARK  Name = 
REMARK  4 active torsions:
REMARK  status: ('A' for Active; 'I' for Inactive)
REMARK    1  A    between atoms: C_1  and  C_2
REMARK    2  A    between atoms: C_2  and  C_10
REMARK    3  A    between atoms: C_3  and  C_4
REMARK    4  A    between atoms: N_14  and  C_15
REMARK                            x       y       z     vdW  Elec       q    Type
REMARK                         _______ _______ _______ _____ _____    ______ ____
ROOT
ATOM      1  C   UNL     1       3.055   6.805  18.949  0.00  0.00    +0.000 C 
ATOM      2  C   UNL     1       2.239   7.869  18.963  0.00  0.00    +0.000 C 
ATOM      3  S   UNL     1       1.864   8.962  17.693  0.00  0.00    +0.000 S 
ATOM      4  C   UNL     1       0.811   9.848  18.773  0.00  0.00    +0.000 C 
ATOM      5  N   UNL     1       0.146  10.902  18.227  0.00  0.00    +0.000 N 
ATOM      6  N   UNL     1       0.751   9.409  19.984  0.00  0.00    +0.000 NA
ATOM      7  C   UNL     1       1.520   8.289  20.202  0.00  0.00    +0.000 C 
ATOM      8  O   UNL     1       1.596   7.690  21.265  0.00  0.00    +0.000 OA
ATOM      9  H   UNL     1       0.114  10.979  17.217  0.00  0.00    +0.000 HD
ENDROOT
BRANCH   5  10
ATOM     10  C   UNL     1      -0.397  11.996  18.924  0.00  0.00    +0.000 A 
ATOM     11  C   UNL     1      -1.661  11.912  19.528  0.00  0.00    +0.000 A 
ATOM     12  C   UNL     1      -2.206  12.995  20.218  0.00  0.00    +0.000 A 
ATOM     13  C   UNL     1      -1.513  14.198  20.292  0.00  0.00    +0.000 A 
ATOM     14  C   UNL     1      -0.272  14.320  19.671  0.00  0.00    +0.000 A 
ATOM     15  C   UNL     1       0.281  13.227  18.993  0.00  0.00    +0.000 A 
ATOM     16 CL   UNL     1       1.818  13.434  18.227  0.00  0.00    +0.000 Cl
ENDBRANCH   5  10
BRANCH   1  18
ATOM     17  C   UNL     1       4.615   7.274  17.012  0.00  0.00    +0.000 C 
ATOM     18  C   UNL     1       3.819   6.283  17.824  0.00  0.00    +0.000 C 
ATOM     19  C   UNL     1       3.755   4.994  17.440  0.00  0.00    +0.000 C 
BRANCH  19  20
ATOM     20  C   UNL     1       2.951   3.934  18.058  0.00  0.00    +0.000 A 
ATOM     21  C   UNL     1       1.554   4.009  18.002  0.00  0.00    +0.000 A 
ATOM     22  C   UNL     1       0.771   2.984  18.537  0.00  0.00    +0.000 A 
ATOM     23  C   UNL     1       1.381   1.879  19.128  0.00  0.00    +0.000 A 
ATOM     24  C   UNL     1       2.773   1.802  19.193  0.00  0.00    +0.000 A 
ATOM     25  C   UNL     1       3.556   2.830  18.661  0.00  0.00    +0.000 A 
ENDBRANCH  19  20
ENDBRANCH   1  18
TORSDOF 3
ENDMDL
MODEL 9
REMARK VINA RESULT:      -6.8      1.422      3.700
REMARK  Name = 
REMARK  4 active torsions:
REMARK  status: ('A' for Active; 'I' for Inactive)
REMARK    1  A    between atoms: C_1  and  C_2
REMARK    2  A    between atoms: C_2  and  C_10
REMARK    3  A    between atoms: C_3  and  C_4
REMARK    4  A    between atoms: N_14  and  C_15
REMARK                            x       y       z     vdW  Elec       q    Type
REMARK                         _______ _______ _______ _____ _____    ______ ____
ROOT
ATOM      1  C   UNL     1      -0.272  10.411  19.665  0.00  0.00    +0.000 C 
ATOM      2  C   UNL     1       0.647   9.465  19.425  0.00  0.00    +0.000 C 
ATOM      3  S   UNL     1       1.316   8.964  17.925  0.00  0.00    +0.000 S 
ATOM      4  C   UNL     1       2.298   7.783  18.763  0.00  0.00    +0.000 C 
ATOM      5  N   UNL     1       3.146   7.054  17.989  0.00  0.00    +0.000 N 
ATOM      6  N   UNL     1       2.137   7.725  20.042  0.00  0.00    +0.000 NA
ATOM      7  C   UNL     1       1.225   8.636  20.523  0.00  0.00    +0.000 C 
ATOM      8  O   UNL     1       0.934   8.775  21.702  0.00  0.00    +0.000 OA
ATOM      9  H   UNL     1       3.329   7.373  17.045  0.00  0.00    +0.000 HD
ENDROOT
BRANCH   5  10
ATOM     10  C   UNL     1       3.703   5.804  18.313  0.00  0.00    +0.000 A 
ATOM     11  C   UNL     1       5.029   5.698  18.760  0.00  0.00    +0.000 A 
ATOM     12  C   UNL     1       5.588   4.460  19.080  0.00  0.00    +0.000 A 
ATOM     13  C   UNL     1       4.842   3.296  18.927  0.00  0.00    +0.000 A 
ATOM     14  C   UNL     1       3.536   3.369  18.451  0.00  0.00    +0.000 A 
ATOM     15  C   UNL     1       2.971   4.614  18.147  0.00  0.00    +0.000 A 
ATOM     16 CL   UNL     1       1.350   4.649  17.545  0.00  0.00    +0.000 Cl
ENDBRANCH   5  10
BRANCH   1  18
ATOM     17  C   UNL     1      -2.117  10.737  17.963  0.00  0.00    +0.000 C 
ATOM     18  C   UNL     1      -0.922  11.288  18.701  0.00  0.00    +0.000 C 
ATOM     19  C   UNL     1      -0.439  12.505  18.387  0.00  0.00    +0.000 C 
BRANCH  19  20
ATOM     20  C   UNL     1       0.765  13.139  18.935  0.00  0.00    +0.000 A 
ATOM     21  C   UNL     1       1.971  13.051  18.231  0.00  0.00    +0.000 A 
ATOM     22  C   UNL     1       3.115  13.691  18.709  0.00  0.00    +0.000 A 
ATOM     23  C   UNL     1       3.059  14.425  19.893  0.00  0.00    +0.000 A 
ATOM     24  C   UNL     1       1.861  14.511  20.603  0.00  0.00    +0.000 A 
ATOM     25  C   UNL     1       0.717  13.866  20.126  0.00  0.00    +0.000 A 
ENDBRANCH  19  20
ENDBRANCH   1  18
TORSDOF 3
ENDMDL
