MODEL 1
REMARK VINA RESULT:      -9.1      0.000      0.000
REMARK  Name = 
REMARK  3 active torsions:
REMARK  status: ('A' for Active; 'I' for Inactive)
REMARK    1  A    between atoms: C_1  and  C_2
REMARK    2  A    between atoms: N_5  and  C_6
REMARK    3  A    between atoms: C_14  and  C_15
REMARK                            x       y       z     vdW  Elec       q    Type
REMARK                         _______ _______ _______ _____ _____    ______ ____
ROOT
ATOM      1  C   UNL     1       3.943   2.733  19.546  0.00  0.00    +0.000 C 
ATOM      2  C   UNL     1       3.388   4.134  19.610  0.00  0.00    +0.000 A 
ATOM      3  C   UNL     1       2.383   4.410  20.606  0.00  0.00    +0.000 A 
ATOM      4  C   UNL     1       1.840   5.628  20.715  0.00  0.00    +0.000 A 
ATOM      5  N   UNL     1       2.233   6.683  19.906  0.00  0.00    +0.000 N 
ATOM      6  C   UNL     1       3.216   6.510  18.915  0.00  0.00    +0.000 A 
ATOM      7  O   UNL     1       3.593   7.385  18.134  0.00  0.00    +0.000 OA
ATOM      8  C   UNL     1       3.800   5.123  18.789  0.00  0.00    +0.000 A 
ENDROOT
BRANCH   8   9
ATOM      9  C   UNL     1       4.865   4.929  17.801  0.00  0.00    +0.000 A 
ATOM     10  C   UNL     1       6.129   5.455  18.084  0.00  0.00    +0.000 A 
ATOM     11  C   UNL     1       7.105   5.489  17.097  0.00  0.00    +0.000 A 
ATOM     12  C   UNL     1       6.836   5.052  15.816  0.00  0.00    +0.000 A 
ATOM     13  N   UNL     1       7.751   5.282  14.879  0.00  0.00    +0.000 NA
ATOM     14  C   UNL     1       7.418   4.996  13.624  0.00  0.00    +0.000 A 
ATOM     15  N   UNL     1       8.245   5.575  12.670  0.00  0.00    +0.000 N 
ATOM     16  N   UNL     1       6.296   4.379  13.243  0.00  0.00    +0.000 NA
ATOM     17  C   UNL     1       5.408   4.107  14.219  0.00  0.00    +0.000 A 
ATOM     18  C   UNL     1       5.593   4.478  15.541  0.00  0.00    +0.000 A 
ATOM     19  C   UNL     1       4.606   4.383  16.541  0.00  0.00    +0.000 A 
ATOM     20  H   UNL     1       8.141   6.570  12.868  0.00  0.00    +0.000 HD
ATOM     21  H   UNL     1       9.184   5.376  13.000  0.00  0.00    +0.000 HD
ENDBRANCH   8   9
BRANCH   5  22
ATOM     22  C   UNL     1       1.597   7.961  19.990  0.00  0.00    +0.000 A 
ATOM     23  C   UNL     1       0.986   8.362  21.185  0.00  0.00    +0.000 A 
ATOM     24  C   UNL     1       0.238   9.540  21.230  0.00  0.00    +0.000 A 
ATOM     25  C   UNL     1       0.135  10.349  20.099  0.00  0.00    +0.000 A 
ATOM     26  C   UNL     1       0.781   9.985  18.920  0.00  0.00    +0.000 A 
ATOM     27  C   UNL     1       1.500   8.790  18.864  0.00  0.00    +0.000 A 
ENDBRANCH   5  22
TORSDOF 2
ENDMDL
MODEL 2
REMARK VINA RESULT:      -8.6      0.756      1.270
REMARK  Name = 
REMARK  3 active torsions:
REMARK  status: ('A' for Active; 'I' for Inactive)
REMARK    1  A    between atoms: C_1  and  C_2
REMARK    2  A    between atoms: N_5  and  C_6
REMARK    3  A    between atoms: C_14  and  C_15
REMARK                            x       y       z     vdW  Elec       q    Type
REMARK                         _______ _______ _______ _____ _____    ______ ____
ROOT
ATOM      1  C   UNL     1       3.454   3.527  19.934  0.00  0.00    +0.000 C 
ATOM      2  C   UNL     1       2.927   4.937  19.833  0.00  0.00    +0.000 A 
ATOM      3  C   UNL     1       1.867   5.320  20.733  0.00  0.00    +0.000 A 
ATOM      4  C   UNL     1       1.345   6.551  20.694  0.00  0.00    +0.000 A 
ATOM      5  N   UNL     1       1.812   7.521  19.820  0.00  0.00    +0.000 N 
ATOM      6  C   UNL     1       2.852   7.240  18.915  0.00  0.00    +0.000 A 
ATOM      7  O   UNL     1       3.297   8.033  18.084  0.00  0.00    +0.000 OA
ATOM      8  C   UNL     1       3.413   5.839  18.955  0.00  0.00    +0.000 A 
ENDROOT
BRANCH   8   9
ATOM      9  C   UNL     1       4.534   5.537  18.060  0.00  0.00    +0.000 A 
ATOM     10  C   UNL     1       5.784   6.080  18.367  0.00  0.00    +0.000 A 
ATOM     11  C   UNL     1       6.820   6.005  17.445  0.00  0.00    +0.000 A 
ATOM     12  C   UNL     1       6.624   5.443  16.200  0.00  0.00    +0.000 A 
ATOM     13  N   UNL     1       7.598   5.569  15.304  0.00  0.00    +0.000 NA
ATOM     14  C   UNL     1       7.339   5.158  14.066  0.00  0.00    +0.000 A 
ATOM     15  N   UNL     1       8.232   5.631  13.112  0.00  0.00    +0.000 N 
ATOM     16  N   UNL     1       6.235   4.514  13.680  0.00  0.00    +0.000 NA
ATOM     17  C   UNL     1       5.285   4.350  14.621  0.00  0.00    +0.000 A 
ATOM     18  C   UNL     1       5.393   4.852  15.908  0.00  0.00    +0.000 A 
ATOM     19  C   UNL     1       4.344   4.868  16.848  0.00  0.00    +0.000 A 
ATOM     20  H   UNL     1       8.129   6.642  13.202  0.00  0.00    +0.000 HD
ATOM     21  H   UNL     1       9.146   5.460  13.518  0.00  0.00    +0.000 HD
ENDBRANCH   8   9
BRANCH   5  22
ATOM     22  C   UNL     1       1.201   8.811  19.746  0.00  0.00    +0.000 A 
ATOM     23  C   UNL     1       0.954   9.399  18.498  0.00  0.00    +0.000 A 
ATOM     24  C   UNL     1       0.495  10.715  18.422  0.00  0.00    +0.000 A 
ATOM     25  C   UNL     1       0.234  11.436  19.586  0.00  0.00    +0.000 A 
ATOM     26  C   UNL     1       0.427  10.843  20.832  0.00  0.00    +0.000 A 
ATOM     27  C   UNL     1       0.919   9.540  20.910  0.00  0.00    +0.000 A 
ENDBRANCH   5  22
TORSDOF 2
ENDMDL
MODEL 3
REMARK VINA RESULT:      -8.1      2.239      7.519
REMARK  Name = 
REMARK  3 active torsions:
REMARK  status: ('A' for Active; 'I' for Inactive)
REMARK    1  A    between atoms: C_1  and  C_2
REMARK    2  A    between atoms: N_5  and  C_6
REMARK    3  A    between atoms: C_14  and  C_15
REMARK                            x       y       z     vdW  Elec       q    Type
REMARK                         _______ _______ _______ _____ _____    ______ ____
ROOT
ATOM      1  C   UNL     1       0.993   4.554  20.421  0.00  0.00    +0.000 C 
ATOM      2  C   UNL     1       2.081   4.627  19.379  0.00  0.00    +0.000 A 
ATOM      3  C   UNL     1       2.530   3.387  18.795  0.00  0.00    +0.000 A 
ATOM      4  C   UNL     1       3.498   3.375  17.871  0.00  0.00    +0.000 A 
ATOM      5  N   UNL     1       4.089   4.541  17.410  0.00  0.00    +0.000 N 
ATOM      6  C   UNL     1       3.705   5.797  17.913  0.00  0.00    +0.000 A 
ATOM      7  O   UNL     1       4.206   6.873  17.583  0.00  0.00    +0.000 OA
ATOM      8  C   UNL     1       2.629   5.791  18.973  0.00  0.00    +0.000 A 
ENDROOT
BRANCH   8   9
ATOM      9  C   UNL     1       2.173   7.090  19.475  0.00  0.00    +0.000 A 
ATOM     10  C   UNL     1       1.889   7.205  20.839  0.00  0.00    +0.000 A 
ATOM     11  C   UNL     1       1.253   8.341  21.324  0.00  0.00    +0.000 A 
ATOM     12  C   UNL     1       0.848   9.347  20.471  0.00  0.00    +0.000 A 
ATOM     13  N   UNL     1       0.085  10.313  20.973  0.00  0.00    +0.000 NA
ATOM     14  C   UNL     1      -0.423  11.192  20.113  0.00  0.00    +0.000 A 
ATOM     15  N   UNL     1      -1.474  11.942  20.623  0.00  0.00    +0.000 N 
ATOM     16  N   UNL     1      -0.127  11.261  18.813  0.00  0.00    +0.000 NA
ATOM     17  C   UNL     1       0.692  10.302  18.339  0.00  0.00    +0.000 A 
ATOM     18  C   UNL     1       1.175   9.262  19.116  0.00  0.00    +0.000 A 
ATOM     19  C   UNL     1       1.869   8.144  18.611  0.00  0.00    +0.000 A 
ATOM     20  H   UNL     1      -2.154  11.224  20.871  0.00  0.00    +0.000 HD
ATOM     21  H   UNL     1      -1.141  12.259  21.528  0.00  0.00    +0.000 HD
ENDBRANCH   8   9
BRANCH   5  22
ATOM     22  C   UNL     1       5.166   4.507  16.470  0.00  0.00    +0.000 A 
ATOM     23  C   UNL     1       6.487   4.659  16.913  0.00  0.00    +0.000 A 
ATOM     24  C   UNL     1       7.527   4.774  15.989  0.00  0.00    +0.000 A 
ATOM     25  C   UNL     1       7.265   4.690  14.622  0.00  0.00    +0.000 A 
ATOM     26  C   UNL     1       5.961   4.487  14.174  0.00  0.00    +0.000 A 
ATOM     27  C   UNL     1       4.916   4.407  15.094  0.00  0.00    +0.000 A 
ENDBRANCH   5  22
TORSDOF 2
ENDMDL
MODEL 4
REMARK VINA RESULT:      -7.9      1.985      3.543
REMARK  Name = 
REMARK  3 active torsions:
REMARK  status: ('A' for Active; 'I' for Inactive)
REMARK    1  A    between atoms: C_1  and  C_2
REMARK    2  A    between atoms: N_5  and  C_6
REMARK    3  A    between atoms: C_14  and  C_15
REMARK                            x       y       z     vdW  Elec       q    Type
REMARK                         _______ _______ _______ _____ _____    ______ ____
ROOT
ATOM      1  C   UNL     1       1.963   5.811  20.898  0.00  0.00    +0.000 C 
ATOM      2  C   UNL     1       1.567   7.192  20.436  0.00  0.00    +0.000 A 
ATOM      3  C   UNL     1       0.731   7.975  21.312  0.00  0.00    +0.000 A 
ATOM      4  C   UNL     1       0.335   9.205  20.963  0.00  0.00    +0.000 A 
ATOM      5  N   UNL     1       0.729   9.794  19.771  0.00  0.00    +0.000 N 
ATOM      6  C   UNL     1       1.554   9.109  18.862  0.00  0.00    +0.000 A 
ATOM      7  O   UNL     1       1.916   9.548  17.769  0.00  0.00    +0.000 OA
ATOM      8  C   UNL     1       1.972   7.713  19.259  0.00  0.00    +0.000 A 
ENDROOT
BRANCH   8   9
ATOM      9  C   UNL     1       2.876   6.998  18.354  0.00  0.00    +0.000 A 
ATOM     10  C   UNL     1       2.578   5.669  18.041  0.00  0.00    +0.000 A 
ATOM     11  C   UNL     1       3.508   4.888  17.368  0.00  0.00    +0.000 A 
ATOM     12  C   UNL     1       4.751   5.387  17.042  0.00  0.00    +0.000 A 
ATOM     13  N   UNL     1       5.655   4.535  16.567  0.00  0.00    +0.000 NA
ATOM     14  C   UNL     1       6.892   4.994  16.399  0.00  0.00    +0.000 A 
ATOM     15  N   UNL     1       7.852   4.000  16.252  0.00  0.00    +0.000 N 
ATOM     16  N   UNL     1       7.271   6.266  16.544  0.00  0.00    +0.000 NA
ATOM     17  C   UNL     1       6.323   7.122  16.974  0.00  0.00    +0.000 A 
ATOM     18  C   UNL     1       5.036   6.729  17.305  0.00  0.00    +0.000 A 
ATOM     19  C   UNL     1       4.087   7.556  17.937  0.00  0.00    +0.000 A 
ATOM     20  H   UNL     1       7.760   3.479  17.123  0.00  0.00    +0.000 HD
ATOM     21  H   UNL     1       7.453   3.367  15.567  0.00  0.00    +0.000 HD
ENDBRANCH   8   9
BRANCH   5  22
ATOM     22  C   UNL     1       0.244  11.082  19.384  0.00  0.00    +0.000 A 
ATOM     23  C   UNL     1      -0.949  11.192  18.658  0.00  0.00    +0.000 A 
ATOM     24  C   UNL     1      -1.350  12.430  18.152  0.00  0.00    +0.000 A 
ATOM     25  C   UNL     1      -0.591  13.572  18.405  0.00  0.00    +0.000 A 
ATOM     26  C   UNL     1       0.571  13.481  19.169  0.00  0.00    +0.000 A 
ATOM     27  C   UNL     1       0.991  12.239  19.647  0.00  0.00    +0.000 A 
ENDBRANCH   5  22
TORSDOF 2
ENDMDL
MODEL 5
REMARK VINA RESULT:      -7.9      2.242      7.572
REMARK  Name = 
REMARK  3 active torsions:
REMARK  status: ('A' for Active; 'I' for Inactive)
REMARK    1  A    between atoms: C_1  and  C_2
REMARK    2  A    between atoms: N_5  and  C_6
REMARK    3  A    between atoms: C_14  and  C_15
REMARK                            x       y       z     vdW  Elec       q    Type
REMARK                         _______ _______ _______ _____ _____    ______ ____
ROOT
ATOM      1  C   UNL     1       1.497   4.953  20.802  0.00  0.00    +0.000 C 
ATOM      2  C   UNL     1       2.474   4.946  19.654  0.00  0.00    +0.000 A 
ATOM      3  C   UNL     1       3.154   3.707  19.363  0.00  0.00    +0.000 A 
ATOM      4  C   UNL     1       4.040   3.629  18.364  0.00  0.00    +0.000 A 
ATOM      5  N   UNL     1       4.325   4.713  17.546  0.00  0.00    +0.000 N 
ATOM      6  C   UNL     1       3.700   5.956  17.748  0.00  0.00    +0.000 A 
ATOM      7  O   UNL     1       3.925   6.974  17.091  0.00  0.00    +0.000 OA
ATOM      8  C   UNL     1       2.721   6.034  18.895  0.00  0.00    +0.000 A 
ENDROOT
BRANCH   8   9
ATOM      9  C   UNL     1       2.016   7.304  19.093  0.00  0.00    +0.000 A 
ATOM     10  C   UNL     1       1.851   8.143  17.987  0.00  0.00    +0.000 A 
ATOM     11  C   UNL     1       1.387   9.440  18.161  0.00  0.00    +0.000 A 
ATOM     12  C   UNL     1       1.130   9.939  19.421  0.00  0.00    +0.000 A 
ATOM     13  N   UNL     1       0.867  11.238  19.531  0.00  0.00    +0.000 NA
ATOM     14  C   UNL     1       0.771  11.735  20.761  0.00  0.00    +0.000 A 
ATOM     15  N   UNL     1       0.856  13.121  20.821  0.00  0.00    +0.000 N 
ATOM     16  N   UNL     1       0.787  11.019  21.888  0.00  0.00    +0.000 NA
ATOM     17  C   UNL     1       0.999   9.696  21.747  0.00  0.00    +0.000 A 
ATOM     18  C   UNL     1       1.243   9.090  20.525  0.00  0.00    +0.000 A 
ATOM     19  C   UNL     1       1.659   7.754  20.366  0.00  0.00    +0.000 A 
ATOM     20  H   UNL     1       1.774  13.300  20.415  0.00  0.00    +0.000 HD
ATOM     21  H   UNL     1       0.222  13.442  20.098  0.00  0.00    +0.000 HD
ENDBRANCH   8   9
BRANCH   5  22
ATOM     22  C   UNL     1       5.322   4.631  16.525  0.00  0.00    +0.000 A 
ATOM     23  C   UNL     1       6.638   5.025  16.798  0.00  0.00    +0.000 A 
ATOM     24  C   UNL     1       7.580   5.087  15.769  0.00  0.00    +0.000 A 
ATOM     25  C   UNL     1       7.229   4.712  14.473  0.00  0.00    +0.000 A 
ATOM     26  C   UNL     1       5.936   4.270  14.201  0.00  0.00    +0.000 A 
ATOM     27  C   UNL     1       4.985   4.240  15.222  0.00  0.00    +0.000 A 
ENDBRANCH   5  22
TORSDOF 2
ENDMDL
MODEL 6
REMARK VINA RESULT:      -7.9      3.563      4.864
REMARK  Name = 
REMARK  3 active torsions:
REMARK  status: ('A' for Active; 'I' for Inactive)
REMARK    1  A    between atoms: C_1  and  C_2
REMARK    2  A    between atoms: N_5  and  C_6
REMARK    3  A    between atoms: C_14  and  C_15
REMARK                            x       y       z     vdW  Elec       q    Type
REMARK                         _______ _______ _______ _____ _____    ______ ____
ROOT
ATOM      1  C   UNL     1       3.123   7.862  16.889  0.00  0.00    +0.000 C 
ATOM      2  C   UNL     1       2.373   8.466  18.050  0.00  0.00    +0.000 A 
ATOM      3  C   UNL     1       1.832   9.791  17.879  0.00  0.00    +0.000 A 
ATOM      4  C   UNL     1       1.162  10.392  18.870  0.00  0.00    +0.000 A 
ATOM      5  N   UNL     1       0.929   9.766  20.085  0.00  0.00    +0.000 N 
ATOM      6  C   UNL     1       1.408   8.468  20.336  0.00  0.00    +0.000 A 
ATOM      7  O   UNL     1       1.275   7.860  21.399  0.00  0.00    +0.000 OA
ATOM      8  C   UNL     1       2.184   7.815  19.217  0.00  0.00    +0.000 A 
ENDROOT
BRANCH   8   9
ATOM      9  C   UNL     1       2.647   6.441  19.433  0.00  0.00    +0.000 A 
ATOM     10  C   UNL     1       4.022   6.224  19.565  0.00  0.00    +0.000 A 
ATOM     11  C   UNL     1       4.526   4.930  19.554  0.00  0.00    +0.000 A 
ATOM     12  C   UNL     1       3.695   3.846  19.367  0.00  0.00    +0.000 A 
ATOM     13  N   UNL     1       4.261   2.657  19.183  0.00  0.00    +0.000 NA
ATOM     14  C   UNL     1       3.459   1.648  18.853  0.00  0.00    +0.000 A 
ATOM     15  N   UNL     1       4.121   0.544  18.332  0.00  0.00    +0.000 N 
ATOM     16  N   UNL     1       2.125   1.701  18.818  0.00  0.00    +0.000 NA
ATOM     17  C   UNL     1       1.572   2.905  19.062  0.00  0.00    +0.000 A 
ATOM     18  C   UNL     1       2.316   4.052  19.287  0.00  0.00    +0.000 A 
ATOM     19  C   UNL     1       1.777   5.352  19.351  0.00  0.00    +0.000 A 
ATOM     20  H   UNL     1       4.586   0.936  17.514  0.00  0.00    +0.000 HD
ATOM     21  H   UNL     1       4.889   0.386  18.975  0.00  0.00    +0.000 HD
ENDBRANCH   8   9
BRANCH   5  22
ATOM     22  C   UNL     1       0.269  10.446  21.156  0.00  0.00    +0.000 A 
ATOM     23  C   UNL     1      -0.322   9.713  22.193  0.00  0.00    +0.000 A 
ATOM     24  C   UNL     1      -1.092  10.361  23.160  0.00  0.00    +0.000 A 
ATOM     25  C   UNL     1      -1.240  11.747  23.126  0.00  0.00    +0.000 A 
ATOM     26  C   UNL     1      -0.615  12.491  22.128  0.00  0.00    +0.000 A 
ATOM     27  C   UNL     1       0.127  11.841  21.141  0.00  0.00    +0.000 A 
ENDBRANCH   5  22
TORSDOF 2
ENDMDL
MODEL 7
REMARK VINA RESULT:      -7.7      3.609      6.846
REMARK  Name = 
REMARK  3 active torsions:
REMARK  status: ('A' for Active; 'I' for Inactive)
REMARK    1  A    between atoms: C_1  and  C_2
REMARK    2  A    between atoms: N_5  and  C_6
REMARK    3  A    between atoms: C_14  and  C_15
REMARK                            x       y       z     vdW  Elec       q    Type
REMARK                         _______ _______ _______ _____ _____    ______ ____
ROOT
ATOM      1  C   UNL     1      -1.457   9.779  17.548  0.00  0.00    +0.000 C 
ATOM      2  C   UNL     1      -1.208  10.734  18.689  0.00  0.00    +0.000 A 
ATOM      3  C   UNL     1      -2.222  11.721  18.966  0.00  0.00    +0.000 A 
ATOM      4  C   UNL     1      -2.065  12.606  19.958  0.00  0.00    +0.000 A 
ATOM      5  N   UNL     1      -0.949  12.599  20.780  0.00  0.00    +0.000 N 
ATOM      6  C   UNL     1       0.085  11.664  20.591  0.00  0.00    +0.000 A 
ATOM      7  O   UNL     1       1.123  11.616  21.253  0.00  0.00    +0.000 OA
ATOM      8  C   UNL     1      -0.096  10.689  19.452  0.00  0.00    +0.000 A 
ENDROOT
BRANCH   8   9
ATOM      9  C   UNL     1       0.941   9.670  19.267  0.00  0.00    +0.000 A 
ATOM     10  C   UNL     1       1.675   9.687  18.078  0.00  0.00    +0.000 A 
ATOM     11  C   UNL     1       2.512   8.624  17.762  0.00  0.00    +0.000 A 
ATOM     12  C   UNL     1       2.598   7.520  18.584  0.00  0.00    +0.000 A 
ATOM     13  N   UNL     1       3.271   6.465  18.134  0.00  0.00    +0.000 NA
ATOM     14  C   UNL     1       3.219   5.355  18.865  0.00  0.00    +0.000 A 
ATOM     15  N   UNL     1       3.625   4.211  18.191  0.00  0.00    +0.000 N 
ATOM     16  N   UNL     1       2.658   5.251  20.073  0.00  0.00    +0.000 NA
ATOM     17  C   UNL     1       2.029   6.351  20.531  0.00  0.00    +0.000 A 
ATOM     18  C   UNL     1       1.907   7.520  19.798  0.00  0.00    +0.000 A 
ATOM     19  C   UNL     1       1.096   8.611  20.165  0.00  0.00    +0.000 A 
ATOM     20  H   UNL     1       2.970   4.176  17.410  0.00  0.00    +0.000 HD
ATOM     21  H   UNL     1       4.495   4.478  17.744  0.00  0.00    +0.000 HD
ENDBRANCH   8   9
BRANCH   5  22
ATOM     22  C   UNL     1      -0.766  13.591  21.793  0.00  0.00    +0.000 A 
ATOM     23  C   UNL     1      -1.349  13.420  23.055  0.00  0.00    +0.000 A 
ATOM     24  C   UNL     1      -1.298  14.449  23.997  0.00  0.00    +0.000 A 
ATOM     25  C   UNL     1      -0.627  15.636  23.704  0.00  0.00    +0.000 A 
ATOM     26  C   UNL     1       0.000  15.796  22.471  0.00  0.00    +0.000 A 
ATOM     27  C   UNL     1      -0.079  14.782  21.516  0.00  0.00    +0.000 A 
ENDBRANCH   5  22
TORSDOF 2
ENDMDL
MODEL 8
REMARK VINA RESULT:      -7.7      2.210      7.670
REMARK  Name = 
REMARK  3 active torsions:
REMARK  status: ('A' for Active; 'I' for Inactive)
REMARK    1  A    between atoms: C_1  and  C_2
REMARK    2  A    between atoms: N_5  and  C_6
REMARK    3  A    between atoms: C_14  and  C_15
REMARK                            x       y       z     vdW  Elec       q    Type
REMARK                         _______ _______ _______ _____ _____    ______ ____
ROOT
ATOM      1  C   UNL     1       2.041   4.907  20.962  0.00  0.00    +0.000 C 
ATOM      2  C   UNL     1       2.893   4.962  19.720  0.00  0.00    +0.000 A 
ATOM      3  C   UNL     1       3.654   3.785  19.378  0.00  0.00    +0.000 A 
ATOM      4  C   UNL     1       4.438   3.766  18.294  0.00  0.00    +0.000 A 
ATOM      5  N   UNL     1       4.534   4.851  17.436  0.00  0.00    +0.000 N 
ATOM      6  C   UNL     1       3.819   6.035  17.683  0.00  0.00    +0.000 A 
ATOM      7  O   UNL     1       3.878   7.053  16.991  0.00  0.00    +0.000 OA
ATOM      8  C   UNL     1       2.958   6.050  18.924  0.00  0.00    +0.000 A 
ENDROOT
BRANCH   8   9
ATOM      9  C   UNL     1       2.159   7.254  19.174  0.00  0.00    +0.000 A 
ATOM     10  C   UNL     1       1.933   8.126  18.106  0.00  0.00    +0.000 A 
ATOM     11  C   UNL     1       1.374   9.377  18.336  0.00  0.00    +0.000 A 
ATOM     12  C   UNL     1       1.078   9.797  19.616  0.00  0.00    +0.000 A 
ATOM     13  N   UNL     1       0.719  11.067  19.782  0.00  0.00    +0.000 NA
ATOM     14  C   UNL     1       0.584  11.500  21.033  0.00  0.00    +0.000 A 
ATOM     15  N   UNL     1       0.565  12.883  21.156  0.00  0.00    +0.000 N 
ATOM     16  N   UNL     1       0.651  10.737  22.127  0.00  0.00    +0.000 NA
ATOM     17  C   UNL     1       0.962   9.441  21.928  0.00  0.00    +0.000 A 
ATOM     18  C   UNL     1       1.252   8.911  20.681  0.00  0.00    +0.000 A 
ATOM     19  C   UNL     1       1.767   7.618  20.465  0.00  0.00    +0.000 A 
ATOM     20  H   UNL     1       1.467  13.149  20.762  0.00  0.00    +0.000 HD
ATOM     21  H   UNL     1      -0.091  13.189  20.444  0.00  0.00    +0.000 HD
ENDBRANCH   8   9
BRANCH   5  22
ATOM     22  C   UNL     1       5.426   4.837  16.319  0.00  0.00    +0.000 A 
ATOM     23  C   UNL     1       5.013   4.286  15.099  0.00  0.00    +0.000 A 
ATOM     24  C   UNL     1       5.925   4.136  14.052  0.00  0.00    +0.000 A 
ATOM     25  C   UNL     1       7.240   4.577  14.198  0.00  0.00    +0.000 A 
ATOM     26  C   UNL     1       7.647   5.173  15.390  0.00  0.00    +0.000 A 
ATOM     27  C   UNL     1       6.746   5.292  16.448  0.00  0.00    +0.000 A 
ENDBRANCH   5  22
TORSDOF 2
ENDMDL
MODEL 9
REMARK VINA RESULT:      -7.6      3.696      8.909
REMARK  Name = 
REMARK  3 active torsions:
REMARK  status: ('A' for Active; 'I' for Inactive)
REMARK    1  A    between atoms: C_1  and  C_2
REMARK    2  A    between atoms: N_5  and  C_6
REMARK    3  A    between atoms: C_14  and  C_15
REMARK                            x       y       z     vdW  Elec       q    Type
REMARK                         _______ _______ _______ _____ _____    ______ ____
ROOT
ATOM      1  C   UNL     1       2.209  10.287  18.011  0.00  0.00    +0.000 C 
ATOM      2  C   UNL     1       2.252   8.828  18.392  0.00  0.00    +0.000 A 
ATOM      3  C   UNL     1       2.928   7.923  17.495  0.00  0.00    +0.000 A 
ATOM      4  C   UNL     1       2.998   6.614  17.765  0.00  0.00    +0.000 A 
ATOM      5  N   UNL     1       2.459   6.072  18.922  0.00  0.00    +0.000 N 
ATOM      6  C   UNL     1       1.793   6.881  19.859  0.00  0.00    +0.000 A 
ATOM      7  O   UNL     1       1.256   6.471  20.890  0.00  0.00    +0.000 OA
ATOM      8  C   UNL     1       1.701   8.352  19.527  0.00  0.00    +0.000 A 
ENDROOT
BRANCH   8   9
ATOM      9  C   UNL     1       1.059   9.225  20.515  0.00  0.00    +0.000 A 
ATOM     10  C   UNL     1       1.142   8.865  21.863  0.00  0.00    +0.000 A 
ATOM     11  C   UNL     1       0.376   9.533  22.809  0.00  0.00    +0.000 A 
ATOM     12  C   UNL     1      -0.510  10.522  22.436  0.00  0.00    +0.000 A 
ATOM     13  N   UNL     1      -1.342  10.989  23.362  0.00  0.00    +0.000 NA
ATOM     14  C   UNL     1      -2.291  11.829  22.957  0.00  0.00    +0.000 A 
ATOM     15  N   UNL     1      -3.326  11.999  23.867  0.00  0.00    +0.000 N 
ATOM     16  N   UNL     1      -2.397  12.341  21.728  0.00  0.00    +0.000 NA
ATOM     17  C   UNL     1      -1.508  11.893  20.820  0.00  0.00    +0.000 A 
ATOM     18  C   UNL     1      -0.560  10.921  21.098  0.00  0.00    +0.000 A 
ATOM     19  C   UNL     1       0.249  10.295  20.129  0.00  0.00    +0.000 A 
ATOM     20  H   UNL     1      -3.684  11.049  23.969  0.00  0.00    +0.000 HD
ATOM     21  H   UNL     1      -2.857  12.159  24.753  0.00  0.00    +0.000 HD
ENDBRANCH   8   9
BRANCH   5  22
ATOM     22  C   UNL     1       2.485   4.663  19.163  0.00  0.00    +0.000 A 
ATOM     23  C   UNL     1       3.624   4.068  19.720  0.00  0.00    +0.000 A 
ATOM     24  C   UNL     1       3.712   2.679  19.822  0.00  0.00    +0.000 A 
ATOM     25  C   UNL     1       2.647   1.876  19.413  0.00  0.00    +0.000 A 
ATOM     26  C   UNL     1       1.489   2.461  18.904  0.00  0.00    +0.000 A 
ATOM     27  C   UNL     1       1.414   3.847  18.771  0.00  0.00    +0.000 A 
ENDBRANCH   5  22
TORSDOF 2
ENDMDL
