MODEL 1
REMARK VINA RESULT:      -6.6      0.000      0.000
REMARK  Name = 
REMARK  3 active torsions:
REMARK  status: ('A' for Active; 'I' for Inactive)
REMARK    1  A    between atoms: C_1  and  C_2
REMARK    2  A    between atoms: C_9  and  O_10
REMARK    3  A    between atoms: C_9  and  C_11
REMARK                            x       y       z     vdW  Elec       q    Type
REMARK                         _______ _______ _______ _____ _____    ______ ____
ROOT
ATOM      1  C   UNL     1       1.271   3.023  20.563  0.00  0.00    +0.000 C 
ATOM      2  C   UNL     1       2.696   3.533  20.576  0.00  0.00    +0.000 C 
ATOM      3  C   UNL     1       3.717   2.454  20.357  0.00  0.00    +0.000 C 
ATOM      4  N   UNL     1       4.779   2.806  19.706  0.00  0.00    +0.000 NA
ATOM      5  N   UNL     1       4.565   4.113  19.328  0.00  0.00    +0.000 N 
ATOM      6  C   UNL     1       5.488   4.836  18.597  0.00  0.00    +0.000 C 
ATOM      7  N   UNL     1       6.669   4.194  18.403  0.00  0.00    +0.000 N 
ATOM      8  O   UNL     1       5.290   5.983  18.216  0.00  0.00    +0.000 OA
ATOM      9  C   UNL     1       3.175   4.555  19.527  0.00  0.00    +0.000 C 
ATOM     10  H   UNL     1       6.661   3.194  18.558  0.00  0.00    +0.000 HD
ATOM     11  H   UNL     1       7.338   4.598  17.765  0.00  0.00    +0.000 HD
ENDROOT
BRANCH   9  12
ATOM     12  C   UNL     1       2.402   4.608  18.159  0.00  0.00    +0.000 C 
ATOM     13  F   UNL     1       2.410   5.837  17.595  0.00  0.00    +0.000 F 
ATOM     14  F   UNL     1       2.926   3.761  17.242  0.00  0.00    +0.000 F 
ATOM     15  F   UNL     1       1.088   4.287  18.282  0.00  0.00    +0.000 F 
ENDBRANCH   9  12
BRANCH   9  16
ATOM     16  O   UNL     1       3.202   5.818  20.221  0.00  0.00    +0.000 OA
ATOM     17  H   UNL     1       2.445   6.325  19.871  0.00  0.00    +0.000 HD
ENDBRANCH   9  16
TORSDOF 2
ENDMDL
MODEL 2
REMARK VINA RESULT:      -6.6      0.141      1.021
REMARK  Name = 
REMARK  3 active torsions:
REMARK  status: ('A' for Active; 'I' for Inactive)
REMARK    1  A    between atoms: C_1  and  C_2
REMARK    2  A    between atoms: C_9  and  O_10
REMARK    3  A    between atoms: C_9  and  C_11
REMARK                            x       y       z     vdW  Elec       q    Type
REMARK                         _______ _______ _______ _____ _____    ______ ____
ROOT
ATOM      1  C   UNL     1       1.203   2.953  20.671  0.00  0.00    +0.000 C 
ATOM      2  C   UNL     1       2.622   3.479  20.671  0.00  0.00    +0.000 C 
ATOM      3  C   UNL     1       3.654   2.409  20.459  0.00  0.00    +0.000 C 
ATOM      4  N   UNL     1       4.708   2.765  19.799  0.00  0.00    +0.000 NA
ATOM      5  N   UNL     1       4.479   4.066  19.408  0.00  0.00    +0.000 N 
ATOM      6  C   UNL     1       5.390   4.791  18.665  0.00  0.00    +0.000 C 
ATOM      7  N   UNL     1       6.577   4.160  18.471  0.00  0.00    +0.000 N 
ATOM      8  O   UNL     1       5.177   5.931  18.272  0.00  0.00    +0.000 OA
ATOM      9  C   UNL     1       3.085   4.495  19.609  0.00  0.00    +0.000 C 
ATOM     10  H   UNL     1       6.581   3.162  18.638  0.00  0.00    +0.000 HD
ATOM     11  H   UNL     1       7.239   4.564  17.826  0.00  0.00    +0.000 HD
ENDROOT
BRANCH   9  12
ATOM     12  C   UNL     1       2.304   4.525  18.245  0.00  0.00    +0.000 C 
ATOM     13  F   UNL     1       1.014   4.139  18.366  0.00  0.00    +0.000 F 
ATOM     14  F   UNL     1       2.285   5.762  17.694  0.00  0.00    +0.000 F 
ATOM     15  F   UNL     1       2.834   3.691  17.314  0.00  0.00    +0.000 F 
ENDBRANCH   9  12
BRANCH   9  16
ATOM     16  O   UNL     1       3.101   5.765  20.290  0.00  0.00    +0.000 OA
ATOM     17  H   UNL     1       2.164   5.992  20.443  0.00  0.00    +0.000 HD
ENDBRANCH   9  16
TORSDOF 2
ENDMDL
MODEL 3
REMARK VINA RESULT:      -6.4      1.243      1.643
REMARK  Name = 
REMARK  3 active torsions:
REMARK  status: ('A' for Active; 'I' for Inactive)
REMARK    1  A    between atoms: C_1  and  C_2
REMARK    2  A    between atoms: C_9  and  O_10
REMARK    3  A    between atoms: C_9  and  C_11
REMARK                            x       y       z     vdW  Elec       q    Type
REMARK                         _______ _______ _______ _____ _____    ______ ____
ROOT
ATOM      1  C   UNL     1       1.511   2.598  21.464  0.00  0.00    +0.000 C 
ATOM      2  C   UNL     1       2.694   3.329  20.867  0.00  0.00    +0.000 C 
ATOM      3  C   UNL     1       3.903   2.456  20.688  0.00  0.00    +0.000 C 
ATOM      4  N   UNL     1       4.643   2.723  19.660  0.00  0.00    +0.000 NA
ATOM      5  N   UNL     1       3.986   3.723  18.979  0.00  0.00    +0.000 N 
ATOM      6  C   UNL     1       4.472   4.270  17.807  0.00  0.00    +0.000 C 
ATOM      7  N   UNL     1       5.710   3.832  17.462  0.00  0.00    +0.000 N 
ATOM      8  O   UNL     1       3.873   5.126  17.169  0.00  0.00    +0.000 OA
ATOM      9  C   UNL     1       2.610   3.943  19.456  0.00  0.00    +0.000 C 
ATOM     10  H   UNL     1       6.024   2.984  17.917  0.00  0.00    +0.000 HD
ATOM     11  H   UNL     1       6.073   4.078  16.554  0.00  0.00    +0.000 HD
ENDROOT
BRANCH   9  12
ATOM     12  C   UNL     1       1.564   3.326  18.458  0.00  0.00    +0.000 C 
ATOM     13  F   UNL     1       0.469   2.832  19.079  0.00  0.00    +0.000 F 
ATOM     14  F   UNL     1       1.118   4.236  17.559  0.00  0.00    +0.000 F 
ATOM     15  F   UNL     1       2.063   2.284  17.745  0.00  0.00    +0.000 F 
ENDBRANCH   9  12
BRANCH   9  16
ATOM     16  O   UNL     1       2.432   5.356  19.675  0.00  0.00    +0.000 OA
ATOM     17  H   UNL     1       3.328   5.713  19.828  0.00  0.00    +0.000 HD
ENDBRANCH   9  16
TORSDOF 2
ENDMDL
MODEL 4
REMARK VINA RESULT:      -6.3      1.164      1.225
REMARK  Name = 
REMARK  3 active torsions:
REMARK  status: ('A' for Active; 'I' for Inactive)
REMARK    1  A    between atoms: C_1  and  C_2
REMARK    2  A    between atoms: C_9  and  O_10
REMARK    3  A    between atoms: C_9  and  C_11
REMARK                            x       y       z     vdW  Elec       q    Type
REMARK                         _______ _______ _______ _____ _____    ______ ____
ROOT
ATOM      1  C   UNL     1       1.456   2.623  21.272  0.00  0.00    +0.000 C 
ATOM      2  C   UNL     1       2.663   3.366  20.741  0.00  0.00    +0.000 C 
ATOM      3  C   UNL     1       3.884   2.501  20.609  0.00  0.00    +0.000 C 
ATOM      4  N   UNL     1       4.671   2.783  19.621  0.00  0.00    +0.000 NA
ATOM      5  N   UNL     1       4.042   3.789  18.922  0.00  0.00    +0.000 N 
ATOM      6  C   UNL     1       4.581   4.352  17.781  0.00  0.00    +0.000 C 
ATOM      7  N   UNL     1       5.837   3.924  17.491  0.00  0.00    +0.000 N 
ATOM      8  O   UNL     1       4.009   5.214  17.125  0.00  0.00    +0.000 OA
ATOM      9  C   UNL     1       2.644   3.996  19.335  0.00  0.00    +0.000 C 
ATOM     10  H   UNL     1       6.133   3.073  17.950  0.00  0.00    +0.000 HD
ATOM     11  H   UNL     1       6.242   4.183  16.604  0.00  0.00    +0.000 HD
ENDROOT
BRANCH   9  12
ATOM     12  C   UNL     1       1.650   3.387  18.280  0.00  0.00    +0.000 C 
ATOM     13  F   UNL     1       1.211   4.297  17.381  0.00  0.00    +0.000 F 
ATOM     14  F   UNL     1       2.214   2.384  17.567  0.00  0.00    +0.000 F 
ATOM     15  F   UNL     1       0.524   2.881  18.845  0.00  0.00    +0.000 F 
ENDBRANCH   9  12
BRANCH   9  16
ATOM     16  O   UNL     1       2.448   5.406  19.562  0.00  0.00    +0.000 OA
ATOM     17  H   UNL     1       2.270   5.791  18.682  0.00  0.00    +0.000 HD
ENDBRANCH   9  16
TORSDOF 2
ENDMDL
MODEL 5
REMARK VINA RESULT:      -6.3      2.457      3.487
REMARK  Name = 
REMARK  3 active torsions:
REMARK  status: ('A' for Active; 'I' for Inactive)
REMARK    1  A    between atoms: C_1  and  C_2
REMARK    2  A    between atoms: C_9  and  O_10
REMARK    3  A    between atoms: C_9  and  C_11
REMARK                            x       y       z     vdW  Elec       q    Type
REMARK                         _______ _______ _______ _____ _____    ______ ____
ROOT
ATOM      1  C   UNL     1       2.724   7.049  18.386  0.00  0.00    +0.000 C 
ATOM      2  C   UNL     1       2.918   5.641  17.865  0.00  0.00    +0.000 C 
ATOM      3  C   UNL     1       4.338   5.162  17.961  0.00  0.00    +0.000 C 
ATOM      4  N   UNL     1       4.492   3.898  18.199  0.00  0.00    +0.000 NA
ATOM      5  N   UNL     1       3.222   3.399  18.385  0.00  0.00    +0.000 N 
ATOM      6  C   UNL     1       2.980   2.070  18.672  0.00  0.00    +0.000 C 
ATOM      7  N   UNL     1       4.084   1.281  18.621  0.00  0.00    +0.000 N 
ATOM      8  O   UNL     1       1.859   1.624  18.885  0.00  0.00    +0.000 OA
ATOM      9  C   UNL     1       2.201   4.450  18.528  0.00  0.00    +0.000 C 
ATOM     10  H   UNL     1       4.974   1.760  18.654  0.00  0.00    +0.000 HD
ATOM     11  H   UNL     1       4.013   0.330  18.952  0.00  0.00    +0.000 HD
ENDROOT
BRANCH   9  12
ATOM     12  C   UNL     1       1.766   4.610  20.031  0.00  0.00    +0.000 C 
ATOM     13  F   UNL     1       0.694   3.852  20.354  0.00  0.00    +0.000 F 
ATOM     14  F   UNL     1       2.756   4.262  20.888  0.00  0.00    +0.000 F 
ATOM     15  F   UNL     1       1.406   5.881  20.345  0.00  0.00    +0.000 F 
ENDBRANCH   9  12
BRANCH   9  16
ATOM     16  O   UNL     1       1.106   4.135  17.645  0.00  0.00    +0.000 OA
ATOM     17  H   UNL     1       0.686   3.339  18.022  0.00  0.00    +0.000 HD
ENDBRANCH   9  16
TORSDOF 2
ENDMDL
MODEL 6
REMARK VINA RESULT:      -6.3      1.961      3.327
REMARK  Name = 
REMARK  3 active torsions:
REMARK  status: ('A' for Active; 'I' for Inactive)
REMARK    1  A    between atoms: C_1  and  C_2
REMARK    2  A    between atoms: C_9  and  O_10
REMARK    3  A    between atoms: C_9  and  C_11
REMARK                            x       y       z     vdW  Elec       q    Type
REMARK                         _______ _______ _______ _____ _____    ______ ____
ROOT
ATOM      1  C   UNL     1       4.360   6.894  17.316  0.00  0.00    +0.000 C 
ATOM      2  C   UNL     1       4.704   5.434  17.515  0.00  0.00    +0.000 C 
ATOM      3  C   UNL     1       5.852   5.215  18.458  0.00  0.00    +0.000 C 
ATOM      4  N   UNL     1       5.789   4.146  19.185  0.00  0.00    +0.000 NA
ATOM      5  N   UNL     1       4.569   3.574  18.897  0.00  0.00    +0.000 N 
ATOM      6  C   UNL     1       4.136   2.406  19.495  0.00  0.00    +0.000 C 
ATOM      7  N   UNL     1       5.066   1.806  20.282  0.00  0.00    +0.000 N 
ATOM      8  O   UNL     1       3.035   1.913  19.282  0.00  0.00    +0.000 OA
ATOM      9  C   UNL     1       3.680   4.459  18.128  0.00  0.00    +0.000 C 
ATOM     10  H   UNL     1       5.847   2.385  20.566  0.00  0.00    +0.000 HD
ATOM     11  H   UNL     1       4.782   1.029  20.858  0.00  0.00    +0.000 HD
ENDROOT
BRANCH   9  12
ATOM     12  C   UNL     1       2.561   5.069  19.049  0.00  0.00    +0.000 C 
ATOM     13  F   UNL     1       1.463   4.284  19.135  0.00  0.00    +0.000 F 
ATOM     14  F   UNL     1       2.993   5.264  20.317  0.00  0.00    +0.000 F 
ATOM     15  F   UNL     1       2.102   6.266  18.603  0.00  0.00    +0.000 F 
ENDBRANCH   9  12
BRANCH   9  16
ATOM     16  O   UNL     1       3.160   3.712  17.011  0.00  0.00    +0.000 OA
ATOM     17  H   UNL     1       3.094   2.789  17.321  0.00  0.00    +0.000 HD
ENDBRANCH   9  16
TORSDOF 2
ENDMDL
MODEL 7
REMARK VINA RESULT:      -6.3      2.439      3.458
REMARK  Name = 
REMARK  3 active torsions:
REMARK  status: ('A' for Active; 'I' for Inactive)
REMARK    1  A    between atoms: C_1  and  C_2
REMARK    2  A    between atoms: C_9  and  O_10
REMARK    3  A    between atoms: C_9  and  C_11
REMARK                            x       y       z     vdW  Elec       q    Type
REMARK                         _______ _______ _______ _____ _____    ______ ____
ROOT
ATOM      1  C   UNL     1       2.796   7.062  18.390  0.00  0.00    +0.000 C 
ATOM      2  C   UNL     1       2.977   5.654  17.863  0.00  0.00    +0.000 C 
ATOM      3  C   UNL     1       4.388   5.152  17.979  0.00  0.00    +0.000 C 
ATOM      4  N   UNL     1       4.518   3.885  18.211  0.00  0.00    +0.000 NA
ATOM      5  N   UNL     1       3.238   3.405  18.374  0.00  0.00    +0.000 N 
ATOM      6  C   UNL     1       2.970   2.078  18.649  0.00  0.00    +0.000 C 
ATOM      7  N   UNL     1       4.063   1.272  18.611  0.00  0.00    +0.000 N 
ATOM      8  O   UNL     1       1.840   1.648  18.842  0.00  0.00    +0.000 OA
ATOM      9  C   UNL     1       2.230   4.470  18.508  0.00  0.00    +0.000 C 
ATOM     10  H   UNL     1       4.960   1.737  18.661  0.00  0.00    +0.000 HD
ATOM     11  H   UNL     1       3.972   0.321  18.935  0.00  0.00    +0.000 HD
ENDROOT
BRANCH   9  12
ATOM     12  C   UNL     1       1.775   4.628  20.004  0.00  0.00    +0.000 C 
ATOM     13  F   UNL     1       1.508   5.910  20.342  0.00  0.00    +0.000 F 
ATOM     14  F   UNL     1       0.654   3.918  20.274  0.00  0.00    +0.000 F 
ATOM     15  F   UNL     1       2.719   4.221  20.890  0.00  0.00    +0.000 F 
ENDBRANCH   9  12
BRANCH   9  16
ATOM     16  O   UNL     1       1.146   4.178  17.605  0.00  0.00    +0.000 OA
ATOM     17  H   UNL     1       1.328   4.699  16.799  0.00  0.00    +0.000 HD
ENDBRANCH   9  16
TORSDOF 2
ENDMDL
MODEL 8
REMARK VINA RESULT:      -6.2      1.936      3.238
REMARK  Name = 
REMARK  3 active torsions:
REMARK  status: ('A' for Active; 'I' for Inactive)
REMARK    1  A    between atoms: C_1  and  C_2
REMARK    2  A    between atoms: C_9  and  O_10
REMARK    3  A    between atoms: C_9  and  C_11
REMARK                            x       y       z     vdW  Elec       q    Type
REMARK                         _______ _______ _______ _____ _____    ______ ____
ROOT
ATOM      1  C   UNL     1       4.374   6.964  17.282  0.00  0.00    +0.000 C 
ATOM      2  C   UNL     1       4.781   5.523  17.501  0.00  0.00    +0.000 C 
ATOM      3  C   UNL     1       5.829   5.356  18.563  0.00  0.00    +0.000 C 
ATOM      4  N   UNL     1       5.751   4.273  19.267  0.00  0.00    +0.000 NA
ATOM      5  N   UNL     1       4.607   3.635  18.841  0.00  0.00    +0.000 N 
ATOM      6  C   UNL     1       4.182   2.434  19.374  0.00  0.00    +0.000 C 
ATOM      7  N   UNL     1       5.054   1.877  20.253  0.00  0.00    +0.000 N 
ATOM      8  O   UNL     1       3.142   1.882  19.036  0.00  0.00    +0.000 OA
ATOM      9  C   UNL     1       3.756   4.481  17.988  0.00  0.00    +0.000 C 
ATOM     10  H   UNL     1       5.763   2.494  20.627  0.00  0.00    +0.000 HD
ATOM     11  H   UNL     1       4.755   1.074  20.786  0.00  0.00    +0.000 HD
ENDROOT
BRANCH   9  12
ATOM     12  C   UNL     1       2.508   5.008  18.786  0.00  0.00    +0.000 C 
ATOM     13  F   UNL     1       2.047   6.192  18.323  0.00  0.00    +0.000 F 
ATOM     14  F   UNL     1       1.466   4.144  18.734  0.00  0.00    +0.000 F 
ATOM     15  F   UNL     1       2.773   5.223  20.099  0.00  0.00    +0.000 F 
ENDBRANCH   9  12
BRANCH   9  16
ATOM     16  O   UNL     1       3.408   3.724  16.812  0.00  0.00    +0.000 OA
ATOM     17  H   UNL     1       2.441   3.597  16.858  0.00  0.00    +0.000 HD
ENDBRANCH   9  16
TORSDOF 2
ENDMDL
MODEL 9
REMARK VINA RESULT:      -6.2      2.321      3.366
REMARK  Name = 
REMARK  3 active torsions:
REMARK  status: ('A' for Active; 'I' for Inactive)
REMARK    1  A    between atoms: C_1  and  C_2
REMARK    2  A    between atoms: C_9  and  O_10
REMARK    3  A    between atoms: C_9  and  C_11
REMARK                            x       y       z     vdW  Elec       q    Type
REMARK                         _______ _______ _______ _____ _____    ______ ____
ROOT
ATOM      1  C   UNL     1       2.524   7.415  18.529  0.00  0.00    +0.000 C 
ATOM      2  C   UNL     1       3.034   6.021  18.235  0.00  0.00    +0.000 C 
ATOM      3  C   UNL     1       4.485   5.833  18.576  0.00  0.00    +0.000 C 
ATOM      4  N   UNL     1       4.817   4.657  19.002  0.00  0.00    +0.000 NA
ATOM      5  N   UNL     1       3.638   3.949  19.091  0.00  0.00    +0.000 N 
ATOM      6  C   UNL     1       3.589   2.638  19.524  0.00  0.00    +0.000 C 
ATOM      7  N   UNL     1       4.807   2.073  19.723  0.00  0.00    +0.000 N 
ATOM      8  O   UNL     1       2.543   2.015  19.652  0.00  0.00    +0.000 OA
ATOM      9  C   UNL     1       2.441   4.796  18.958  0.00  0.00    +0.000 C 
ATOM     10  H   UNL     1       5.586   2.713  19.803  0.00  0.00    +0.000 HD
ATOM     11  H   UNL     1       4.853   1.169  20.169  0.00  0.00    +0.000 HD
ENDROOT
BRANCH   9  12
ATOM     12  C   UNL     1       1.765   5.037  20.357  0.00  0.00    +0.000 C 
ATOM     13  F   UNL     1       2.564   4.699  21.394  0.00  0.00    +0.000 F 
ATOM     14  F   UNL     1       1.423   6.334  20.542  0.00  0.00    +0.000 F 
ATOM     15  F   UNL     1       0.635   4.305  20.531  0.00  0.00    +0.000 F 
ENDBRANCH   9  12
BRANCH   9  16
ATOM     16  O   UNL     1       1.563   4.182  17.994  0.00  0.00    +0.000 OA
ATOM     17  H   UNL     1       0.811   4.797  17.896  0.00  0.00    +0.000 HD
ENDBRANCH   9  16
TORSDOF 2
ENDMDL
