MODEL 1
REMARK VINA RESULT:      -8.1      0.000      0.000
REMARK  Name = 
REMARK  4 active torsions:
REMARK  status: ('A' for Active; 'I' for Inactive)
REMARK    1  A    between atoms: N_1  and  S_2
REMARK    2  A    between atoms: S_2  and  C_5
REMARK    3  A    between atoms: C_8  and  N_9
REMARK    4  A    between atoms: C_13  and  C_14
REMARK                            x       y       z     vdW  Elec       q    Type
REMARK                         _______ _______ _______ _____ _____    ______ ____
ROOT
ATOM      1  N   UNL     1       2.044   6.185  19.005  0.00  0.00    +0.000 N 
ATOM      2  N   UNL     1       1.691   5.334  20.035  0.00  0.00    +0.000 NA
ATOM      3  C   UNL     1       1.777   4.155  19.404  0.00  0.00    +0.000 A 
ATOM      4  C   UNL     1       1.955   4.308  17.989  0.00  0.00    +0.000 A 
ATOM      5  C   UNL     1       2.800   5.429  18.084  0.00  0.00    +0.000 A 
ATOM      6  C   UNL     1       2.068   2.960  17.330  0.00  0.00    +0.000 C 
ATOM      7  C   UNL     1       2.720   2.251  18.511  0.00  0.00    +0.000 A 
ATOM      8  C   UNL     1       3.760   1.340  18.362  0.00  0.00    +0.000 A 
ATOM      9  C   UNL     1       4.657   1.208  19.420  0.00  0.00    +0.000 A 
ATOM     10  C   UNL     1       4.460   1.911  20.624  0.00  0.00    +0.000 A 
ATOM     11  C   UNL     1       3.349   2.751  20.810  0.00  0.00    +0.000 A 
ATOM     12  C   UNL     1       2.478   2.921  19.747  0.00  0.00    +0.000 A 
ENDROOT
BRANCH   1  16
ATOM     13  C   UNL     1       1.200  10.228  19.126  0.00  0.00    +0.000 A 
ATOM     14  C   UNL     1       1.851   9.719  17.998  0.00  0.00    +0.000 A 
ATOM     15  C   UNL     1       2.306   8.387  17.999  0.00  0.00    +0.000 A 
ATOM     16  C   UNL     1       2.070   7.602  19.123  0.00  0.00    +0.000 A 
ATOM     17  C   UNL     1       1.605   8.179  20.319  0.00  0.00    +0.000 A 
ATOM     18  C   UNL     1       1.129   9.492  20.309  0.00  0.00    +0.000 A 
BRANCH  13  19
ATOM     19  S   UNL     1       0.292  11.737  18.991  0.00  0.00    +0.000 S 
ATOM     20  O   UNL     1       1.146  12.755  18.428  0.00  0.00    +0.000 OA
ATOM     21  O   UNL     1      -0.480  11.942  20.194  0.00  0.00    +0.000 OA
BRANCH  19  22
ATOM     22  N   UNL     1      -0.846  11.356  17.803  0.00  0.00    +0.000 NA
ATOM     23  H   UNL     1      -1.690  11.910  17.934  0.00  0.00    +0.000 HD
ATOM     24  H   UNL     1      -1.007  10.345  17.775  0.00  0.00    +0.000 HD
ENDBRANCH  19  22
ENDBRANCH  13  19
ENDBRANCH   1  16
BRANCH   5  25
ATOM     25  C   UNL     1       4.282   5.453  18.131  0.00  0.00    +0.000 A 
ATOM     26  C   UNL     1       5.104   5.243  19.226  0.00  0.00    +0.000 A 
ATOM     27  C   UNL     1       6.442   5.719  19.038  0.00  0.00    +0.000 A 
ATOM     28  C   UNL     1       6.655   6.163  17.758  0.00  0.00    +0.000 A 
ATOM     29  S   UNL     1       5.242   6.074  16.827  0.00  0.00    +0.000 S 
ENDBRANCH   5  25
TORSDOF 4
ENDMDL
MODEL 2
REMARK VINA RESULT:      -8.0      2.135      4.152
REMARK  Name = 
REMARK  4 active torsions:
REMARK  status: ('A' for Active; 'I' for Inactive)
REMARK    1  A    between atoms: N_1  and  S_2
REMARK    2  A    between atoms: S_2  and  C_5
REMARK    3  A    between atoms: C_8  and  N_9
REMARK    4  A    between atoms: C_13  and  C_14
REMARK                            x       y       z     vdW  Elec       q    Type
REMARK                         _______ _______ _______ _____ _____    ______ ____
ROOT
ATOM      1  N   UNL     1       3.565   7.238  18.432  0.00  0.00    +0.000 N 
ATOM      2  N   UNL     1       4.113   7.696  17.250  0.00  0.00    +0.000 NA
ATOM      3  C   UNL     1       5.240   6.972  17.218  0.00  0.00    +0.000 A 
ATOM      4  C   UNL     1       5.469   6.270  18.448  0.00  0.00    +0.000 A 
ATOM      5  C   UNL     1       4.116   5.962  18.677  0.00  0.00    +0.000 A 
ATOM      6  C   UNL     1       6.731   5.455  18.354  0.00  0.00    +0.000 C 
ATOM      7  C   UNL     1       6.638   5.175  16.859  0.00  0.00    +0.000 A 
ATOM      8  C   UNL     1       6.942   3.937  16.304  0.00  0.00    +0.000 A 
ATOM      9  C   UNL     1       6.297   3.585  15.121  0.00  0.00    +0.000 A 
ATOM     10  C   UNL     1       5.436   4.493  14.472  0.00  0.00    +0.000 A 
ATOM     11  C   UNL     1       5.213   5.783  14.980  0.00  0.00    +0.000 A 
ATOM     12  C   UNL     1       5.817   6.123  16.180  0.00  0.00    +0.000 A 
ENDROOT
BRANCH   1  16
ATOM     13  C   UNL     1       0.584   9.370  20.340  0.00  0.00    +0.000 A 
ATOM     14  C   UNL     1       1.109   8.243  20.981  0.00  0.00    +0.000 A 
ATOM     15  C   UNL     1       1.997   7.399  20.289  0.00  0.00    +0.000 A 
ATOM     16  C   UNL     1       2.349   7.728  18.983  0.00  0.00    +0.000 A 
ATOM     17  C   UNL     1       1.661   8.736  18.285  0.00  0.00    +0.000 A 
ATOM     18  C   UNL     1       0.801   9.589  18.980  0.00  0.00    +0.000 A 
BRANCH  13  19
ATOM     19  S   UNL     1      -0.199  10.624  21.306  0.00  0.00    +0.000 S 
ATOM     20  O   UNL     1      -0.445  10.116  22.633  0.00  0.00    +0.000 OA
ATOM     21  O   UNL     1      -1.219  11.271  20.514  0.00  0.00    +0.000 OA
BRANCH  19  22
ATOM     22  N   UNL     1       1.031  11.772  21.453  0.00  0.00    +0.000 NA
ATOM     23  H   UNL     1       1.246  12.176  20.543  0.00  0.00    +0.000 HD
ATOM     24  H   UNL     1       1.839  11.369  21.935  0.00  0.00    +0.000 HD
ENDBRANCH  19  22
ENDBRANCH  13  19
ENDBRANCH   1  16
BRANCH   5  25
ATOM     25  C   UNL     1       3.379   4.738  18.280  0.00  0.00    +0.000 A 
ATOM     26  C   UNL     1       2.097   4.645  17.761  0.00  0.00    +0.000 A 
ATOM     27  C   UNL     1       1.535   3.332  17.855  0.00  0.00    +0.000 A 
ATOM     28  C   UNL     1       2.442   2.415  18.322  0.00  0.00    +0.000 A 
ATOM     29  S   UNL     1       3.920   3.147  18.708  0.00  0.00    +0.000 S 
ENDBRANCH   5  25
TORSDOF 4
ENDMDL
MODEL 3
REMARK VINA RESULT:      -7.7      2.421      4.255
REMARK  Name = 
REMARK  4 active torsions:
REMARK  status: ('A' for Active; 'I' for Inactive)
REMARK    1  A    between atoms: N_1  and  S_2
REMARK    2  A    between atoms: S_2  and  C_5
REMARK    3  A    between atoms: C_8  and  N_9
REMARK    4  A    between atoms: C_13  and  C_14
REMARK                            x       y       z     vdW  Elec       q    Type
REMARK                         _______ _______ _______ _____ _____    ______ ____
ROOT
ATOM      1  N   UNL     1       3.665   7.053  18.487  0.00  0.00    +0.000 N 
ATOM      2  N   UNL     1       4.004   7.495  17.223  0.00  0.00    +0.000 NA
ATOM      3  C   UNL     1       5.203   6.913  17.085  0.00  0.00    +0.000 A 
ATOM      4  C   UNL     1       5.667   6.327  18.309  0.00  0.00    +0.000 A 
ATOM      5  C   UNL     1       4.402   5.873  18.724  0.00  0.00    +0.000 A 
ATOM      6  C   UNL     1       7.003   5.668  18.097  0.00  0.00    +0.000 C 
ATOM      7  C   UNL     1       6.768   5.280  16.642  0.00  0.00    +0.000 A 
ATOM      8  C   UNL     1       7.161   4.054  16.116  0.00  0.00    +0.000 A 
ATOM      9  C   UNL     1       6.429   3.549  15.044  0.00  0.00    +0.000 A 
ATOM     10  C   UNL     1       5.387   4.300  14.465  0.00  0.00    +0.000 A 
ATOM     11  C   UNL     1       5.062   5.584  14.931  0.00  0.00    +0.000 A 
ATOM     12  C   UNL     1       5.756   6.074  16.026  0.00  0.00    +0.000 A 
ENDROOT
BRANCH   1  16
ATOM     13  C   UNL     1       0.781   8.693  20.949  0.00  0.00    +0.000 A 
ATOM     14  C   UNL     1       1.237   7.401  21.229  0.00  0.00    +0.000 A 
ATOM     15  C   UNL     1       2.086   6.750  20.316  0.00  0.00    +0.000 A 
ATOM     16  C   UNL     1       2.471   7.426  19.163  0.00  0.00    +0.000 A 
ATOM     17  C   UNL     1       1.847   8.632  18.794  0.00  0.00    +0.000 A 
ATOM     18  C   UNL     1       1.026   9.289  19.712  0.00  0.00    +0.000 A 
BRANCH  13  19
ATOM     19  S   UNL     1       0.056   9.652  22.243  0.00  0.00    +0.000 S 
ATOM     20  O   UNL     1      -0.662  10.762  21.665  0.00  0.00    +0.000 OA
ATOM     21  O   UNL     1       1.011   9.811  23.315  0.00  0.00    +0.000 OA
BRANCH  19  22
ATOM     22  N   UNL     1      -1.110   8.593  22.853  0.00  0.00    +0.000 NA
ATOM     23  H   UNL     1      -0.884   7.634  22.594  0.00  0.00    +0.000 HD
ATOM     24  H   UNL     1      -2.047   8.895  22.572  0.00  0.00    +0.000 HD
ENDBRANCH  19  22
ENDBRANCH  13  19
ENDBRANCH   1  16
BRANCH   5  25
ATOM     25  C   UNL     1       3.787   4.544  18.487  0.00  0.00    +0.000 A 
ATOM     26  C   UNL     1       4.343   3.295  18.709  0.00  0.00    +0.000 A 
ATOM     27  C   UNL     1       3.667   2.236  18.021  0.00  0.00    +0.000 A 
ATOM     28  C   UNL     1       2.528   2.674  17.394  0.00  0.00    +0.000 A 
ATOM     29  S   UNL     1       2.326   4.347  17.573  0.00  0.00    +0.000 S 
ENDBRANCH   5  25
TORSDOF 4
ENDMDL
MODEL 4
REMARK VINA RESULT:      -7.7      0.981      1.243
REMARK  Name = 
REMARK  4 active torsions:
REMARK  status: ('A' for Active; 'I' for Inactive)
REMARK    1  A    between atoms: N_1  and  S_2
REMARK    2  A    between atoms: S_2  and  C_5
REMARK    3  A    between atoms: C_8  and  N_9
REMARK    4  A    between atoms: C_13  and  C_14
REMARK                            x       y       z     vdW  Elec       q    Type
REMARK                         _______ _______ _______ _____ _____    ______ ____
ROOT
ATOM      1  N   UNL     1       1.963   6.162  19.155  0.00  0.00    +0.000 N 
ATOM      2  N   UNL     1       1.801   5.353  20.263  0.00  0.00    +0.000 NA
ATOM      3  C   UNL     1       1.761   4.151  19.672  0.00  0.00    +0.000 A 
ATOM      4  C   UNL     1       1.675   4.251  18.244  0.00  0.00    +0.000 A 
ATOM      5  C   UNL     1       2.530   5.363  18.139  0.00  0.00    +0.000 A 
ATOM      6  C   UNL     1       1.655   2.878  17.626  0.00  0.00    +0.000 C 
ATOM      7  C   UNL     1       2.510   2.204  18.692  0.00  0.00    +0.000 A 
ATOM      8  C   UNL     1       3.498   1.274  18.387  0.00  0.00    +0.000 A 
ATOM      9  C   UNL     1       4.575   1.168  19.265  0.00  0.00    +0.000 A 
ATOM     10  C   UNL     1       4.609   1.916  20.458  0.00  0.00    +0.000 A 
ATOM     11  C   UNL     1       3.558   2.777  20.815  0.00  0.00    +0.000 A 
ATOM     12  C   UNL     1       2.505   2.921  19.925  0.00  0.00    +0.000 A 
ENDROOT
BRANCH   1  16
ATOM     13  C   UNL     1       1.202  10.223  19.123  0.00  0.00    +0.000 A 
ATOM     14  C   UNL     1       1.820   9.653  18.005  0.00  0.00    +0.000 A 
ATOM     15  C   UNL     1       2.248   8.314  18.053  0.00  0.00    +0.000 A 
ATOM     16  C   UNL     1       2.019   7.581  19.213  0.00  0.00    +0.000 A 
ATOM     17  C   UNL     1       1.589   8.216  20.392  0.00  0.00    +0.000 A 
ATOM     18  C   UNL     1       1.140   9.537  20.336  0.00  0.00    +0.000 A 
BRANCH  13  19
ATOM     19  S   UNL     1       0.321  11.743  18.942  0.00  0.00    +0.000 S 
ATOM     20  O   UNL     1      -0.971  11.475  18.358  0.00  0.00    +0.000 OA
ATOM     21  O   UNL     1       1.215  12.756  18.431  0.00  0.00    +0.000 OA
BRANCH  19  22
ATOM     22  N   UNL     1       0.040  12.179  20.549  0.00  0.00    +0.000 NA
ATOM     23  H   UNL     1       0.853  12.662  20.929  0.00  0.00    +0.000 HD
ATOM     24  H   UNL     1      -0.258  11.365  21.092  0.00  0.00    +0.000 HD
ENDBRANCH  19  22
ENDBRANCH  13  19
ENDBRANCH   1  16
BRANCH   5  25
ATOM     25  C   UNL     1       3.995   5.370  17.909  0.00  0.00    +0.000 A 
ATOM     26  C   UNL     1       4.683   4.958  16.780  0.00  0.00    +0.000 A 
ATOM     27  C   UNL     1       6.075   4.718  17.013  0.00  0.00    +0.000 A 
ATOM     28  C   UNL     1       6.455   5.078  18.281  0.00  0.00    +0.000 A 
ATOM     29  S   UNL     1       5.135   5.624  19.192  0.00  0.00    +0.000 S 
ENDBRANCH   5  25
TORSDOF 4
ENDMDL
MODEL 5
REMARK VINA RESULT:      -7.5      1.391      1.526
REMARK  Name = 
REMARK  4 active torsions:
REMARK  status: ('A' for Active; 'I' for Inactive)
REMARK    1  A    between atoms: N_1  and  S_2
REMARK    2  A    between atoms: S_2  and  C_5
REMARK    3  A    between atoms: C_8  and  N_9
REMARK    4  A    between atoms: C_13  and  C_14
REMARK                            x       y       z     vdW  Elec       q    Type
REMARK                         _______ _______ _______ _____ _____    ______ ____
ROOT
ATOM      1  N   UNL     1       1.803   6.182  19.789  0.00  0.00    +0.000 N 
ATOM      2  N   UNL     1       1.639   5.176  20.721  0.00  0.00    +0.000 NA
ATOM      3  C   UNL     1       1.618   4.108  19.911  0.00  0.00    +0.000 A 
ATOM      4  C   UNL     1       1.545   4.478  18.527  0.00  0.00    +0.000 A 
ATOM      5  C   UNL     1       2.388   5.597  18.646  0.00  0.00    +0.000 A 
ATOM      6  C   UNL     1       1.546   3.248  17.659  0.00  0.00    +0.000 C 
ATOM      7  C   UNL     1       2.399   2.390  18.588  0.00  0.00    +0.000 A 
ATOM      8  C   UNL     1       3.401   1.544  18.123  0.00  0.00    +0.000 A 
ATOM      9  C   UNL     1       4.470   1.283  18.977  0.00  0.00    +0.000 A 
ATOM     10  C   UNL     1       4.484   1.791  20.290  0.00  0.00    +0.000 A 
ATOM     11  C   UNL     1       3.420   2.558  20.792  0.00  0.00    +0.000 A 
ATOM     12  C   UNL     1       2.374   2.859  19.934  0.00  0.00    +0.000 A 
ENDROOT
BRANCH   1  16
ATOM     13  C   UNL     1       0.980  10.095  20.833  0.00  0.00    +0.000 A 
ATOM     14  C   UNL     1       1.213   9.801  19.485  0.00  0.00    +0.000 A 
ATOM     15  C   UNL     1       1.664   8.520  19.120  0.00  0.00    +0.000 A 
ATOM     16  C   UNL     1       1.842   7.565  20.116  0.00  0.00    +0.000 A 
ATOM     17  C   UNL     1       1.806   7.929  21.474  0.00  0.00    +0.000 A 
ATOM     18  C   UNL     1       1.333   9.192  21.836  0.00  0.00    +0.000 A 
BRANCH  13  19
ATOM     19  S   UNL     1       0.054  11.538  21.254  0.00  0.00    +0.000 S 
ATOM     20  O   UNL     1      -1.139  11.588  20.444  0.00  0.00    +0.000 OA
ATOM     21  O   UNL     1       0.953  12.661  21.392  0.00  0.00    +0.000 OA
BRANCH  19  22
ATOM     22  N   UNL     1      -0.449  11.186  22.827  0.00  0.00    +0.000 NA
ATOM     23  H   UNL     1       0.224  11.548  23.501  0.00  0.00    +0.000 HD
ATOM     24  H   UNL     1      -0.643  10.185  22.924  0.00  0.00    +0.000 HD
ENDBRANCH  19  22
ENDBRANCH  13  19
ENDBRANCH   1  16
BRANCH   5  25
ATOM     25  C   UNL     1       3.855   5.661  18.439  0.00  0.00    +0.000 A 
ATOM     26  C   UNL     1       4.858   5.304  19.326  0.00  0.00    +0.000 A 
ATOM     27  C   UNL     1       6.140   5.846  18.990  0.00  0.00    +0.000 A 
ATOM     28  C   UNL     1       6.124   6.496  17.782  0.00  0.00    +0.000 A 
ATOM     29  S   UNL     1       4.570   6.512  17.107  0.00  0.00    +0.000 S 
ENDBRANCH   5  25
TORSDOF 4
ENDMDL
MODEL 6
REMARK VINA RESULT:      -7.0      2.001      3.423
REMARK  Name = 
REMARK  4 active torsions:
REMARK  status: ('A' for Active; 'I' for Inactive)
REMARK    1  A    between atoms: N_1  and  S_2
REMARK    2  A    between atoms: S_2  and  C_5
REMARK    3  A    between atoms: C_8  and  N_9
REMARK    4  A    between atoms: C_13  and  C_14
REMARK                            x       y       z     vdW  Elec       q    Type
REMARK                         _______ _______ _______ _____ _____    ______ ____
ROOT
ATOM      1  N   UNL     1       2.568   6.947  19.123  0.00  0.00    +0.000 N 
ATOM      2  N   UNL     1       2.657   6.518  17.813  0.00  0.00    +0.000 NA
ATOM      3  C   UNL     1       3.673   5.651  17.920  0.00  0.00    +0.000 A 
ATOM      4  C   UNL     1       4.319   5.725  19.198  0.00  0.00    +0.000 A 
ATOM      5  C   UNL     1       3.136   5.937  19.929  0.00  0.00    +0.000 A 
ATOM      6  C   UNL     1       5.436   4.719  19.276  0.00  0.00    +0.000 C 
ATOM      7  C   UNL     1       4.794   3.685  18.359  0.00  0.00    +0.000 A 
ATOM      8  C   UNL     1       4.840   2.319  18.615  0.00  0.00    +0.000 A 
ATOM      9  C   UNL     1       3.796   1.537  18.126  0.00  0.00    +0.000 A 
ATOM     10  C   UNL     1       2.783   2.104  17.329  0.00  0.00    +0.000 A 
ATOM     11  C   UNL     1       2.796   3.465  16.983  0.00  0.00    +0.000 A 
ATOM     12  C   UNL     1       3.807   4.258  17.503  0.00  0.00    +0.000 A 
ENDROOT
BRANCH   1  16
ATOM     13  C   UNL     1       0.688  10.365  20.486  0.00  0.00    +0.000 A 
ATOM     14  C   UNL     1       0.927   9.329  21.396  0.00  0.00    +0.000 A 
ATOM     15  C   UNL     1       1.405   8.091  20.932  0.00  0.00    +0.000 A 
ATOM     16  C   UNL     1       1.653   7.939  19.571  0.00  0.00    +0.000 A 
ATOM     17  C   UNL     1       1.217   8.906  18.648  0.00  0.00    +0.000 A 
ATOM     18  C   UNL     1       0.767  10.145  19.111  0.00  0.00    +0.000 A 
BRANCH  13  19
ATOM     19  S   UNL     1       0.474  12.011  21.089  0.00  0.00    +0.000 S 
ATOM     20  O   UNL     1      -0.532  12.678  20.297  0.00  0.00    +0.000 OA
ATOM     21  O   UNL     1       1.767  12.593  21.362  0.00  0.00    +0.000 OA
BRANCH  19  22
ATOM     22  N   UNL     1      -0.212  11.742  22.609  0.00  0.00    +0.000 NA
ATOM     23  H   UNL     1       0.221  10.934  23.052  0.00  0.00    +0.000 HD
ATOM     24  H   UNL     1      -1.232  11.684  22.534  0.00  0.00    +0.000 HD
ENDBRANCH  19  22
ENDBRANCH  13  19
ENDBRANCH   1  16
BRANCH   5  25
ATOM     25  C   UNL     1       2.272   4.924  20.582  0.00  0.00    +0.000 A 
ATOM     26  C   UNL     1       2.562   4.139  21.686  0.00  0.00    +0.000 A 
ATOM     27  C   UNL     1       1.701   3.004  21.824  0.00  0.00    +0.000 A 
ATOM     28  C   UNL     1       0.685   3.012  20.903  0.00  0.00    +0.000 A 
ATOM     29  S   UNL     1       0.818   4.330  19.846  0.00  0.00    +0.000 S 
ENDBRANCH   5  25
TORSDOF 4
ENDMDL
MODEL 7
REMARK VINA RESULT:      -6.9      3.883      8.604
REMARK  Name = 
REMARK  4 active torsions:
REMARK  status: ('A' for Active; 'I' for Inactive)
REMARK    1  A    between atoms: N_1  and  S_2
REMARK    2  A    between atoms: S_2  and  C_5
REMARK    3  A    between atoms: C_8  and  N_9
REMARK    4  A    between atoms: C_13  and  C_14
REMARK                            x       y       z     vdW  Elec       q    Type
REMARK                         _______ _______ _______ _____ _____    ______ ____
ROOT
ATOM      1  N   UNL     1       1.092  10.002  20.275  0.00  0.00    +0.000 N 
ATOM      2  N   UNL     1       0.765   9.989  21.617  0.00  0.00    +0.000 NA
ATOM      3  C   UNL     1       0.565  11.298  21.821  0.00  0.00    +0.000 A 
ATOM      4  C   UNL     1       0.976  12.092  20.700  0.00  0.00    +0.000 A 
ATOM      5  C   UNL     1       0.539  11.178  19.725  0.00  0.00    +0.000 A 
ATOM      6  C   UNL     1       0.711  13.549  20.969  0.00  0.00    +0.000 C 
ATOM      7  C   UNL     1      -0.513  13.335  21.852  0.00  0.00    +0.000 A 
ATOM      8  C   UNL     1      -1.648  14.135  21.773  0.00  0.00    +0.000 A 
ATOM      9  C   UNL     1      -2.866  13.560  22.129  0.00  0.00    +0.000 A 
ATOM     10  C   UNL     1      -2.924  12.246  22.632  0.00  0.00    +0.000 A 
ATOM     11  C   UNL     1      -1.762  11.477  22.811  0.00  0.00    +0.000 A 
ATOM     12  C   UNL     1      -0.552  12.026  22.416  0.00  0.00    +0.000 A 
ENDROOT
BRANCH   1  16
ATOM     13  C   UNL     1       3.024   6.853  18.424  0.00  0.00    +0.000 A 
ATOM     14  C   UNL     1       2.648   7.952  17.645  0.00  0.00    +0.000 A 
ATOM     15  C   UNL     1       1.840   8.958  18.205  0.00  0.00    +0.000 A 
ATOM     16  C   UNL     1       1.456   8.841  19.538  0.00  0.00    +0.000 A 
ATOM     17  C   UNL     1       1.664   7.643  20.244  0.00  0.00    +0.000 A 
ATOM     18  C   UNL     1       2.488   6.657  19.697  0.00  0.00    +0.000 A 
BRANCH  13  19
ATOM     19  S   UNL     1       4.336   5.809  17.868  0.00  0.00    +0.000 S 
ATOM     20  O   UNL     1       5.343   6.618  17.223  0.00  0.00    +0.000 OA
ATOM     21  O   UNL     1       3.780   4.622  17.261  0.00  0.00    +0.000 OA
BRANCH  19  22
ATOM     22  N   UNL     1       5.006   5.281  19.325  0.00  0.00    +0.000 NA
ATOM     23  H   UNL     1       5.958   4.951  19.175  0.00  0.00    +0.000 HD
ATOM     24  H   UNL     1       4.390   4.597  19.773  0.00  0.00    +0.000 HD
ENDBRANCH  19  22
ENDBRANCH  13  19
ENDBRANCH   1  16
BRANCH   5  25
ATOM     25  C   UNL     1      -0.773  11.137  19.034  0.00  0.00    +0.000 A 
ATOM     26  C   UNL     1      -1.622  10.053  18.880  0.00  0.00    +0.000 A 
ATOM     27  C   UNL     1      -2.597  10.232  17.846  0.00  0.00    +0.000 A 
ATOM     28  C   UNL     1      -2.563  11.498  17.320  0.00  0.00    +0.000 A 
ATOM     29  S   UNL     1      -1.326  12.425  18.012  0.00  0.00    +0.000 S 
ENDBRANCH   5  25
TORSDOF 4
ENDMDL
MODEL 8
REMARK VINA RESULT:      -6.7      9.307     11.821
REMARK  Name = 
REMARK  4 active torsions:
REMARK  status: ('A' for Active; 'I' for Inactive)
REMARK    1  A    between atoms: N_1  and  S_2
REMARK    2  A    between atoms: S_2  and  C_5
REMARK    3  A    between atoms: C_8  and  N_9
REMARK    4  A    between atoms: C_13  and  C_14
REMARK                            x       y       z     vdW  Elec       q    Type
REMARK                         _______ _______ _______ _____ _____    ______ ____
ROOT
ATOM      1  N   UNL     1       8.958  14.289  21.651  0.00  0.00    +0.000 N 
ATOM      2  N   UNL     1       8.463  15.372  20.951  0.00  0.00    +0.000 NA
ATOM      3  C   UNL     1       9.611  15.961  20.590  0.00  0.00    +0.000 A 
ATOM      4  C   UNL     1      10.749  15.378  21.240  0.00  0.00    +0.000 A 
ATOM      5  C   UNL     1      10.269  14.057  21.184  0.00  0.00    +0.000 A 
ATOM      6  C   UNL     1      12.013  16.057  20.786  0.00  0.00    +0.000 C 
ATOM      7  C   UNL     1      11.526  16.393  19.381  0.00  0.00    +0.000 A 
ATOM      8  C   UNL     1      12.331  16.268  18.254  0.00  0.00    +0.000 A 
ATOM      9  C   UNL     1      11.702  16.010  17.038  0.00  0.00    +0.000 A 
ATOM     10  C   UNL     1      10.297  15.967  16.949  0.00  0.00    +0.000 A 
ATOM     11  C   UNL     1       9.482  16.200  18.070  0.00  0.00    +0.000 A 
ATOM     12  C   UNL     1      10.103  16.412  19.291  0.00  0.00    +0.000 A 
ENDROOT
BRANCH   1  16
ATOM     13  C   UNL     1       6.612  12.130  24.280  0.00  0.00    +0.000 A 
ATOM     14  C   UNL     1       7.947  11.748  24.113  0.00  0.00    +0.000 A 
ATOM     15  C   UNL     1       8.722  12.348  23.104  0.00  0.00    +0.000 A 
ATOM     16  C   UNL     1       8.138  13.331  22.310  0.00  0.00    +0.000 A 
ATOM     17  C   UNL     1       6.751  13.557  22.349  0.00  0.00    +0.000 A 
ATOM     18  C   UNL     1       5.989  12.982  23.368  0.00  0.00    +0.000 A 
BRANCH  13  19
ATOM     19  S   UNL     1       5.766  11.685  25.765  0.00  0.00    +0.000 S 
ATOM     20  O   UNL     1       4.840  12.735  26.116  0.00  0.00    +0.000 OA
ATOM     21  O   UNL     1       6.710  11.128  26.706  0.00  0.00    +0.000 OA
BRANCH  19  22
ATOM     22  N   UNL     1       4.832  10.372  25.256  0.00  0.00    +0.000 NA
ATOM     23  H   UNL     1       4.647   9.748  26.040  0.00  0.00    +0.000 HD
ATOM     24  H   UNL     1       5.267   9.917  24.449  0.00  0.00    +0.000 HD
ENDBRANCH  19  22
ENDBRANCH  13  19
ENDBRANCH   1  16
BRANCH   5  25
ATOM     25  C   UNL     1      10.522  13.038  20.137  0.00  0.00    +0.000 A 
ATOM     26  C   UNL     1      11.741  12.526  19.722  0.00  0.00    +0.000 A 
ATOM     27  C   UNL     1      11.685  11.870  18.450  0.00  0.00    +0.000 A 
ATOM     28  C   UNL     1      10.401  11.776  17.976  0.00  0.00    +0.000 A 
ATOM     29  S   UNL     1       9.298  12.531  19.017  0.00  0.00    +0.000 S 
ENDBRANCH   5  25
TORSDOF 4
ENDMDL
MODEL 9
REMARK VINA RESULT:      -6.6      9.036     10.348
REMARK  Name = 
REMARK  4 active torsions:
REMARK  status: ('A' for Active; 'I' for Inactive)
REMARK    1  A    between atoms: N_1  and  S_2
REMARK    2  A    between atoms: S_2  and  C_5
REMARK    3  A    between atoms: C_8  and  N_9
REMARK    4  A    between atoms: C_13  and  C_14
REMARK                            x       y       z     vdW  Elec       q    Type
REMARK                         _______ _______ _______ _____ _____    ______ ____
ROOT
ATOM      1  N   UNL     1       7.283  14.800  18.521  0.00  0.00    +0.000 N 
ATOM      2  N   UNL     1       7.630  13.731  17.718  0.00  0.00    +0.000 NA
ATOM      3  C   UNL     1       8.960  13.886  17.684  0.00  0.00    +0.000 A 
ATOM      4  C   UNL     1       9.377  15.132  18.259  0.00  0.00    +0.000 A 
ATOM      5  C   UNL     1       8.420  15.127  19.290  0.00  0.00    +0.000 A 
ATOM      6  C   UNL     1      10.877  15.249  18.218  0.00  0.00    +0.000 C 
ATOM      7  C   UNL     1      11.163  13.758  18.349  0.00  0.00    +0.000 A 
ATOM      8  C   UNL     1      12.188  13.255  19.144  0.00  0.00    +0.000 A 
ATOM      9  C   UNL     1      12.023  11.977  19.674  0.00  0.00    +0.000 A 
ATOM     10  C   UNL     1      10.898  11.198  19.340  0.00  0.00    +0.000 A 
ATOM     11  C   UNL     1       9.917  11.668  18.452  0.00  0.00    +0.000 A 
ATOM     12  C   UNL     1      10.051  12.955  17.957  0.00  0.00    +0.000 A 
ENDROOT
BRANCH   1  16
ATOM     13  C   UNL     1       3.418  16.256  18.655  0.00  0.00    +0.000 A 
ATOM     14  C   UNL     1       4.394  16.890  19.430  0.00  0.00    +0.000 A 
ATOM     15  C   UNL     1       5.675  16.318  19.542  0.00  0.00    +0.000 A 
ATOM     16  C   UNL     1       5.942  15.140  18.851  0.00  0.00    +0.000 A 
ATOM     17  C   UNL     1       4.903  14.408  18.249  0.00  0.00    +0.000 A 
ATOM     18  C   UNL     1       3.640  14.989  18.116  0.00  0.00    +0.000 A 
BRANCH  13  19
ATOM     19  S   UNL     1       1.967  17.150  18.194  0.00  0.00    +0.000 S 
ATOM     20  O   UNL     1       0.808  16.317  18.409  0.00  0.00    +0.000 OA
ATOM     21  O   UNL     1       2.208  17.848  16.952  0.00  0.00    +0.000 OA
BRANCH  19  22
ATOM     22  N   UNL     1       1.912  18.361  19.371  0.00  0.00    +0.000 NA
ATOM     23  H   UNL     1       0.960  18.473  19.715  0.00  0.00    +0.000 HD
ATOM     24  H   UNL     1       2.335  19.223  19.015  0.00  0.00    +0.000 HD
ENDBRANCH  19  22
ENDBRANCH  13  19
ENDBRANCH   1  16
BRANCH   5  25
ATOM     25  C   UNL     1       8.568  14.603  20.670  0.00  0.00    +0.000 A 
ATOM     26  C   UNL     1       8.339  13.314  21.122  0.00  0.00    +0.000 A 
ATOM     27  C   UNL     1       8.186  13.223  22.543  0.00  0.00    +0.000 A 
ATOM     28  C   UNL     1       8.433  14.420  23.164  0.00  0.00    +0.000 A 
ATOM     29  S   UNL     1       8.768  15.645  22.042  0.00  0.00    +0.000 S 
ENDBRANCH   5  25
TORSDOF 4
ENDMDL
