MODEL 1
REMARK VINA RESULT:      -6.9      0.000      0.000
REMARK  Name = 
REMARK  13 active torsions:
REMARK  status: ('A' for Active; 'I' for Inactive)
REMARK    1  A    between atoms: C_1  and  C_2
REMARK    2  A    between atoms: C_2  and  C_3
REMARK    3  A    between atoms: C_2  and  C_4
REMARK    4  A    between atoms: C_2  and  C_5
REMARK    5  A    between atoms: C_6  and  C_7
REMARK    6  A    between atoms: C_9  and  N_10
REMARK    7  A    between atoms: C_13  and  C_14
REMARK    8  A    between atoms: C_14  and  C_15
REMARK    9  A    between atoms: C_15  and  C_16
REMARK   10  A    between atoms: C_16  and  O_17
REMARK   11  A    between atoms: C_20  and  C_21
REMARK   12  A    between atoms: C_27  and  C_28
REMARK   13  A    between atoms: C_28  and  O_30
REMARK                            x       y       z     vdW  Elec       q    Type
REMARK                         _______ _______ _______ _____ _____    ______ ____
ROOT
ATOM      1  N   UNL     1       0.097  10.771  18.492  0.00  0.00    +0.000 N 
ATOM      2  C   UNL     1       0.838  11.976  18.557  0.00  0.00    +0.000 C 
ATOM      3  O   UNL     1       2.070  12.001  18.645  0.00  0.00    +0.000 OA
ATOM      4  C   UNL     1       0.015  13.275  18.534  0.00  0.00    +0.000 C 
ATOM      5  O   UNL     1      -1.195  13.106  19.285  0.00  0.00    +0.000 OA
ATOM      6  C   UNL     1      -2.042  12.172  18.631  0.00  0.00    +0.000 C 
ATOM      7  C   UNL     1      -1.417  10.765  18.609  0.00  0.00    +0.000 C 
ENDROOT
BRANCH   7   8
ATOM      8  C   UNL     1      -2.104   9.840  17.523  0.00  0.00    +0.000 C 
ATOM      9  C   UNL     1      -3.519   9.384  17.929  0.00  0.00    +0.000 C 
ATOM     10  C   UNL     1      -4.489  10.564  17.982  0.00  0.00    +0.000 C 
ATOM     11  C   UNL     1      -4.626  11.223  16.616  0.00  0.00    +0.000 C 
ATOM     12  C   UNL     1      -3.278  11.555  15.976  0.00  0.00    +0.000 C 
ATOM     13  C   UNL     1      -2.253  10.423  16.090  0.00  0.00    +0.000 C 
ENDBRANCH   7   8
BRANCH   1  16
ATOM     14  C   UNL     1       2.075   7.687  18.815  0.00  0.00    +0.000 A 
ATOM     15  C   UNL     1       1.505   8.726  18.130  0.00  0.00    +0.000 A 
ATOM     16  C   UNL     1       0.837   9.661  18.999  0.00  0.00    +0.000 A 
ATOM     17  C   UNL     1       0.876   9.214  20.320  0.00  0.00    +0.000 A 
ATOM     18  S   UNL     1       1.982   7.904  20.489  0.00  0.00    +0.000 S 
BRANCH  14  20
ATOM     19  C   UNL     1       3.127   5.462  17.933  0.00  0.00    +0.000 C 
ATOM     20  C   UNL     1       2.644   6.517  18.261  0.00  0.00    +0.000 C 
BRANCH  19  22
ATOM     21  C   UNL     1       2.649   3.173  17.218  0.00  0.00    +0.000 C 
ATOM     22  C   UNL     1       3.749   4.173  17.604  0.00  0.00    +0.000 C 
ATOM     23  C   UNL     1       4.714   4.377  16.428  0.00  0.00    +0.000 C 
ATOM     24  C   UNL     1       4.527   3.631  18.813  0.00  0.00    +0.000 C 
ENDBRANCH  19  22
ENDBRANCH  14  20
BRANCH  17  25
ATOM     25  C   UNL     1       0.225   9.707  21.514  0.00  0.00    +0.000 C 
ATOM     26  O   UNL     1      -0.667   9.157  22.142  0.00  0.00    +0.000 OA
BRANCH  25  27
ATOM     27  O   UNL     1       0.714  10.932  21.903  0.00  0.00    +0.000 OA
ATOM     28  H   UNL     1       1.591  11.098  21.508  0.00  0.00    +0.000 HD
ENDBRANCH  25  27
ENDBRANCH  17  25
ENDBRANCH   1  16
BRANCH   4  29
ATOM     29  C   UNL     1       0.729  14.469  19.191  0.00  0.00    +0.000 C 
BRANCH  29  30
ATOM     30  C   UNL     1       0.598  14.579  20.710  0.00  0.00    +0.000 C 
BRANCH  30  31
ATOM     31  C   UNL     1       1.974  14.538  21.372  0.00  0.00    +0.000 C 
BRANCH  31  32
ATOM     32  O   UNL     1       2.507  13.222  21.311  0.00  0.00    +0.000 OA
ATOM     33  H   UNL     1       1.754  12.607  21.270  0.00  0.00    +0.000 HD
ENDBRANCH  31  32
ENDBRANCH  30  31
ENDBRANCH  29  30
ENDBRANCH   4  29
TORSDOF 10
ENDMDL
MODEL 2
REMARK VINA RESULT:      -6.8      1.737      4.689
REMARK  Name = 
REMARK  13 active torsions:
REMARK  status: ('A' for Active; 'I' for Inactive)
REMARK    1  A    between atoms: C_1  and  C_2
REMARK    2  A    between atoms: C_2  and  C_3
REMARK    3  A    between atoms: C_2  and  C_4
REMARK    4  A    between atoms: C_2  and  C_5
REMARK    5  A    between atoms: C_6  and  C_7
REMARK    6  A    between atoms: C_9  and  N_10
REMARK    7  A    between atoms: C_13  and  C_14
REMARK    8  A    between atoms: C_14  and  C_15
REMARK    9  A    between atoms: C_15  and  C_16
REMARK   10  A    between atoms: C_16  and  O_17
REMARK   11  A    between atoms: C_20  and  C_21
REMARK   12  A    between atoms: C_27  and  C_28
REMARK   13  A    between atoms: C_28  and  O_30
REMARK                            x       y       z     vdW  Elec       q    Type
REMARK                         _______ _______ _______ _____ _____    ______ ____
ROOT
ATOM      1  N   UNL     1      -0.292  11.183  19.596  0.00  0.00    +0.000 N 
ATOM      2  C   UNL     1      -1.512  10.808  18.981  0.00  0.00    +0.000 C 
ATOM      3  O   UNL     1      -2.010   9.685  19.108  0.00  0.00    +0.000 OA
ATOM      4  C   UNL     1      -2.187  11.884  18.112  0.00  0.00    +0.000 C 
ATOM      5  O   UNL     1      -1.196  12.635  17.399  0.00  0.00    +0.000 OA
ATOM      6  C   UNL     1      -0.417  13.395  18.313  0.00  0.00    +0.000 C 
ATOM      7  C   UNL     1       0.404  12.485  19.243  0.00  0.00    +0.000 C 
ENDROOT
BRANCH   7   8
ATOM      8  C   UNL     1       0.907  13.268  20.525  0.00  0.00    +0.000 C 
ATOM      9  C   UNL     1       2.443  13.305  20.643  0.00  0.00    +0.000 C 
ATOM     10  C   UNL     1       3.067  14.129  19.518  0.00  0.00    +0.000 C 
ATOM     11  C   UNL     1       2.598  15.577  19.575  0.00  0.00    +0.000 C 
ATOM     12  C   UNL     1       1.078  15.708  19.671  0.00  0.00    +0.000 C 
ATOM     13  C   UNL     1       0.445  14.744  20.679  0.00  0.00    +0.000 C 
ENDBRANCH   7   8
BRANCH   1  16
ATOM     14  C   UNL     1       1.864   8.204  19.515  0.00  0.00    +0.000 A 
ATOM     15  C   UNL     1       1.257   9.309  18.979  0.00  0.00    +0.000 A 
ATOM     16  C   UNL     1       0.496  10.048  19.953  0.00  0.00    +0.000 A 
ATOM     17  C   UNL     1       0.509   9.393  21.184  0.00  0.00    +0.000 A 
ATOM     18  S   UNL     1       1.689   8.137  21.195  0.00  0.00    +0.000 S 
BRANCH  14  20
ATOM     19  C   UNL     1       3.159   6.259  18.341  0.00  0.00    +0.000 C 
ATOM     20  C   UNL     1       2.528   7.176  18.808  0.00  0.00    +0.000 C 
BRANCH  19  22
ATOM     21  C   UNL     1       3.064   3.993  17.429  0.00  0.00    +0.000 C 
ATOM     22  C   UNL     1       3.983   5.157  17.827  0.00  0.00    +0.000 C 
ATOM     23  C   UNL     1       4.765   5.656  16.605  0.00  0.00    +0.000 C 
ATOM     24  C   UNL     1       4.970   4.681  18.905  0.00  0.00    +0.000 C 
ENDBRANCH  19  22
ENDBRANCH  14  20
BRANCH  17  25
ATOM     25  C   UNL     1      -0.219   9.645  22.408  0.00  0.00    +0.000 C 
ATOM     26  O   UNL     1      -0.211  10.674  23.066  0.00  0.00    +0.000 OA
BRANCH  25  27
ATOM     27  O   UNL     1      -0.960   8.557  22.804  0.00  0.00    +0.000 OA
ATOM     28  H   UNL     1      -1.768   8.839  23.276  0.00  0.00    +0.000 HD
ENDBRANCH  25  27
ENDBRANCH  17  25
ENDBRANCH   1  16
BRANCH   4  29
ATOM     29  C   UNL     1      -3.111  11.308  17.025  0.00  0.00    +0.000 C 
BRANCH  29  30
ATOM     30  C   UNL     1      -2.440  10.438  15.963  0.00  0.00    +0.000 C 
BRANCH  30  31
ATOM     31  C   UNL     1      -3.438  10.052  14.873  0.00  0.00    +0.000 C 
BRANCH  31  32
ATOM     32  O   UNL     1      -2.887  10.314  13.590  0.00  0.00    +0.000 OA
ATOM     33  H   UNL     1      -1.932  10.136  13.644  0.00  0.00    +0.000 HD
ENDBRANCH  31  32
ENDBRANCH  30  31
ENDBRANCH  29  30
ENDBRANCH   4  29
TORSDOF 10
ENDMDL
MODEL 3
REMARK VINA RESULT:      -6.7      0.589      1.133
REMARK  Name = 
REMARK  13 active torsions:
REMARK  status: ('A' for Active; 'I' for Inactive)
REMARK    1  A    between atoms: C_1  and  C_2
REMARK    2  A    between atoms: C_2  and  C_3
REMARK    3  A    between atoms: C_2  and  C_4
REMARK    4  A    between atoms: C_2  and  C_5
REMARK    5  A    between atoms: C_6  and  C_7
REMARK    6  A    between atoms: C_9  and  N_10
REMARK    7  A    between atoms: C_13  and  C_14
REMARK    8  A    between atoms: C_14  and  C_15
REMARK    9  A    between atoms: C_15  and  C_16
REMARK   10  A    between atoms: C_16  and  O_17
REMARK   11  A    between atoms: C_20  and  C_21
REMARK   12  A    between atoms: C_27  and  C_28
REMARK   13  A    between atoms: C_28  and  O_30
REMARK                            x       y       z     vdW  Elec       q    Type
REMARK                         _______ _______ _______ _____ _____    ______ ____
ROOT
ATOM      1  N   UNL     1      -0.078  10.745  18.597  0.00  0.00    +0.000 N 
ATOM      2  C   UNL     1       0.638  11.965  18.526  0.00  0.00    +0.000 C 
ATOM      3  O   UNL     1       1.871  12.017  18.488  0.00  0.00    +0.000 OA
ATOM      4  C   UNL     1      -0.214  13.246  18.521  0.00  0.00    +0.000 C 
ATOM      5  O   UNL     1      -1.338  13.094  19.397  0.00  0.00    +0.000 OA
ATOM      6  C   UNL     1      -2.225  12.112  18.879  0.00  0.00    +0.000 C 
ATOM      7  C   UNL     1      -1.573  10.718  18.866  0.00  0.00    +0.000 C 
ENDROOT
BRANCH   7   8
ATOM      8  C   UNL     1      -2.343   9.725  17.903  0.00  0.00    +0.000 C 
ATOM      9  C   UNL     1      -3.870   9.753  18.105  0.00  0.00    +0.000 C 
ATOM     10  C   UNL     1      -4.462  11.100  17.692  0.00  0.00    +0.000 C 
ATOM     11  C   UNL     1      -4.221  11.372  16.213  0.00  0.00    +0.000 C 
ATOM     12  C   UNL     1      -2.761  11.182  15.801  0.00  0.00    +0.000 C 
ATOM     13  C   UNL     1      -2.126   9.912  16.375  0.00  0.00    +0.000 C 
ENDBRANCH   7   8
BRANCH   1  16
ATOM     14  C   UNL     1       2.099   7.793  18.859  0.00  0.00    +0.000 A 
ATOM     15  C   UNL     1       1.461   8.805  18.194  0.00  0.00    +0.000 A 
ATOM     16  C   UNL     1       0.734   9.677  19.082  0.00  0.00    +0.000 A 
ATOM     17  C   UNL     1       0.805   9.208  20.394  0.00  0.00    +0.000 A 
ATOM     18  S   UNL     1       1.995   7.971  20.537  0.00  0.00    +0.000 S 
BRANCH  14  20
ATOM     19  C   UNL     1       3.238   5.639  17.911  0.00  0.00    +0.000 C 
ATOM     20  C   UNL     1       2.743   6.674  18.282  0.00  0.00    +0.000 C 
BRANCH  19  22
ATOM     21  C   UNL     1       4.662   3.825  18.726  0.00  0.00    +0.000 C 
ATOM     22  C   UNL     1       3.850   4.357  17.536  0.00  0.00    +0.000 C 
ATOM     23  C   UNL     1       2.735   3.368  17.171  0.00  0.00    +0.000 C 
ATOM     24  C   UNL     1       4.782   4.544  16.327  0.00  0.00    +0.000 C 
ENDBRANCH  19  22
ENDBRANCH  14  20
BRANCH  17  25
ATOM     25  C   UNL     1       0.125   9.634  21.597  0.00  0.00    +0.000 C 
ATOM     26  O   UNL     1       0.242  10.712  22.162  0.00  0.00    +0.000 OA
BRANCH  25  27
ATOM     27  O   UNL     1      -0.707   8.660  22.096  0.00  0.00    +0.000 OA
ATOM     28  H   UNL     1      -0.609   8.582  23.065  0.00  0.00    +0.000 HD
ENDBRANCH  25  27
ENDBRANCH  17  25
ENDBRANCH   1  16
BRANCH   4  29
ATOM     29  C   UNL     1       0.534  14.486  19.041  0.00  0.00    +0.000 C 
BRANCH  29  30
ATOM     30  C   UNL     1       0.025  15.077  20.356  0.00  0.00    +0.000 C 
BRANCH  30  31
ATOM     31  C   UNL     1       0.881  14.601  21.527  0.00  0.00    +0.000 C 
BRANCH  31  32
ATOM     32  O   UNL     1       0.332  13.413  22.082  0.00  0.00    +0.000 OA
ATOM     33  H   UNL     1       1.049  12.957  22.556  0.00  0.00    +0.000 HD
ENDBRANCH  31  32
ENDBRANCH  30  31
ENDBRANCH  29  30
ENDBRANCH   4  29
TORSDOF 10
ENDMDL
MODEL 4
REMARK VINA RESULT:      -6.7      0.796      1.516
REMARK  Name = 
REMARK  13 active torsions:
REMARK  status: ('A' for Active; 'I' for Inactive)
REMARK    1  A    between atoms: C_1  and  C_2
REMARK    2  A    between atoms: C_2  and  C_3
REMARK    3  A    between atoms: C_2  and  C_4
REMARK    4  A    between atoms: C_2  and  C_5
REMARK    5  A    between atoms: C_6  and  C_7
REMARK    6  A    between atoms: C_9  and  N_10
REMARK    7  A    between atoms: C_13  and  C_14
REMARK    8  A    between atoms: C_14  and  C_15
REMARK    9  A    between atoms: C_15  and  C_16
REMARK   10  A    between atoms: C_16  and  O_17
REMARK   11  A    between atoms: C_20  and  C_21
REMARK   12  A    between atoms: C_27  and  C_28
REMARK   13  A    between atoms: C_28  and  O_30
REMARK                            x       y       z     vdW  Elec       q    Type
REMARK                         _______ _______ _______ _____ _____    ______ ____
ROOT
ATOM      1  N   UNL     1      -0.034  10.754  18.586  0.00  0.00    +0.000 N 
ATOM      2  C   UNL     1       0.674  11.981  18.589  0.00  0.00    +0.000 C 
ATOM      3  O   UNL     1       1.906  12.044  18.623  0.00  0.00    +0.000 OA
ATOM      4  C   UNL     1      -0.189  13.256  18.569  0.00  0.00    +0.000 C 
ATOM      5  O   UNL     1      -1.359  13.071  19.376  0.00  0.00    +0.000 OA
ATOM      6  C   UNL     1      -2.206  12.097  18.782  0.00  0.00    +0.000 C 
ATOM      7  C   UNL     1      -1.541  10.709  18.769  0.00  0.00    +0.000 C 
ENDROOT
BRANCH   7   8
ATOM      8  C   UNL     1      -2.246   9.736  17.738  0.00  0.00    +0.000 C 
ATOM      9  C   UNL     1      -3.745   9.533  18.029  0.00  0.00    +0.000 C 
ATOM     10  C   UNL     1      -4.533  10.825  17.817  0.00  0.00    +0.000 C 
ATOM     11  C   UNL     1      -4.437  11.294  16.371  0.00  0.00    +0.000 C 
ATOM     12  C   UNL     1      -2.998  11.351  15.857  0.00  0.00    +0.000 C 
ATOM     13  C   UNL     1      -2.166  10.122  16.234  0.00  0.00    +0.000 C 
ENDBRANCH   7   8
BRANCH   1  16
ATOM     14  C   UNL     1       2.106   7.779  18.895  0.00  0.00    +0.000 A 
ATOM     15  C   UNL     1       1.488   8.795  18.216  0.00  0.00    +0.000 A 
ATOM     16  C   UNL     1       0.760   9.680  19.089  0.00  0.00    +0.000 A 
ATOM     17  C   UNL     1       0.807   9.218  20.404  0.00  0.00    +0.000 A 
ATOM     18  S   UNL     1       1.981   7.968  20.570  0.00  0.00    +0.000 S 
BRANCH  14  20
ATOM     19  C   UNL     1       3.217   5.603  17.963  0.00  0.00    +0.000 C 
ATOM     20  C   UNL     1       2.745   6.650  18.333  0.00  0.00    +0.000 C 
BRANCH  19  22
ATOM     21  C   UNL     1       4.732   4.503  16.390  0.00  0.00    +0.000 C 
ATOM     22  C   UNL     1       3.791   4.304  17.588  0.00  0.00    +0.000 C 
ATOM     23  C   UNL     1       4.571   3.747  18.787  0.00  0.00    +0.000 C 
ATOM     24  C   UNL     1       2.677   3.319  17.202  0.00  0.00    +0.000 C 
ENDBRANCH  19  22
ENDBRANCH  14  20
BRANCH  17  25
ATOM     25  C   UNL     1       0.116   9.658  21.595  0.00  0.00    +0.000 C 
ATOM     26  O   UNL     1      -0.676   9.011  22.264  0.00  0.00    +0.000 OA
BRANCH  25  27
ATOM     27  O   UNL     1       0.432  10.954  21.930  0.00  0.00    +0.000 OA
ATOM     28  H   UNL     1       1.400  11.083  21.947  0.00  0.00    +0.000 HD
ENDBRANCH  25  27
ENDBRANCH  17  25
ENDBRANCH   1  16
BRANCH   4  29
ATOM     29  C   UNL     1       0.517  14.486  19.164  0.00  0.00    +0.000 C 
BRANCH  29  30
ATOM     30  C   UNL     1      -0.095  15.844  18.821  0.00  0.00    +0.000 C 
BRANCH  30  31
ATOM     31  C   UNL     1      -0.901  16.384  20.000  0.00  0.00    +0.000 C 
BRANCH  31  32
ATOM     32  O   UNL     1      -2.250  15.944  19.912  0.00  0.00    +0.000 OA
ATOM     33  H   UNL     1      -2.245  15.090  19.445  0.00  0.00    +0.000 HD
ENDBRANCH  31  32
ENDBRANCH  30  31
ENDBRANCH  29  30
ENDBRANCH   4  29
TORSDOF 10
ENDMDL
MODEL 5
REMARK VINA RESULT:      -6.6      1.461      4.556
REMARK  Name = 
REMARK  13 active torsions:
REMARK  status: ('A' for Active; 'I' for Inactive)
REMARK    1  A    between atoms: C_1  and  C_2
REMARK    2  A    between atoms: C_2  and  C_3
REMARK    3  A    between atoms: C_2  and  C_4
REMARK    4  A    between atoms: C_2  and  C_5
REMARK    5  A    between atoms: C_6  and  C_7
REMARK    6  A    between atoms: C_9  and  N_10
REMARK    7  A    between atoms: C_13  and  C_14
REMARK    8  A    between atoms: C_14  and  C_15
REMARK    9  A    between atoms: C_15  and  C_16
REMARK   10  A    between atoms: C_16  and  O_17
REMARK   11  A    between atoms: C_20  and  C_21
REMARK   12  A    between atoms: C_27  and  C_28
REMARK   13  A    between atoms: C_28  and  O_30
REMARK                            x       y       z     vdW  Elec       q    Type
REMARK                         _______ _______ _______ _____ _____    ______ ____
ROOT
ATOM      1  N   UNL     1      -0.298  11.148  19.532  0.00  0.00    +0.000 N 
ATOM      2  C   UNL     1      -1.474  10.759  18.845  0.00  0.00    +0.000 C 
ATOM      3  O   UNL     1      -1.948   9.621  18.917  0.00  0.00    +0.000 OA
ATOM      4  C   UNL     1      -2.130  11.841  17.969  0.00  0.00    +0.000 C 
ATOM      5  O   UNL     1      -1.123  12.635  17.329  0.00  0.00    +0.000 OA
ATOM      6  C   UNL     1      -0.413  13.390  18.301  0.00  0.00    +0.000 C 
ATOM      7  C   UNL     1       0.382  12.476  19.250  0.00  0.00    +0.000 C 
ENDROOT
BRANCH   7   8
ATOM      8  C   UNL     1       0.797  13.236  20.576  0.00  0.00    +0.000 C 
ATOM      9  C   UNL     1       2.319  13.241  20.816  0.00  0.00    +0.000 C 
ATOM     10  C   UNL     1       3.047  14.062  19.753  0.00  0.00    +0.000 C 
ATOM     11  C   UNL     1       2.603  15.518  19.788  0.00  0.00    +0.000 C 
ATOM     12  C   UNL     1       1.083  15.680  19.764  0.00  0.00    +0.000 C 
ATOM     13  C   UNL     1       0.354  14.720  20.709  0.00  0.00    +0.000 C 
ENDBRANCH   7   8
BRANCH   1  16
ATOM     14  C   UNL     1       1.875   8.181  19.483  0.00  0.00    +0.000 A 
ATOM     15  C   UNL     1       1.258   9.273  18.934  0.00  0.00    +0.000 A 
ATOM     16  C   UNL     1       0.499  10.024  19.902  0.00  0.00    +0.000 A 
ATOM     17  C   UNL     1       0.526   9.388  21.143  0.00  0.00    +0.000 A 
ATOM     18  S   UNL     1       1.713   8.140  21.166  0.00  0.00    +0.000 S 
BRANCH  14  20
ATOM     19  C   UNL     1       3.175   6.226  18.331  0.00  0.00    +0.000 C 
ATOM     20  C   UNL     1       2.541   7.145  18.788  0.00  0.00    +0.000 C 
BRANCH  19  22
ATOM     21  C   UNL     1       4.790   5.610  16.602  0.00  0.00    +0.000 C 
ATOM     22  C   UNL     1       4.003   5.123  17.828  0.00  0.00    +0.000 C 
ATOM     23  C   UNL     1       4.969   4.687  18.938  0.00  0.00    +0.000 C 
ATOM     24  C   UNL     1       3.120   3.932  17.424  0.00  0.00    +0.000 C 
ENDBRANCH  19  22
ENDBRANCH  14  20
BRANCH  17  25
ATOM     25  C   UNL     1      -0.196   9.655  22.368  0.00  0.00    +0.000 C 
ATOM     26  O   UNL     1      -0.190  10.696  23.009  0.00  0.00    +0.000 OA
BRANCH  25  27
ATOM     27  O   UNL     1      -0.925   8.569  22.789  0.00  0.00    +0.000 OA
ATOM     28  H   UNL     1      -1.275   8.713  23.689  0.00  0.00    +0.000 HD
ENDBRANCH  25  27
ENDBRANCH  17  25
ENDBRANCH   1  16
BRANCH   4  29
ATOM     29  C   UNL     1      -2.981  11.272  16.820  0.00  0.00    +0.000 C 
BRANCH  29  30
ATOM     30  C   UNL     1      -4.479  11.568  16.882  0.00  0.00    +0.000 C 
BRANCH  30  31
ATOM     31  C   UNL     1      -4.927  11.779  18.327  0.00  0.00    +0.000 C 
BRANCH  31  32
ATOM     32  O   UNL     1      -5.372  13.116  18.510  0.00  0.00    +0.000 OA
ATOM     33  H   UNL     1      -5.215  13.348  19.441  0.00  0.00    +0.000 HD
ENDBRANCH  31  32
ENDBRANCH  30  31
ENDBRANCH  29  30
ENDBRANCH   4  29
TORSDOF 10
ENDMDL
MODEL 6
REMARK VINA RESULT:      -6.4      0.593      1.125
REMARK  Name = 
REMARK  13 active torsions:
REMARK  status: ('A' for Active; 'I' for Inactive)
REMARK    1  A    between atoms: C_1  and  C_2
REMARK    2  A    between atoms: C_2  and  C_3
REMARK    3  A    between atoms: C_2  and  C_4
REMARK    4  A    between atoms: C_2  and  C_5
REMARK    5  A    between atoms: C_6  and  C_7
REMARK    6  A    between atoms: C_9  and  N_10
REMARK    7  A    between atoms: C_13  and  C_14
REMARK    8  A    between atoms: C_14  and  C_15
REMARK    9  A    between atoms: C_15  and  C_16
REMARK   10  A    between atoms: C_16  and  O_17
REMARK   11  A    between atoms: C_20  and  C_21
REMARK   12  A    between atoms: C_27  and  C_28
REMARK   13  A    between atoms: C_28  and  O_30
REMARK                            x       y       z     vdW  Elec       q    Type
REMARK                         _______ _______ _______ _____ _____    ______ ____
ROOT
ATOM      1  N   UNL     1      -0.117  10.803  18.868  0.00  0.00    +0.000 N 
ATOM      2  C   UNL     1       0.596  12.027  18.847  0.00  0.00    +0.000 C 
ATOM      3  O   UNL     1       1.824  12.089  18.961  0.00  0.00    +0.000 OA
ATOM      4  C   UNL     1      -0.256  13.299  18.695  0.00  0.00    +0.000 C 
ATOM      5  O   UNL     1      -1.479  13.165  19.429  0.00  0.00    +0.000 OA
ATOM      6  C   UNL     1      -2.289  12.159  18.837  0.00  0.00    +0.000 C 
ATOM      7  C   UNL     1      -1.633  10.771  18.950  0.00  0.00    +0.000 C 
ENDROOT
BRANCH   7   8
ATOM      8  C   UNL     1      -2.272   9.741  17.932  0.00  0.00    +0.000 C 
ATOM      9  C   UNL     1      -3.799   9.603  18.092  0.00  0.00    +0.000 C 
ATOM     10  C   UNL     1      -4.517  10.896  17.710  0.00  0.00    +0.000 C 
ATOM     11  C   UNL     1      -4.270  11.248  16.248  0.00  0.00    +0.000 C 
ATOM     12  C   UNL     1      -2.789  11.225  15.872  0.00  0.00    +0.000 C 
ATOM     13  C   UNL     1      -2.039  10.006  16.418  0.00  0.00    +0.000 C 
ENDBRANCH   7   8
BRANCH   1  16
ATOM     14  C   UNL     1       1.927   7.811  19.498  0.00  0.00    +0.000 A 
ATOM     15  C   UNL     1       1.353   8.776  18.714  0.00  0.00    +0.000 A 
ATOM     16  C   UNL     1       0.634   9.758  19.485  0.00  0.00    +0.000 A 
ATOM     17  C   UNL     1       0.643   9.420  20.838  0.00  0.00    +0.000 A 
ATOM     18  S   UNL     1       1.776   8.159  21.145  0.00  0.00    +0.000 S 
BRANCH  14  20
ATOM     19  C   UNL     1       3.129   5.684  18.567  0.00  0.00    +0.000 C 
ATOM     20  C   UNL     1       2.543   6.617  19.057  0.00  0.00    +0.000 C 
BRANCH  19  22
ATOM     21  C   UNL     1       4.676   5.154  16.749  0.00  0.00    +0.000 C 
ATOM     22  C   UNL     1       3.834   4.582  17.899  0.00  0.00    +0.000 C 
ATOM     23  C   UNL     1       4.740   3.885  18.923  0.00  0.00    +0.000 C 
ATOM     24  C   UNL     1       2.826   3.567  17.336  0.00  0.00    +0.000 C 
ENDBRANCH  19  22
ENDBRANCH  14  20
BRANCH  17  25
ATOM     25  C   UNL     1      -0.057   9.989  21.968  0.00  0.00    +0.000 C 
ATOM     26  O   UNL     1      -0.071  11.163  22.306  0.00  0.00    +0.000 OA
BRANCH  25  27
ATOM     27  O   UNL     1      -0.740   9.037  22.689  0.00  0.00    +0.000 OA
ATOM     28  H   UNL     1      -1.569   8.788  22.237  0.00  0.00    +0.000 HD
ENDBRANCH  25  27
ENDBRANCH  17  25
ENDBRANCH   1  16
BRANCH   4  29
ATOM     29  C   UNL     1       0.415  14.562  19.263  0.00  0.00    +0.000 C 
BRANCH  29  30
ATOM     30  C   UNL     1       0.246  14.796  20.764  0.00  0.00    +0.000 C 
BRANCH  30  31
ATOM     31  C   UNL     1       1.573  14.595  21.493  0.00  0.00    +0.000 C 
BRANCH  31  32
ATOM     32  O   UNL     1       2.624  14.411  20.554  0.00  0.00    +0.000 OA
ATOM     33  H   UNL     1       2.362  14.866  19.735  0.00  0.00    +0.000 HD
ENDBRANCH  31  32
ENDBRANCH  30  31
ENDBRANCH  29  30
ENDBRANCH   4  29
TORSDOF 10
ENDMDL
MODEL 7
REMARK VINA RESULT:      -6.4      1.129      1.745
REMARK  Name = 
REMARK  13 active torsions:
REMARK  status: ('A' for Active; 'I' for Inactive)
REMARK    1  A    between atoms: C_1  and  C_2
REMARK    2  A    between atoms: C_2  and  C_3
REMARK    3  A    between atoms: C_2  and  C_4
REMARK    4  A    between atoms: C_2  and  C_5
REMARK    5  A    between atoms: C_6  and  C_7
REMARK    6  A    between atoms: C_9  and  N_10
REMARK    7  A    between atoms: C_13  and  C_14
REMARK    8  A    between atoms: C_14  and  C_15
REMARK    9  A    between atoms: C_15  and  C_16
REMARK   10  A    between atoms: C_16  and  O_17
REMARK   11  A    between atoms: C_20  and  C_21
REMARK   12  A    between atoms: C_27  and  C_28
REMARK   13  A    between atoms: C_28  and  O_30
REMARK                            x       y       z     vdW  Elec       q    Type
REMARK                         _______ _______ _______ _____ _____    ______ ____
ROOT
ATOM      1  N   UNL     1      -0.188  10.808  18.608  0.00  0.00    +0.000 N 
ATOM      2  C   UNL     1       0.478  12.058  18.608  0.00  0.00    +0.000 C 
ATOM      3  O   UNL     1       1.708  12.163  18.615  0.00  0.00    +0.000 OA
ATOM      4  C   UNL     1      -0.427  13.302  18.624  0.00  0.00    +0.000 C 
ATOM      5  O   UNL     1      -1.572  13.069  19.454  0.00  0.00    +0.000 OA
ATOM      6  C   UNL     1      -2.398  12.073  18.869  0.00  0.00    +0.000 C 
ATOM      7  C   UNL     1      -1.687  10.709  18.824  0.00  0.00    +0.000 C 
ENDROOT
BRANCH   7   8
ATOM      8  C   UNL     1      -2.383   9.724  17.797  0.00  0.00    +0.000 C 
ATOM      9  C   UNL     1      -3.908   9.626  17.995  0.00  0.00    +0.000 C 
ATOM     10  C   UNL     1      -4.598  10.949  17.664  0.00  0.00    +0.000 C 
ATOM     11  C   UNL     1      -4.378  11.331  16.206  0.00  0.00    +0.000 C 
ATOM     12  C   UNL     1      -2.908  11.275  15.789  0.00  0.00    +0.000 C 
ATOM     13  C   UNL     1      -2.181  10.022  16.285  0.00  0.00    +0.000 C 
ENDBRANCH   7   8
BRANCH   1  16
ATOM     14  C   UNL     1       2.174   7.997  18.834  0.00  0.00    +0.000 A 
ATOM     15  C   UNL     1       1.527   9.023  18.198  0.00  0.00    +0.000 A 
ATOM     16  C   UNL     1       0.653   9.756  19.079  0.00  0.00    +0.000 A 
ATOM     17  C   UNL     1       0.632   9.170  20.344  0.00  0.00    +0.000 A 
ATOM     18  S   UNL     1       1.894   8.008  20.501  0.00  0.00    +0.000 S 
BRANCH  14  20
ATOM     19  C   UNL     1       3.743   6.211  17.746  0.00  0.00    +0.000 C 
ATOM     20  C   UNL     1       2.955   6.985  18.231  0.00  0.00    +0.000 C 
BRANCH  19  22
ATOM     21  C   UNL     1       5.242   5.972  15.830  0.00  0.00    +0.000 C 
ATOM     22  C   UNL     1       4.748   5.331  17.135  0.00  0.00    +0.000 C 
ATOM     23  C   UNL     1       5.916   5.161  18.116  0.00  0.00    +0.000 C 
ATOM     24  C   UNL     1       4.137   3.955  16.827  0.00  0.00    +0.000 C 
ENDBRANCH  19  22
ENDBRANCH  14  20
BRANCH  17  25
ATOM     25  C   UNL     1      -0.192   9.433  21.504  0.00  0.00    +0.000 C 
ATOM     26  O   UNL     1      -0.354  10.510  22.058  0.00  0.00    +0.000 OA
BRANCH  25  27
ATOM     27  O   UNL     1      -0.807   8.296  21.972  0.00  0.00    +0.000 OA
ATOM     28  H   UNL     1      -1.756   8.457  22.138  0.00  0.00    +0.000 HD
ENDBRANCH  25  27
ENDBRANCH  17  25
ENDBRANCH   1  16
BRANCH   4  29
ATOM     29  C   UNL     1       0.250  14.550  19.217  0.00  0.00    +0.000 C 
BRANCH  29  30
ATOM     30  C   UNL     1      -0.505  15.254  20.343  0.00  0.00    +0.000 C 
BRANCH  30  31
ATOM     31  C   UNL     1      -1.225  16.494  19.816  0.00  0.00    +0.000 C 
BRANCH  31  32
ATOM     32  O   UNL     1      -0.993  16.638  18.421  0.00  0.00    +0.000 OA
ATOM     33  H   UNL     1      -0.864  15.745  18.056  0.00  0.00    +0.000 HD
ENDBRANCH  31  32
ENDBRANCH  30  31
ENDBRANCH  29  30
ENDBRANCH   4  29
TORSDOF 10
ENDMDL
MODEL 8
REMARK VINA RESULT:      -6.4      2.558      5.255
REMARK  Name = 
REMARK  13 active torsions:
REMARK  status: ('A' for Active; 'I' for Inactive)
REMARK    1  A    between atoms: C_1  and  C_2
REMARK    2  A    between atoms: C_2  and  C_3
REMARK    3  A    between atoms: C_2  and  C_4
REMARK    4  A    between atoms: C_2  and  C_5
REMARK    5  A    between atoms: C_6  and  C_7
REMARK    6  A    between atoms: C_9  and  N_10
REMARK    7  A    between atoms: C_13  and  C_14
REMARK    8  A    between atoms: C_14  and  C_15
REMARK    9  A    between atoms: C_15  and  C_16
REMARK   10  A    between atoms: C_16  and  O_17
REMARK   11  A    between atoms: C_20  and  C_21
REMARK   12  A    between atoms: C_27  and  C_28
REMARK   13  A    between atoms: C_28  and  O_30
REMARK                            x       y       z     vdW  Elec       q    Type
REMARK                         _______ _______ _______ _____ _____    ______ ____
ROOT
ATOM      1  N   UNL     1       0.087  12.589  21.586  0.00  0.00    +0.000 N 
ATOM      2  C   UNL     1      -0.888  12.450  22.604  0.00  0.00    +0.000 C 
ATOM      3  O   UNL     1      -1.403  11.366  22.897  0.00  0.00    +0.000 OA
ATOM      4  C   UNL     1      -1.298  13.746  23.326  0.00  0.00    +0.000 C 
ATOM      5  O   UNL     1      -1.346  14.835  22.394  0.00  0.00    +0.000 OA
ATOM      6  C   UNL     1      -0.037  15.124  21.923  0.00  0.00    +0.000 C 
ATOM      7  C   UNL     1       0.534  13.956  21.100  0.00  0.00    +0.000 C 
ENDROOT
BRANCH   7   8
ATOM      8  C   UNL     1       2.108  14.061  20.956  0.00  0.00    +0.000 C 
ATOM      9  C   UNL     1       2.638  13.433  19.653  0.00  0.00    +0.000 C 
ATOM     10  C   UNL     1       2.167  14.215  18.427  0.00  0.00    +0.000 C 
ATOM     11  C   UNL     1       2.689  15.645  18.457  0.00  0.00    +0.000 C 
ATOM     12  C   UNL     1       2.420  16.351  19.785  0.00  0.00    +0.000 C 
ATOM     13  C   UNL     1       2.729  15.485  21.010  0.00  0.00    +0.000 C 
ENDBRANCH   7   8
BRANCH   1  16
ATOM     14  C   UNL     1       0.843   9.517  19.711  0.00  0.00    +0.000 A 
ATOM     15  C   UNL     1       0.987  10.404  20.744  0.00  0.00    +0.000 A 
ATOM     16  C   UNL     1       0.055  11.500  20.665  0.00  0.00    +0.000 A 
ATOM     17  C   UNL     1      -0.705  11.412  19.499  0.00  0.00    +0.000 A 
ATOM     18  S   UNL     1      -0.503   9.873  18.752  0.00  0.00    +0.000 S 
BRANCH  14  20
ATOM     19  C   UNL     1       2.348   7.502  18.995  0.00  0.00    +0.000 C 
ATOM     20  C   UNL     1       1.704   8.442  19.392  0.00  0.00    +0.000 C 
BRANCH  19  22
ATOM     21  C   UNL     1       4.043   6.782  17.386  0.00  0.00    +0.000 C 
ATOM     22  C   UNL     1       3.066   6.328  18.481  0.00  0.00    +0.000 C 
ATOM     23  C   UNL     1       3.833   5.675  19.638  0.00  0.00    +0.000 C 
ATOM     24  C   UNL     1       2.075   5.313  17.889  0.00  0.00    +0.000 C 
ENDBRANCH  19  22
ENDBRANCH  14  20
BRANCH  17  25
ATOM     25  C   UNL     1      -1.643  12.335  18.899  0.00  0.00    +0.000 C 
ATOM     26  O   UNL     1      -2.681  12.749  19.394  0.00  0.00    +0.000 OA
BRANCH  25  27
ATOM     27  O   UNL     1      -1.255  12.725  17.639  0.00  0.00    +0.000 OA
ATOM     28  H   UNL     1      -1.882  12.396  16.966  0.00  0.00    +0.000 HD
ENDBRANCH  25  27
ENDBRANCH  17  25
ENDBRANCH   1  16
BRANCH   4  29
ATOM     29  C   UNL     1      -2.704  13.688  23.946  0.00  0.00    +0.000 C 
BRANCH  29  30
ATOM     30  C   UNL     1      -3.856  14.131  23.044  0.00  0.00    +0.000 C 
BRANCH  30  31
ATOM     31  C   UNL     1      -4.854  12.992  22.847  0.00  0.00    +0.000 C 
BRANCH  31  32
ATOM     32  O   UNL     1      -4.565  12.292  21.645  0.00  0.00    +0.000 OA
ATOM     33  H   UNL     1      -3.626  12.443  21.441  0.00  0.00    +0.000 HD
ENDBRANCH  31  32
ENDBRANCH  30  31
ENDBRANCH  29  30
ENDBRANCH   4  29
TORSDOF 10
ENDMDL
MODEL 9
REMARK VINA RESULT:      -6.4      1.050      1.448
REMARK  Name = 
REMARK  13 active torsions:
REMARK  status: ('A' for Active; 'I' for Inactive)
REMARK    1  A    between atoms: C_1  and  C_2
REMARK    2  A    between atoms: C_2  and  C_3
REMARK    3  A    between atoms: C_2  and  C_4
REMARK    4  A    between atoms: C_2  and  C_5
REMARK    5  A    between atoms: C_6  and  C_7
REMARK    6  A    between atoms: C_9  and  N_10
REMARK    7  A    between atoms: C_13  and  C_14
REMARK    8  A    between atoms: C_14  and  C_15
REMARK    9  A    between atoms: C_15  and  C_16
REMARK   10  A    between atoms: C_16  and  O_17
REMARK   11  A    between atoms: C_20  and  C_21
REMARK   12  A    between atoms: C_27  and  C_28
REMARK   13  A    between atoms: C_28  and  O_30
REMARK                            x       y       z     vdW  Elec       q    Type
REMARK                         _______ _______ _______ _____ _____    ______ ____
ROOT
ATOM      1  N   UNL     1      -0.112  10.688  18.603  0.00  0.00    +0.000 N 
ATOM      2  C   UNL     1       0.584  11.921  18.575  0.00  0.00    +0.000 C 
ATOM      3  O   UNL     1       1.817  11.995  18.562  0.00  0.00    +0.000 OA
ATOM      4  C   UNL     1      -0.289  13.188  18.585  0.00  0.00    +0.000 C 
ATOM      5  O   UNL     1      -1.427  12.996  19.436  0.00  0.00    +0.000 OA
ATOM      6  C   UNL     1      -2.286  12.012  18.877  0.00  0.00    +0.000 C 
ATOM      7  C   UNL     1      -1.611  10.630  18.842  0.00  0.00    +0.000 C 
ENDROOT
BRANCH   7   8
ATOM      8  C   UNL     1      -2.346   9.649  17.840  0.00  0.00    +0.000 C 
ATOM      9  C   UNL     1      -3.879   9.672  17.990  0.00  0.00    +0.000 C 
ATOM     10  C   UNL     1      -4.458  11.024  17.573  0.00  0.00    +0.000 C 
ATOM     11  C   UNL     1      -4.166  11.315  16.107  0.00  0.00    +0.000 C 
ATOM     12  C   UNL     1      -2.693  11.131  15.744  0.00  0.00    +0.000 C 
ATOM     13  C   UNL     1      -2.076   9.855  16.324  0.00  0.00    +0.000 C 
ENDBRANCH   7   8
BRANCH   1  16
ATOM     14  C   UNL     1       2.099   7.758  18.834  0.00  0.00    +0.000 A 
ATOM     15  C   UNL     1       1.454   8.774  18.181  0.00  0.00    +0.000 A 
ATOM     16  C   UNL     1       0.709   9.622  19.077  0.00  0.00    +0.000 A 
ATOM     17  C   UNL     1       0.774   9.132  20.381  0.00  0.00    +0.000 A 
ATOM     18  S   UNL     1       1.978   7.907  20.514  0.00  0.00    +0.000 S 
BRANCH  14  20
ATOM     19  C   UNL     1       3.316   5.650  17.881  0.00  0.00    +0.000 C 
ATOM     20  C   UNL     1       2.761   6.657  18.244  0.00  0.00    +0.000 C 
BRANCH  19  22
ATOM     21  C   UNL     1       4.837   3.927  18.716  0.00  0.00    +0.000 C 
ATOM     22  C   UNL     1       4.020   4.415  17.510  0.00  0.00    +0.000 C 
ATOM     23  C   UNL     1       2.982   3.357  17.112  0.00  0.00    +0.000 C 
ATOM     24  C   UNL     1       4.965   4.673  16.326  0.00  0.00    +0.000 C 
ENDBRANCH  19  22
ENDBRANCH  14  20
BRANCH  17  25
ATOM     25  C   UNL     1       0.079   9.529  21.586  0.00  0.00    +0.000 C 
ATOM     26  O   UNL     1      -0.751   8.877  22.201  0.00  0.00    +0.000 OA
BRANCH  25  27
ATOM     27  O   UNL     1       0.441  10.788  22.003  0.00  0.00    +0.000 OA
ATOM     28  H   UNL     1       0.872  11.284  21.280  0.00  0.00    +0.000 HD
ENDBRANCH  25  27
ENDBRANCH  17  25
ENDBRANCH   1  16
BRANCH   4  29
ATOM     29  C   UNL     1       0.428  14.426  19.150  0.00  0.00    +0.000 C 
BRANCH  29  30
ATOM     30  C   UNL     1      -0.419  15.691  19.287  0.00  0.00    +0.000 C 
BRANCH  30  31
ATOM     31  C   UNL     1       0.202  16.843  18.502  0.00  0.00    +0.000 C 
BRANCH  31  32
ATOM     32  O   UNL     1       1.613  16.846  18.671  0.00  0.00    +0.000 OA
ATOM     33  H   UNL     1       1.791  16.996  19.616  0.00  0.00    +0.000 HD
ENDBRANCH  31  32
ENDBRANCH  30  31
ENDBRANCH  29  30
ENDBRANCH   4  29
TORSDOF 10
ENDMDL
