MODEL 1
REMARK VINA RESULT:      -7.4      0.000      0.000
REMARK  Name = 
REMARK  13 active torsions:
REMARK  status: ('A' for Active; 'I' for Inactive)
REMARK    1  A    between atoms: C_1  and  C_2
REMARK    2  A    between atoms: C_2  and  N_3
REMARK    3  A    between atoms: N_3  and  C_4
REMARK    4  A    between atoms: N_3  and  S_6
REMARK    5  A    between atoms: C_4  and  C_5
REMARK    6  A    between atoms: S_6  and  C_9
REMARK    7  A    between atoms: C_12  and  N_13
REMARK    8  A    between atoms: C_19  and  N_20
REMARK    9  A    between atoms: C_21  and  C_23
REMARK   10  A    between atoms: C_23  and  O_24
REMARK   11  A    between atoms: O_24  and  C_25
REMARK   12  A    between atoms: C_28  and  O_29
REMARK   13  A    between atoms: O_29  and  C_30
REMARK                            x       y       z     vdW  Elec       q    Type
REMARK                         _______ _______ _______ _____ _____    ______ ____
ROOT
ATOM      1  C   UNL     1       2.480   6.878  19.400  0.00  0.00    +0.000 A 
ATOM      2  C   UNL     1       2.735   7.578  18.230  0.00  0.00    +0.000 A 
ATOM      3  C   UNL     1       2.129   8.827  18.032  0.00  0.00    +0.000 A 
ATOM      4  C   UNL     1       1.236   9.413  18.959  0.00  0.00    +0.000 A 
ATOM      5  C   UNL     1       0.988   8.646  20.131  0.00  0.00    +0.000 A 
ATOM      6  C   UNL     1       1.615   7.405  20.356  0.00  0.00    +0.000 A 
ENDROOT
BRANCH   4   7
ATOM      7  N   UNL     1       0.681  10.660  18.701  0.00  0.00    +0.000 N 
ATOM      8  C   UNL     1       1.406  11.940  18.749  0.00  0.00    +0.000 C 
ATOM      9  C   UNL     1       0.594  12.943  19.583  0.00  0.00    +0.000 C 
ATOM     10  O   UNL     1      -0.705  13.148  19.002  0.00  0.00    +0.000 OA
ATOM     11  C   UNL     1      -1.428  11.906  18.966  0.00  0.00    +0.000 C 
ATOM     12  C   UNL     1      -0.682  10.822  18.170  0.00  0.00    +0.000 C 
ENDBRANCH   4   7
BRANCH   5  13
ATOM     13  N   UNL     1       0.146   9.111  21.158  0.00  0.00    +0.000 N 
ATOM     14  C   UNL     1       0.638   9.589  22.367  0.00  0.00    +0.000 C 
ATOM     15  O   UNL     1       1.821   9.617  22.692  0.00  0.00    +0.000 OA
ATOM     16  H   UNL     1      -0.772   9.432  20.878  0.00  0.00    +0.000 HD
BRANCH  14  17
ATOM     17  C   UNL     1      -0.479  10.062  23.299  0.00  0.00    +0.000 C 
BRANCH  17  18
ATOM     18  O   UNL     1      -1.414  10.800  22.524  0.00  0.00    +0.000 OA
BRANCH  18  19
ATOM     19  C   UNL     1      -1.802  12.012  23.024  0.00  0.00    +0.000 A 
ATOM     20  C   UNL     1      -3.090  12.042  23.562  0.00  0.00    +0.000 A 
ATOM     21  C   UNL     1      -3.579  13.202  24.169  0.00  0.00    +0.000 A 
ATOM     22  C   UNL     1      -2.770  14.331  24.278  0.00  0.00    +0.000 A 
ATOM     23  C   UNL     1      -1.489  14.313  23.725  0.00  0.00    +0.000 A 
ATOM     24  C   UNL     1      -1.004  13.152  23.098  0.00  0.00    +0.000 A 
BRANCH  22  25
ATOM     25  O   UNL     1      -3.342  15.401  24.908  0.00  0.00    +0.000 OA
ATOM     26  C   UNL     1      -3.000  16.677  24.380  0.00  0.00    +0.000 C 
ENDBRANCH  22  25
ENDBRANCH  18  19
ENDBRANCH  17  18
ENDBRANCH  14  17
ENDBRANCH   5  13
BRANCH   1  27
ATOM     27  S   UNL     1       3.243   5.299  19.654  0.00  0.00    +0.000 S 
ATOM     28  O   UNL     1       2.591   4.683  20.793  0.00  0.00    +0.000 OA
ATOM     29  O   UNL     1       4.675   5.477  19.615  0.00  0.00    +0.000 OA
BRANCH  27  30
ATOM     30  N   UNL     1       2.801   4.407  18.243  0.00  0.00    +0.000 NA
BRANCH  30  32
ATOM     31  C   UNL     1       4.568   3.953  16.514  0.00  0.00    +0.000 C 
ATOM     32  C   UNL     1       3.852   3.462  17.764  0.00  0.00    +0.000 C 
ENDBRANCH  30  32
BRANCH  30  33
ATOM     33  C   UNL     1       1.414   3.850  18.297  0.00  0.00    +0.000 C 
ATOM     34  C   UNL     1       1.365   2.359  18.592  0.00  0.00    +0.000 C 
ENDBRANCH  30  33
ENDBRANCH  27  30
ENDBRANCH   1  27
TORSDOF 10
ENDMDL
MODEL 2
REMARK VINA RESULT:      -7.2      1.248      1.882
REMARK  Name = 
REMARK  13 active torsions:
REMARK  status: ('A' for Active; 'I' for Inactive)
REMARK    1  A    between atoms: C_1  and  C_2
REMARK    2  A    between atoms: C_2  and  N_3
REMARK    3  A    between atoms: N_3  and  C_4
REMARK    4  A    between atoms: N_3  and  S_6
REMARK    5  A    between atoms: C_4  and  C_5
REMARK    6  A    between atoms: S_6  and  C_9
REMARK    7  A    between atoms: C_12  and  N_13
REMARK    8  A    between atoms: C_19  and  N_20
REMARK    9  A    between atoms: C_21  and  C_23
REMARK   10  A    between atoms: C_23  and  O_24
REMARK   11  A    between atoms: O_24  and  C_25
REMARK   12  A    between atoms: C_28  and  O_29
REMARK   13  A    between atoms: O_29  and  C_30
REMARK                            x       y       z     vdW  Elec       q    Type
REMARK                         _______ _______ _______ _____ _____    ______ ____
ROOT
ATOM      1  C   UNL     1       2.683   7.100  18.790  0.00  0.00    +0.000 A 
ATOM      2  C   UNL     1       2.762   8.034  17.767  0.00  0.00    +0.000 A 
ATOM      3  C   UNL     1       2.074   9.249  17.894  0.00  0.00    +0.000 A 
ATOM      4  C   UNL     1       1.270   9.574  19.011  0.00  0.00    +0.000 A 
ATOM      5  C   UNL     1       1.202   8.574  20.022  0.00  0.00    +0.000 A 
ATOM      6  C   UNL     1       1.913   7.363  19.920  0.00  0.00    +0.000 A 
ENDROOT
BRANCH   4   7
ATOM      7  N   UNL     1       0.625  10.802  19.074  0.00  0.00    +0.000 N 
ATOM      8  C   UNL     1      -0.830  11.004  18.985  0.00  0.00    +0.000 C 
ATOM      9  C   UNL     1      -1.120  12.114  17.962  0.00  0.00    +0.000 C 
ATOM     10  O   UNL     1      -0.488  13.343  18.359  0.00  0.00    +0.000 OA
ATOM     11  C   UNL     1       0.936  13.160  18.432  0.00  0.00    +0.000 C 
ATOM     12  C   UNL     1       1.330  12.047  19.417  0.00  0.00    +0.000 C 
ENDBRANCH   4   7
BRANCH   5  13
ATOM     13  N   UNL     1       0.466   8.765  21.206  0.00  0.00    +0.000 N 
ATOM     14  C   UNL     1       1.009   9.377  22.331  0.00  0.00    +0.000 C 
ATOM     15  O   UNL     1       2.166   9.768  22.438  0.00  0.00    +0.000 OA
ATOM     16  H   UNL     1      -0.541   8.787  21.112  0.00  0.00    +0.000 HD
BRANCH  14  17
ATOM     17  C   UNL     1      -0.005   9.490  23.472  0.00  0.00    +0.000 C 
BRANCH  17  18
ATOM     18  O   UNL     1      -1.239   9.929  22.920  0.00  0.00    +0.000 OA
BRANCH  18  19
ATOM     19  C   UNL     1      -1.518  11.263  23.031  0.00  0.00    +0.000 A 
ATOM     20  C   UNL     1      -0.565  12.113  22.469  0.00  0.00    +0.000 A 
ATOM     21  C   UNL     1      -0.767  13.495  22.453  0.00  0.00    +0.000 A 
ATOM     22  C   UNL     1      -1.944  14.038  22.963  0.00  0.00    +0.000 A 
ATOM     23  C   UNL     1      -2.892  13.194  23.544  0.00  0.00    +0.000 A 
ATOM     24  C   UNL     1      -2.680  11.806  23.578  0.00  0.00    +0.000 A 
BRANCH  22  25
ATOM     25  O   UNL     1      -2.046  15.399  22.877  0.00  0.00    +0.000 OA
ATOM     26  C   UNL     1      -1.254  16.009  21.865  0.00  0.00    +0.000 C 
ENDBRANCH  22  25
ENDBRANCH  18  19
ENDBRANCH  17  18
ENDBRANCH  14  17
ENDBRANCH   5  13
BRANCH   1  27
ATOM     27  S   UNL     1       3.550   5.562  18.633  0.00  0.00    +0.000 S 
ATOM     28  O   UNL     1       4.565   5.531  19.668  0.00  0.00    +0.000 OA
ATOM     29  O   UNL     1       3.890   5.374  17.243  0.00  0.00    +0.000 OA
BRANCH  27  30
ATOM     30  N   UNL     1       2.352   4.383  19.030  0.00  0.00    +0.000 NA
BRANCH  30  32
ATOM     31  C   UNL     1       2.449   2.220  17.754  0.00  0.00    +0.000 C 
ATOM     32  C   UNL     1       1.843   3.611  17.858  0.00  0.00    +0.000 C 
ENDBRANCH  30  32
BRANCH  30  33
ATOM     33  C   UNL     1       2.691   3.567  20.237  0.00  0.00    +0.000 C 
ATOM     34  C   UNL     1       1.520   3.361  21.185  0.00  0.00    +0.000 C 
ENDBRANCH  30  33
ENDBRANCH  27  30
ENDBRANCH   1  27
TORSDOF 10
ENDMDL
MODEL 3
REMARK VINA RESULT:      -7.2      1.339      1.840
REMARK  Name = 
REMARK  13 active torsions:
REMARK  status: ('A' for Active; 'I' for Inactive)
REMARK    1  A    between atoms: C_1  and  C_2
REMARK    2  A    between atoms: C_2  and  N_3
REMARK    3  A    between atoms: N_3  and  C_4
REMARK    4  A    between atoms: N_3  and  S_6
REMARK    5  A    between atoms: C_4  and  C_5
REMARK    6  A    between atoms: S_6  and  C_9
REMARK    7  A    between atoms: C_12  and  N_13
REMARK    8  A    between atoms: C_19  and  N_20
REMARK    9  A    between atoms: C_21  and  C_23
REMARK   10  A    between atoms: C_23  and  O_24
REMARK   11  A    between atoms: O_24  and  C_25
REMARK   12  A    between atoms: C_28  and  O_29
REMARK   13  A    between atoms: O_29  and  C_30
REMARK                            x       y       z     vdW  Elec       q    Type
REMARK                         _______ _______ _______ _____ _____    ______ ____
ROOT
ATOM      1  C   UNL     1       2.395   7.093  18.884  0.00  0.00    +0.000 A 
ATOM      2  C   UNL     1       2.280   7.755  17.670  0.00  0.00    +0.000 A 
ATOM      3  C   UNL     1       1.711   9.037  17.640  0.00  0.00    +0.000 A 
ATOM      4  C   UNL     1       1.215   9.694  18.790  0.00  0.00    +0.000 A 
ATOM      5  C   UNL     1       1.334   8.964  20.005  0.00  0.00    +0.000 A 
ATOM      6  C   UNL     1       1.932   7.690  20.054  0.00  0.00    +0.000 A 
ENDROOT
BRANCH   4   7
ATOM      7  N   UNL     1       0.674  10.969  18.687  0.00  0.00    +0.000 N 
ATOM      8  C   UNL     1       1.447  12.220  18.652  0.00  0.00    +0.000 C 
ATOM      9  C   UNL     1       0.842  13.211  19.659  0.00  0.00    +0.000 C 
ATOM     10  O   UNL     1      -0.532  13.485  19.333  0.00  0.00    +0.000 OA
ATOM     11  C   UNL     1      -1.299  12.271  19.381  0.00  0.00    +0.000 C 
ATOM     12  C   UNL     1      -0.755  11.200  18.420  0.00  0.00    +0.000 C 
ENDBRANCH   4   7
BRANCH   5  13
ATOM     13  N   UNL     1       0.913   9.499  21.237  0.00  0.00    +0.000 N 
ATOM     14  C   UNL     1      -0.179   8.994  21.935  0.00  0.00    +0.000 C 
ATOM     15  O   UNL     1      -0.908   8.085  21.553  0.00  0.00    +0.000 OA
ATOM     16  H   UNL     1       1.610   9.997  21.774  0.00  0.00    +0.000 HD
BRANCH  14  17
ATOM     17  C   UNL     1      -0.409   9.730  23.257  0.00  0.00    +0.000 C 
BRANCH  17  18
ATOM     18  O   UNL     1      -0.129  11.107  23.046  0.00  0.00    +0.000 OA
BRANCH  18  19
ATOM     19  C   UNL     1      -1.188  11.967  23.137  0.00  0.00    +0.000 A 
ATOM     20  C   UNL     1      -0.878  13.309  22.909  0.00  0.00    +0.000 A 
ATOM     21  C   UNL     1      -1.883  14.279  22.901  0.00  0.00    +0.000 A 
ATOM     22  C   UNL     1      -3.215  13.912  23.083  0.00  0.00    +0.000 A 
ATOM     23  C   UNL     1      -3.528  12.574  23.331  0.00  0.00    +0.000 A 
ATOM     24  C   UNL     1      -2.515  11.601  23.357  0.00  0.00    +0.000 A 
BRANCH  22  25
ATOM     25  O   UNL     1      -4.116  14.938  23.036  0.00  0.00    +0.000 OA
ATOM     26  C   UNL     1      -5.432  14.618  23.474  0.00  0.00    +0.000 C 
ENDBRANCH  22  25
ENDBRANCH  18  19
ENDBRANCH  17  18
ENDBRANCH  14  17
ENDBRANCH   5  13
BRANCH   1  27
ATOM     27  S   UNL     1       3.113   5.472  18.926  0.00  0.00    +0.000 S 
ATOM     28  O   UNL     1       4.255   5.530  19.817  0.00  0.00    +0.000 OA
ATOM     29  O   UNL     1       3.242   5.000  17.569  0.00  0.00    +0.000 OA
BRANCH  27  30
ATOM     30  N   UNL     1       1.894   4.514  19.687  0.00  0.00    +0.000 NA
BRANCH  30  32
ATOM     31  C   UNL     1       2.277   2.339  18.485  0.00  0.00    +0.000 C 
ATOM     32  C   UNL     1       1.304   3.464  18.805  0.00  0.00    +0.000 C 
ENDBRANCH  30  32
BRANCH  30  33
ATOM     33  C   UNL     1       2.261   4.061  21.065  0.00  0.00    +0.000 C 
ATOM     34  C   UNL     1       1.401   2.919  21.583  0.00  0.00    +0.000 C 
ENDBRANCH  30  33
ENDBRANCH  27  30
ENDBRANCH   1  27
TORSDOF 10
ENDMDL
MODEL 4
REMARK VINA RESULT:      -7.1      1.635      2.233
REMARK  Name = 
REMARK  13 active torsions:
REMARK  status: ('A' for Active; 'I' for Inactive)
REMARK    1  A    between atoms: C_1  and  C_2
REMARK    2  A    between atoms: C_2  and  N_3
REMARK    3  A    between atoms: N_3  and  C_4
REMARK    4  A    between atoms: N_3  and  S_6
REMARK    5  A    between atoms: C_4  and  C_5
REMARK    6  A    between atoms: S_6  and  C_9
REMARK    7  A    between atoms: C_12  and  N_13
REMARK    8  A    between atoms: C_19  and  N_20
REMARK    9  A    between atoms: C_21  and  C_23
REMARK   10  A    between atoms: C_23  and  O_24
REMARK   11  A    between atoms: O_24  and  C_25
REMARK   12  A    between atoms: C_28  and  O_29
REMARK   13  A    between atoms: O_29  and  C_30
REMARK                            x       y       z     vdW  Elec       q    Type
REMARK                         _______ _______ _______ _____ _____    ______ ____
ROOT
ATOM      1  C   UNL     1       2.632   6.983  18.794  0.00  0.00    +0.000 A 
ATOM      2  C   UNL     1       2.379   7.710  17.639  0.00  0.00    +0.000 A 
ATOM      3  C   UNL     1       1.698   8.932  17.733  0.00  0.00    +0.000 A 
ATOM      4  C   UNL     1       1.222   9.464  18.954  0.00  0.00    +0.000 A 
ATOM      5  C   UNL     1       1.485   8.671  20.106  0.00  0.00    +0.000 A 
ATOM      6  C   UNL     1       2.195   7.458  20.029  0.00  0.00    +0.000 A 
ENDROOT
BRANCH   4   7
ATOM      7  N   UNL     1       0.564  10.687  18.973  0.00  0.00    +0.000 N 
ATOM      8  C   UNL     1      -0.895  10.868  18.893  0.00  0.00    +0.000 C 
ATOM      9  C   UNL     1      -1.209  11.931  17.828  0.00  0.00    +0.000 C 
ATOM     10  O   UNL     1      -0.586  13.183  18.165  0.00  0.00    +0.000 OA
ATOM     11  C   UNL     1       0.840  13.020  18.229  0.00  0.00    +0.000 C 
ATOM     12  C   UNL     1       1.258  11.953  19.255  0.00  0.00    +0.000 C 
ENDBRANCH   4   7
BRANCH   5  13
ATOM     13  N   UNL     1       1.100   9.084  21.395  0.00  0.00    +0.000 N 
ATOM     14  C   UNL     1      -0.143   8.774  21.937  0.00  0.00    +0.000 C 
ATOM     15  O   UNL     1      -1.038   8.167  21.359  0.00  0.00    +0.000 OA
ATOM     16  H   UNL     1       1.848   9.284  22.046  0.00  0.00    +0.000 HD
BRANCH  14  17
ATOM     17  C   UNL     1      -0.302   9.313  23.360  0.00  0.00    +0.000 C 
BRANCH  17  18
ATOM     18  O   UNL     1       0.069  10.684  23.355  0.00  0.00    +0.000 OA
BRANCH  18  19
ATOM     19  C   UNL     1      -0.843  11.563  22.840  0.00  0.00    +0.000 A 
ATOM     20  C   UNL     1      -2.141  11.421  23.333  0.00  0.00    +0.000 A 
ATOM     21  C   UNL     1      -3.150  12.303  22.941  0.00  0.00    +0.000 A 
ATOM     22  C   UNL     1      -2.863  13.362  22.082  0.00  0.00    +0.000 A 
ATOM     23  C   UNL     1      -1.571  13.497  21.571  0.00  0.00    +0.000 A 
ATOM     24  C   UNL     1      -0.560  12.598  21.950  0.00  0.00    +0.000 A 
BRANCH  22  25
ATOM     25  O   UNL     1      -3.920  14.175  21.782  0.00  0.00    +0.000 OA
ATOM     26  C   UNL     1      -4.788  13.699  20.760  0.00  0.00    +0.000 C 
ENDBRANCH  22  25
ENDBRANCH  18  19
ENDBRANCH  17  18
ENDBRANCH  14  17
ENDBRANCH   5  13
BRANCH   1  27
ATOM     27  S   UNL     1       3.492   5.437  18.680  0.00  0.00    +0.000 S 
ATOM     28  O   UNL     1       4.617   5.501  19.591  0.00  0.00    +0.000 OA
ATOM     29  O   UNL     1       3.674   5.124  17.283  0.00  0.00    +0.000 OA
BRANCH  27  30
ATOM     30  N   UNL     1       2.358   4.300  19.314  0.00  0.00    +0.000 NA
BRANCH  30  32
ATOM     31  C   UNL     1       0.484   2.691  18.844  0.00  0.00    +0.000 C 
ATOM     32  C   UNL     1       1.617   3.530  18.272  0.00  0.00    +0.000 C 
ENDBRANCH  30  32
BRANCH  30  33
ATOM     33  C   UNL     1       2.895   3.488  20.450  0.00  0.00    +0.000 C 
ATOM     34  C   UNL     1       1.989   3.470  21.671  0.00  0.00    +0.000 C 
ENDBRANCH  30  33
ENDBRANCH  27  30
ENDBRANCH   1  27
TORSDOF 10
ENDMDL
MODEL 5
REMARK VINA RESULT:      -7.1      0.619      1.019
REMARK  Name = 
REMARK  13 active torsions:
REMARK  status: ('A' for Active; 'I' for Inactive)
REMARK    1  A    between atoms: C_1  and  C_2
REMARK    2  A    between atoms: C_2  and  N_3
REMARK    3  A    between atoms: N_3  and  C_4
REMARK    4  A    between atoms: N_3  and  S_6
REMARK    5  A    between atoms: C_4  and  C_5
REMARK    6  A    between atoms: S_6  and  C_9
REMARK    7  A    between atoms: C_12  and  N_13
REMARK    8  A    between atoms: C_19  and  N_20
REMARK    9  A    between atoms: C_21  and  C_23
REMARK   10  A    between atoms: C_23  and  O_24
REMARK   11  A    between atoms: O_24  and  C_25
REMARK   12  A    between atoms: C_28  and  O_29
REMARK   13  A    between atoms: O_29  and  C_30
REMARK                            x       y       z     vdW  Elec       q    Type
REMARK                         _______ _______ _______ _____ _____    ______ ____
ROOT
ATOM      1  C   UNL     1       2.472   6.974  19.382  0.00  0.00    +0.000 A 
ATOM      2  C   UNL     1       2.796   7.622  18.199  0.00  0.00    +0.000 A 
ATOM      3  C   UNL     1       2.256   8.890  17.940  0.00  0.00    +0.000 A 
ATOM      4  C   UNL     1       1.364   9.548  18.818  0.00  0.00    +0.000 A 
ATOM      5  C   UNL     1       1.044   8.834  20.006  0.00  0.00    +0.000 A 
ATOM      6  C   UNL     1       1.604   7.574  20.292  0.00  0.00    +0.000 A 
ENDROOT
BRANCH   4   7
ATOM      7  N   UNL     1       0.877  10.809  18.502  0.00  0.00    +0.000 N 
ATOM      8  C   UNL     1       1.671  12.049  18.489  0.00  0.00    +0.000 C 
ATOM      9  C   UNL     1       0.918  13.134  19.275  0.00  0.00    +0.000 C 
ATOM     10  O   UNL     1      -0.370  13.381  18.687  0.00  0.00    +0.000 OA
ATOM     11  C   UNL     1      -1.159  12.181  18.711  0.00  0.00    +0.000 C 
ATOM     12  C   UNL     1      -0.477  11.021  17.966  0.00  0.00    +0.000 C 
ENDBRANCH   4   7
BRANCH   5  13
ATOM     13  N   UNL     1       0.194   9.372  20.990  0.00  0.00    +0.000 N 
ATOM     14  C   UNL     1       0.629   9.651  22.281  0.00  0.00    +0.000 C 
ATOM     15  O   UNL     1       1.754   9.425  22.716  0.00  0.00    +0.000 OA
ATOM     16  H   UNL     1      -0.613   9.885  20.657  0.00  0.00    +0.000 HD
BRANCH  14  17
ATOM     17  C   UNL     1      -0.478  10.257  23.145  0.00  0.00    +0.000 C 
BRANCH  17  18
ATOM     18  O   UNL     1      -0.385  11.672  23.048  0.00  0.00    +0.000 OA
BRANCH  18  19
ATOM     19  C   UNL     1      -1.528  12.379  23.302  0.00  0.00    +0.000 A 
ATOM     20  C   UNL     1      -1.364  13.765  23.349  0.00  0.00    +0.000 A 
ATOM     21  C   UNL     1      -2.466  14.604  23.529  0.00  0.00    +0.000 A 
ATOM     22  C   UNL     1      -3.749  14.068  23.626  0.00  0.00    +0.000 A 
ATOM     23  C   UNL     1      -3.915  12.682  23.600  0.00  0.00    +0.000 A 
ATOM     24  C   UNL     1      -2.805  11.837  23.438  0.00  0.00    +0.000 A 
BRANCH  22  25
ATOM     25  O   UNL     1      -4.754  14.981  23.780  0.00  0.00    +0.000 OA
ATOM     26  C   UNL     1      -4.335  16.329  23.959  0.00  0.00    +0.000 C 
ENDBRANCH  22  25
ENDBRANCH  18  19
ENDBRANCH  17  18
ENDBRANCH  14  17
ENDBRANCH   5  13
BRANCH   1  27
ATOM     27  S   UNL     1       3.151   5.371  19.712  0.00  0.00    +0.000 S 
ATOM     28  O   UNL     1       2.419   4.815  20.833  0.00  0.00    +0.000 OA
ATOM     29  O   UNL     1       4.590   5.486  19.738  0.00  0.00    +0.000 OA
BRANCH  27  30
ATOM     30  N   UNL     1       2.736   4.462  18.303  0.00  0.00    +0.000 NA
BRANCH  30  32
ATOM     31  C   UNL     1       4.520   4.029  16.585  0.00  0.00    +0.000 C 
ATOM     32  C   UNL     1       3.810   3.536  17.837  0.00  0.00    +0.000 C 
ENDBRANCH  30  32
BRANCH  30  33
ATOM     33  C   UNL     1       1.361   3.876  18.352  0.00  0.00    +0.000 C 
ATOM     34  C   UNL     1       1.345   2.367  18.534  0.00  0.00    +0.000 C 
ENDBRANCH  30  33
ENDBRANCH  27  30
ENDBRANCH   1  27
TORSDOF 10
ENDMDL
MODEL 6
REMARK VINA RESULT:      -7.0      0.598      1.037
REMARK  Name = 
REMARK  13 active torsions:
REMARK  status: ('A' for Active; 'I' for Inactive)
REMARK    1  A    between atoms: C_1  and  C_2
REMARK    2  A    between atoms: C_2  and  N_3
REMARK    3  A    between atoms: N_3  and  C_4
REMARK    4  A    between atoms: N_3  and  S_6
REMARK    5  A    between atoms: C_4  and  C_5
REMARK    6  A    between atoms: S_6  and  C_9
REMARK    7  A    between atoms: C_12  and  N_13
REMARK    8  A    between atoms: C_19  and  N_20
REMARK    9  A    between atoms: C_21  and  C_23
REMARK   10  A    between atoms: C_23  and  O_24
REMARK   11  A    between atoms: O_24  and  C_25
REMARK   12  A    between atoms: C_28  and  O_29
REMARK   13  A    between atoms: O_29  and  C_30
REMARK                            x       y       z     vdW  Elec       q    Type
REMARK                         _______ _______ _______ _____ _____    ______ ____
ROOT
ATOM      1  C   UNL     1       2.489   6.907  19.401  0.00  0.00    +0.000 A 
ATOM      2  C   UNL     1       2.704   7.616  18.228  0.00  0.00    +0.000 A 
ATOM      3  C   UNL     1       2.023   8.825  18.023  0.00  0.00    +0.000 A 
ATOM      4  C   UNL     1       1.094   9.360  18.946  0.00  0.00    +0.000 A 
ATOM      5  C   UNL     1       0.891   8.584  20.121  0.00  0.00    +0.000 A 
ATOM      6  C   UNL     1       1.592   7.385  20.353  0.00  0.00    +0.000 A 
ENDROOT
BRANCH   4   7
ATOM      7  N   UNL     1       0.464  10.569  18.681  0.00  0.00    +0.000 N 
ATOM      8  C   UNL     1       1.101  11.894  18.760  0.00  0.00    +0.000 C 
ATOM      9  C   UNL     1       0.200  12.833  19.578  0.00  0.00    +0.000 C 
ATOM     10  O   UNL     1      -1.093  12.956  18.961  0.00  0.00    +0.000 OA
ATOM     11  C   UNL     1      -1.729  11.670  18.894  0.00  0.00    +0.000 C 
ATOM     12  C   UNL     1      -0.890  10.645  18.112  0.00  0.00    +0.000 C 
ENDBRANCH   4   7
BRANCH   5  13
ATOM     13  N   UNL     1       0.020   9.002  21.144  0.00  0.00    +0.000 N 
ATOM     14  C   UNL     1       0.352  10.014  22.039  0.00  0.00    +0.000 C 
ATOM     15  O   UNL     1       1.424  10.610  22.072  0.00  0.00    +0.000 OA
ATOM     16  H   UNL     1      -0.965   8.822  20.999  0.00  0.00    +0.000 HD
BRANCH  14  17
ATOM     17  C   UNL     1      -0.776  10.298  23.033  0.00  0.00    +0.000 C 
BRANCH  17  18
ATOM     18  O   UNL     1      -1.690  11.193  22.415  0.00  0.00    +0.000 OA
BRANCH  18  19
ATOM     19  C   UNL     1      -2.100  12.262  23.162  0.00  0.00    +0.000 A 
ATOM     20  C   UNL     1      -1.174  13.302  23.262  0.00  0.00    +0.000 A 
ATOM     21  C   UNL     1      -1.498  14.480  23.938  0.00  0.00    +0.000 A 
ATOM     22  C   UNL     1      -2.768  14.647  24.488  0.00  0.00    +0.000 A 
ATOM     23  C   UNL     1      -3.691  13.604  24.408  0.00  0.00    +0.000 A 
ATOM     24  C   UNL     1      -3.358  12.411  23.744  0.00  0.00    +0.000 A 
BRANCH  22  25
ATOM     25  O   UNL     1      -2.984  15.846  25.108  0.00  0.00    +0.000 OA
ATOM     26  C   UNL     1      -1.854  16.407  25.767  0.00  0.00    +0.000 C 
ENDBRANCH  22  25
ENDBRANCH  18  19
ENDBRANCH  17  18
ENDBRANCH  14  17
ENDBRANCH   5  13
BRANCH   1  27
ATOM     27  S   UNL     1       3.346   5.378  19.663  0.00  0.00    +0.000 S 
ATOM     28  O   UNL     1       2.772   4.758  20.841  0.00  0.00    +0.000 OA
ATOM     29  O   UNL     1       4.764   5.632  19.565  0.00  0.00    +0.000 OA
BRANCH  27  30
ATOM     30  N   UNL     1       2.901   4.427  18.292  0.00  0.00    +0.000 NA
BRANCH  30  32
ATOM     31  C   UNL     1       4.734   3.438  16.884  0.00  0.00    +0.000 C 
ATOM     32  C   UNL     1       3.791   4.611  17.108  0.00  0.00    +0.000 C 
ENDBRANCH  30  32
BRANCH  30  33
ATOM     33  C   UNL     1       2.567   3.009  18.629  0.00  0.00    +0.000 C 
ATOM     34  C   UNL     1       1.075   2.717  18.637  0.00  0.00    +0.000 C 
ENDBRANCH  30  33
ENDBRANCH  27  30
ENDBRANCH   1  27
TORSDOF 10
ENDMDL
MODEL 7
REMARK VINA RESULT:      -7.0      1.622      2.248
REMARK  Name = 
REMARK  13 active torsions:
REMARK  status: ('A' for Active; 'I' for Inactive)
REMARK    1  A    between atoms: C_1  and  C_2
REMARK    2  A    between atoms: C_2  and  N_3
REMARK    3  A    between atoms: N_3  and  C_4
REMARK    4  A    between atoms: N_3  and  S_6
REMARK    5  A    between atoms: C_4  and  C_5
REMARK    6  A    between atoms: S_6  and  C_9
REMARK    7  A    between atoms: C_12  and  N_13
REMARK    8  A    between atoms: C_19  and  N_20
REMARK    9  A    between atoms: C_21  and  C_23
REMARK   10  A    between atoms: C_23  and  O_24
REMARK   11  A    between atoms: O_24  and  C_25
REMARK   12  A    between atoms: C_28  and  O_29
REMARK   13  A    between atoms: O_29  and  C_30
REMARK                            x       y       z     vdW  Elec       q    Type
REMARK                         _______ _______ _______ _____ _____    ______ ____
ROOT
ATOM      1  C   UNL     1       2.513   7.195  18.789  0.00  0.00    +0.000 A 
ATOM      2  C   UNL     1       2.732   8.128  17.785  0.00  0.00    +0.000 A 
ATOM      3  C   UNL     1       2.090   9.373  17.856  0.00  0.00    +0.000 A 
ATOM      4  C   UNL     1       1.198   9.730  18.894  0.00  0.00    +0.000 A 
ATOM      5  C   UNL     1       0.990   8.732  19.885  0.00  0.00    +0.000 A 
ATOM      6  C   UNL     1       1.652   7.489  19.843  0.00  0.00    +0.000 A 
ENDROOT
BRANCH   4   7
ATOM      7  N   UNL     1       0.607  10.987  18.904  0.00  0.00    +0.000 N 
ATOM      8  C   UNL     1      -0.799  11.267  18.572  0.00  0.00    +0.000 C 
ATOM      9  C   UNL     1      -0.855  12.432  17.572  0.00  0.00    +0.000 C 
ATOM     10  O   UNL     1      -0.250  13.609  18.134  0.00  0.00    +0.000 OA
ATOM     11  C   UNL     1       1.129  13.350  18.446  0.00  0.00    +0.000 C 
ATOM     12  C   UNL     1       1.294  12.178  19.427  0.00  0.00    +0.000 C 
ENDBRANCH   4   7
BRANCH   5  13
ATOM     13  N   UNL     1       0.153   8.951  20.996  0.00  0.00    +0.000 N 
ATOM     14  C   UNL     1       0.596   9.592  22.148  0.00  0.00    +0.000 C 
ATOM     15  O   UNL     1       1.741   9.986  22.346  0.00  0.00    +0.000 OA
ATOM     16  H   UNL     1      -0.842   8.971  20.813  0.00  0.00    +0.000 HD
BRANCH  14  17
ATOM     17  C   UNL     1      -0.513   9.733  23.192  0.00  0.00    +0.000 C 
BRANCH  17  18
ATOM     18  O   UNL     1      -0.629  11.109  23.526  0.00  0.00    +0.000 OA
BRANCH  18  19
ATOM     19  C   UNL     1      -1.734  11.762  23.053  0.00  0.00    +0.000 A 
ATOM     20  C   UNL     1      -1.650  12.174  21.722  0.00  0.00    +0.000 A 
ATOM     21  C   UNL     1      -2.739  12.789  21.099  0.00  0.00    +0.000 A 
ATOM     22  C   UNL     1      -3.937  12.962  21.789  0.00  0.00    +0.000 A 
ATOM     23  C   UNL     1      -4.020  12.570  23.126  0.00  0.00    +0.000 A 
ATOM     24  C   UNL     1      -2.918  11.969  23.759  0.00  0.00    +0.000 A 
BRANCH  22  25
ATOM     25  O   UNL     1      -4.942  13.555  21.077  0.00  0.00    +0.000 OA
ATOM     26  C   UNL     1      -6.262  13.232  21.496  0.00  0.00    +0.000 C 
ENDBRANCH  22  25
ENDBRANCH  18  19
ENDBRANCH  17  18
ENDBRANCH  14  17
ENDBRANCH   5  13
BRANCH   1  27
ATOM     27  S   UNL     1       3.321   5.619  18.703  0.00  0.00    +0.000 S 
ATOM     28  O   UNL     1       4.392   5.630  19.680  0.00  0.00    +0.000 OA
ATOM     29  O   UNL     1       3.574   5.316  17.315  0.00  0.00    +0.000 OA
BRANCH  27  30
ATOM     30  N   UNL     1       2.111   4.517  19.254  0.00  0.00    +0.000 NA
BRANCH  30  32
ATOM     31  C   UNL     1       2.575   2.395  17.989  0.00  0.00    +0.000 C 
ATOM     32  C   UNL     1       1.630   3.567  18.209  0.00  0.00    +0.000 C 
ENDBRANCH  30  32
BRANCH  30  33
ATOM     33  C   UNL     1       2.417   3.906  20.584  0.00  0.00    +0.000 C 
ATOM     34  C   UNL     1       1.278   3.075  21.153  0.00  0.00    +0.000 C 
ENDBRANCH  30  33
ENDBRANCH  27  30
ENDBRANCH   1  27
TORSDOF 10
ENDMDL
MODEL 8
REMARK VINA RESULT:      -7.0      1.156      1.301
REMARK  Name = 
REMARK  13 active torsions:
REMARK  status: ('A' for Active; 'I' for Inactive)
REMARK    1  A    between atoms: C_1  and  C_2
REMARK    2  A    between atoms: C_2  and  N_3
REMARK    3  A    between atoms: N_3  and  C_4
REMARK    4  A    between atoms: N_3  and  S_6
REMARK    5  A    between atoms: C_4  and  C_5
REMARK    6  A    between atoms: S_6  and  C_9
REMARK    7  A    between atoms: C_12  and  N_13
REMARK    8  A    between atoms: C_19  and  N_20
REMARK    9  A    between atoms: C_21  and  C_23
REMARK   10  A    between atoms: C_23  and  O_24
REMARK   11  A    between atoms: O_24  and  C_25
REMARK   12  A    between atoms: C_28  and  O_29
REMARK   13  A    between atoms: O_29  and  C_30
REMARK                            x       y       z     vdW  Elec       q    Type
REMARK                         _______ _______ _______ _____ _____    ______ ____
ROOT
ATOM      1  C   UNL     1       2.541   7.215  18.822  0.00  0.00    +0.000 A 
ATOM      2  C   UNL     1       2.218   7.761  17.588  0.00  0.00    +0.000 A 
ATOM      3  C   UNL     1       1.445   8.930  17.538  0.00  0.00    +0.000 A 
ATOM      4  C   UNL     1       0.945   9.581  18.690  0.00  0.00    +0.000 A 
ATOM      5  C   UNL     1       1.284   8.969  19.929  0.00  0.00    +0.000 A 
ATOM      6  C   UNL     1       2.086   7.813  19.994  0.00  0.00    +0.000 A 
ENDROOT
BRANCH   4   7
ATOM      7  N   UNL     1       0.194  10.743  18.564  0.00  0.00    +0.000 N 
ATOM      8  C   UNL     1       0.739  12.110  18.552  0.00  0.00    +0.000 C 
ATOM      9  C   UNL     1      -0.063  12.977  19.535  0.00  0.00    +0.000 C 
ATOM     10  O   UNL     1      -1.452  13.009  19.162  0.00  0.00    +0.000 OA
ATOM     11  C   UNL     1      -1.997  11.680  19.188  0.00  0.00    +0.000 C 
ATOM     12  C   UNL     1      -1.243  10.723  18.249  0.00  0.00    +0.000 C 
ENDBRANCH   4   7
BRANCH   5  13
ATOM     13  N   UNL     1       0.885   9.518  21.161  0.00  0.00    +0.000 N 
ATOM     14  C   UNL     1      -0.208   9.037  21.873  0.00  0.00    +0.000 C 
ATOM     15  O   UNL     1      -0.958   8.139  21.503  0.00  0.00    +0.000 OA
ATOM     16  H   UNL     1       1.597  10.007  21.689  0.00  0.00    +0.000 HD
BRANCH  14  17
ATOM     17  C   UNL     1      -0.412   9.784  23.193  0.00  0.00    +0.000 C 
BRANCH  17  18
ATOM     18  O   UNL     1      -0.076  11.148  22.981  0.00  0.00    +0.000 OA
BRANCH  18  19
ATOM     19  C   UNL     1      -1.089  12.056  23.116  0.00  0.00    +0.000 A 
ATOM     20  C   UNL     1      -2.348  11.503  23.351  0.00  0.00    +0.000 A 
ATOM     21  C   UNL     1      -3.454  12.326  23.578  0.00  0.00    +0.000 A 
ATOM     22  C   UNL     1      -3.304  13.711  23.611  0.00  0.00    +0.000 A 
ATOM     23  C   UNL     1      -2.050  14.270  23.357  0.00  0.00    +0.000 A 
ATOM     24  C   UNL     1      -0.942  13.442  23.110  0.00  0.00    +0.000 A 
BRANCH  22  25
ATOM     25  O   UNL     1      -4.447  14.417  23.862  0.00  0.00    +0.000 OA
ATOM     26  C   UNL     1      -4.255  15.731  24.374  0.00  0.00    +0.000 C 
ENDBRANCH  22  25
ENDBRANCH  18  19
ENDBRANCH  17  18
ENDBRANCH  14  17
ENDBRANCH   5  13
BRANCH   1  27
ATOM     27  S   UNL     1       3.518   5.736  18.890  0.00  0.00    +0.000 S 
ATOM     28  O   UNL     1       4.029   5.620  20.242  0.00  0.00    +0.000 OA
ATOM     29  O   UNL     1       4.401   5.725  17.749  0.00  0.00    +0.000 OA
BRANCH  27  30
ATOM     30  N   UNL     1       2.358   4.479  18.651  0.00  0.00    +0.000 NA
BRANCH  30  32
ATOM     31  C   UNL     1       3.045   2.332  17.537  0.00  0.00    +0.000 C 
ATOM     32  C   UNL     1       2.511   3.746  17.360  0.00  0.00    +0.000 C 
ENDBRANCH  30  32
BRANCH  30  33
ATOM     33  C   UNL     1       2.151   3.618  19.856  0.00  0.00    +0.000 C 
ATOM     34  C   UNL     1       0.768   3.752  20.473  0.00  0.00    +0.000 C 
ENDBRANCH  30  33
ENDBRANCH  27  30
ENDBRANCH   1  27
TORSDOF 10
ENDMDL
MODEL 9
REMARK VINA RESULT:      -6.9      1.819      2.332
REMARK  Name = 
REMARK  13 active torsions:
REMARK  status: ('A' for Active; 'I' for Inactive)
REMARK    1  A    between atoms: C_1  and  C_2
REMARK    2  A    between atoms: C_2  and  N_3
REMARK    3  A    between atoms: N_3  and  C_4
REMARK    4  A    between atoms: N_3  and  S_6
REMARK    5  A    between atoms: C_4  and  C_5
REMARK    6  A    between atoms: S_6  and  C_9
REMARK    7  A    between atoms: C_12  and  N_13
REMARK    8  A    between atoms: C_19  and  N_20
REMARK    9  A    between atoms: C_21  and  C_23
REMARK   10  A    between atoms: C_23  and  O_24
REMARK   11  A    between atoms: O_24  and  C_25
REMARK   12  A    between atoms: C_28  and  O_29
REMARK   13  A    between atoms: O_29  and  C_30
REMARK                            x       y       z     vdW  Elec       q    Type
REMARK                         _______ _______ _______ _____ _____    ______ ____
ROOT
ATOM      1  C   UNL     1       2.590   7.122  18.779  0.00  0.00    +0.000 A 
ATOM      2  C   UNL     1       2.818   8.075  17.797  0.00  0.00    +0.000 A 
ATOM      3  C   UNL     1       2.172   9.318  17.885  0.00  0.00    +0.000 A 
ATOM      4  C   UNL     1       1.267   9.652  18.919  0.00  0.00    +0.000 A 
ATOM      5  C   UNL     1       1.049   8.633  19.888  0.00  0.00    +0.000 A 
ATOM      6  C   UNL     1       1.715   7.393  19.828  0.00  0.00    +0.000 A 
ENDROOT
BRANCH   4   7
ATOM      7  N   UNL     1       0.672  10.906  18.948  0.00  0.00    +0.000 N 
ATOM      8  C   UNL     1      -0.763  11.170  18.760  0.00  0.00    +0.000 C 
ATOM      9  C   UNL     1      -0.934  12.298  17.730  0.00  0.00    +0.000 C 
ATOM     10  O   UNL     1      -0.279  13.496  18.180  0.00  0.00    +0.000 OA
ATOM     11  C   UNL     1       1.127  13.253  18.350  0.00  0.00    +0.000 C 
ATOM     12  C   UNL     1       1.404  12.118  19.350  0.00  0.00    +0.000 C 
ENDBRANCH   4   7
BRANCH   5  13
ATOM     13  N   UNL     1       0.199   8.828  20.992  0.00  0.00    +0.000 N 
ATOM     14  C   UNL     1       0.643   9.387  22.186  0.00  0.00    +0.000 C 
ATOM     15  O   UNL     1       1.799   9.721  22.427  0.00  0.00    +0.000 OA
ATOM     16  H   UNL     1      -0.790   8.899  20.792  0.00  0.00    +0.000 HD
BRANCH  14  17
ATOM     17  C   UNL     1      -0.481   9.518  23.215  0.00  0.00    +0.000 C 
BRANCH  17  18
ATOM     18  O   UNL     1      -0.490  10.859  23.687  0.00  0.00    +0.000 OA
BRANCH  18  19
ATOM     19  C   UNL     1      -1.245  11.752  22.980  0.00  0.00    +0.000 A 
ATOM     20  C   UNL     1      -2.602  11.765  23.307  0.00  0.00    +0.000 A 
ATOM     21  C   UNL     1      -3.468  12.682  22.708  0.00  0.00    +0.000 A 
ATOM     22  C   UNL     1      -2.980  13.622  21.802  0.00  0.00    +0.000 A 
ATOM     23  C   UNL     1      -1.628  13.600  21.456  0.00  0.00    +0.000 A 
ATOM     24  C   UNL     1      -0.760  12.666  22.045  0.00  0.00    +0.000 A 
BRANCH  22  25
ATOM     25  O   UNL     1      -3.911  14.483  21.293  0.00  0.00    +0.000 OA
ATOM     26  C   UNL     1      -5.085  14.650  22.079  0.00  0.00    +0.000 C 
ENDBRANCH  22  25
ENDBRANCH  18  19
ENDBRANCH  17  18
ENDBRANCH  14  17
ENDBRANCH   5  13
BRANCH   1  27
ATOM     27  S   UNL     1       3.403   5.550  18.672  0.00  0.00    +0.000 S 
ATOM     28  O   UNL     1       2.647   4.737  17.740  0.00  0.00    +0.000 OA
ATOM     29  O   UNL     1       3.682   5.094  20.012  0.00  0.00    +0.000 OA
BRANCH  27  30
ATOM     30  N   UNL     1       4.918   5.932  17.935  0.00  0.00    +0.000 NA
BRANCH  30  32
ATOM     31  C   UNL     1       7.276   5.092  18.166  0.00  0.00    +0.000 C 
ATOM     32  C   UNL     1       6.093   5.772  18.841  0.00  0.00    +0.000 C 
ENDBRANCH  30  32
BRANCH  30  33
ATOM     33  C   UNL     1       5.081   5.354  16.565  0.00  0.00    +0.000 C 
ATOM     34  C   UNL     1       5.280   6.401  15.480  0.00  0.00    +0.000 C 
ENDBRANCH  30  33
ENDBRANCH  27  30
ENDBRANCH   1  27
TORSDOF 10
ENDMDL
