MODEL 1
REMARK VINA RESULT:      -7.6      0.000      0.000
REMARK  Name = 
REMARK  5 active torsions:
REMARK  status: ('A' for Active; 'I' for Inactive)
REMARK    1  A    between atoms: S_2  and  C_4
REMARK    2  A    between atoms: S_2  and  N_10
REMARK    3  A    between atoms: C_14  and  C_15
REMARK    4  A    between atoms: C_15  and  O_16
REMARK    5  A    between atoms: O_16  and  C_17
REMARK                            x       y       z     vdW  Elec       q    Type
REMARK                         _______ _______ _______ _____ _____    ______ ____
ROOT
ATOM      1  N   UNL     1       2.570   4.382  18.392  0.00  0.00    +0.000 NA
ATOM      2  C   UNL     1       1.417   3.447  18.524  0.00  0.00    +0.000 C 
ATOM      3  C   UNL     1       2.034   2.130  18.955  0.00  0.00    +0.000 C 
ATOM      4  C   UNL     1       3.325   2.065  18.164  0.00  0.00    +0.000 C 
ATOM      5  C   UNL     1       3.754   3.528  17.961  0.00  0.00    +0.000 C 
ENDROOT
BRANCH   1   7
ATOM      6  O   UNL     1       4.372   5.339  19.928  0.00  0.00    +0.000 OA
ATOM      7  S   UNL     1       2.935   5.332  19.780  0.00  0.00    +0.000 S 
ATOM      8  O   UNL     1       2.078   4.877  20.855  0.00  0.00    +0.000 OA
BRANCH   7   9
ATOM      9  C   UNL     1       2.462   6.981  19.378  0.00  0.00    +0.000 A 
ATOM     10  C   UNL     1       2.614   7.498  18.089  0.00  0.00    +0.000 A 
ATOM     11  C   UNL     1       2.047   8.736  17.789  0.00  0.00    +0.000 A 
ATOM     12  C   UNL     1       1.365   9.407  18.790  0.00  0.00    +0.000 A 
ATOM     13  N   UNL     1       1.220   8.934  20.050  0.00  0.00    +0.000 NA
ATOM     14  C   UNL     1       1.761   7.718  20.312  0.00  0.00    +0.000 A 
ENDBRANCH   7   9
ENDBRANCH   1   7
BRANCH   5  15
ATOM     15  C   UNL     1       4.124   3.792  16.490  0.00  0.00    +0.000 C 
BRANCH  15  16
ATOM     16  O   UNL     1       5.554   3.757  16.377  0.00  0.00    +0.000 OA
BRANCH  16  17
ATOM     17  C   UNL     1       6.244   4.774  16.975  0.00  0.00    +0.000 A 
ATOM     18  C   UNL     1       5.848   6.063  16.607  0.00  0.00    +0.000 A 
ATOM     19  C   UNL     1       6.481   7.184  17.148  0.00  0.00    +0.000 A 
ATOM     20  C   UNL     1       7.503   7.021  18.080  0.00  0.00    +0.000 A 
ATOM     21  C   UNL     1       7.880   5.738  18.476  0.00  0.00    +0.000 A 
ATOM     22  C   UNL     1       7.251   4.616  17.928  0.00  0.00    +0.000 A 
ENDBRANCH  16  17
ENDBRANCH  15  16
ENDBRANCH   5  15
TORSDOF 5
ENDMDL
MODEL 2
REMARK VINA RESULT:      -7.3      2.227      5.401
REMARK  Name = 
REMARK  5 active torsions:
REMARK  status: ('A' for Active; 'I' for Inactive)
REMARK    1  A    between atoms: S_2  and  C_4
REMARK    2  A    between atoms: S_2  and  N_10
REMARK    3  A    between atoms: C_14  and  C_15
REMARK    4  A    between atoms: C_15  and  O_16
REMARK    5  A    between atoms: O_16  and  C_17
REMARK                            x       y       z     vdW  Elec       q    Type
REMARK                         _______ _______ _______ _____ _____    ______ ____
ROOT
ATOM      1  N   UNL     1       3.168   3.615  19.405  0.00  0.00    +0.000 NA
ATOM      2  C   UNL     1       2.758   2.624  20.440  0.00  0.00    +0.000 C 
ATOM      3  C   UNL     1       1.244   2.703  20.474  0.00  0.00    +0.000 C 
ATOM      4  C   UNL     1       0.961   4.180  20.296  0.00  0.00    +0.000 C 
ATOM      5  C   UNL     1       2.125   4.723  19.451  0.00  0.00    +0.000 C 
ENDROOT
BRANCH   1   7
ATOM      6  O   UNL     1       2.251   3.437  17.029  0.00  0.00    +0.000 OA
ATOM      7  S   UNL     1       3.383   3.000  17.812  0.00  0.00    +0.000 S 
ATOM      8  O   UNL     1       3.709   1.595  17.930  0.00  0.00    +0.000 OA
BRANCH   7   9
ATOM      9  C   UNL     1       4.797   3.826  17.159  0.00  0.00    +0.000 A 
ATOM     10  C   UNL     1       4.945   4.062  15.790  0.00  0.00    +0.000 A 
ATOM     11  C   UNL     1       5.984   4.884  15.356  0.00  0.00    +0.000 A 
ATOM     12  C   UNL     1       6.834   5.425  16.307  0.00  0.00    +0.000 A 
ATOM     13  N   UNL     1       6.720   5.196  17.636  0.00  0.00    +0.000 NA
ATOM     14  C   UNL     1       5.688   4.411  18.035  0.00  0.00    +0.000 A 
ENDBRANCH   7   9
ENDBRANCH   1   7
BRANCH   5  15
ATOM     15  C   UNL     1       2.703   6.007  20.072  0.00  0.00    +0.000 C 
BRANCH  15  16
ATOM     16  O   UNL     1       2.845   6.982  19.029  0.00  0.00    +0.000 OA
BRANCH  16  17
ATOM     17  C   UNL     1       1.996   8.052  19.067  0.00  0.00    +0.000 A 
ATOM     18  C   UNL     1       1.457   8.343  20.324  0.00  0.00    +0.000 A 
ATOM     19  C   UNL     1       0.573   9.411  20.489  0.00  0.00    +0.000 A 
ATOM     20  C   UNL     1       0.239  10.210  19.398  0.00  0.00    +0.000 A 
ATOM     21  C   UNL     1       0.799   9.945  18.149  0.00  0.00    +0.000 A 
ATOM     22  C   UNL     1       1.678   8.870  17.982  0.00  0.00    +0.000 A 
ENDBRANCH  16  17
ENDBRANCH  15  16
ENDBRANCH   5  15
TORSDOF 5
ENDMDL
MODEL 3
REMARK VINA RESULT:      -7.2      2.224      5.269
REMARK  Name = 
REMARK  5 active torsions:
REMARK  status: ('A' for Active; 'I' for Inactive)
REMARK    1  A    between atoms: S_2  and  C_4
REMARK    2  A    between atoms: S_2  and  N_10
REMARK    3  A    between atoms: C_14  and  C_15
REMARK    4  A    between atoms: C_15  and  O_16
REMARK    5  A    between atoms: O_16  and  C_17
REMARK                            x       y       z     vdW  Elec       q    Type
REMARK                         _______ _______ _______ _____ _____    ______ ____
ROOT
ATOM      1  N   UNL     1       3.141   3.634  19.439  0.00  0.00    +0.000 NA
ATOM      2  C   UNL     1       2.845   2.627  20.498  0.00  0.00    +0.000 C 
ATOM      3  C   UNL     1       1.331   2.589  20.583  0.00  0.00    +0.000 C 
ATOM      4  C   UNL     1       0.928   4.038  20.401  0.00  0.00    +0.000 C 
ATOM      5  C   UNL     1       2.017   4.658  19.511  0.00  0.00    +0.000 C 
ENDROOT
BRANCH   1   7
ATOM      6  O   UNL     1       2.218   3.462  17.065  0.00  0.00    +0.000 OA
ATOM      7  S   UNL     1       3.348   3.017  17.846  0.00  0.00    +0.000 S 
ATOM      8  O   UNL     1       3.665   1.609  17.963  0.00  0.00    +0.000 OA
BRANCH   7   9
ATOM      9  C   UNL     1       4.767   3.833  17.190  0.00  0.00    +0.000 A 
ATOM     10  C   UNL     1       4.878   4.139  15.832  0.00  0.00    +0.000 A 
ATOM     11  C   UNL     1       5.930   4.951  15.408  0.00  0.00    +0.000 A 
ATOM     12  C   UNL     1       6.828   5.411  16.356  0.00  0.00    +0.000 A 
ATOM     13  N   UNL     1       6.750   5.112  17.674  0.00  0.00    +0.000 NA
ATOM     14  C   UNL     1       5.706   4.340  18.066  0.00  0.00    +0.000 A 
ENDBRANCH   7   9
ENDBRANCH   1   7
BRANCH   5  15
ATOM     15  C   UNL     1       2.515   5.990  20.098  0.00  0.00    +0.000 C 
BRANCH  15  16
ATOM     16  O   UNL     1       2.732   6.903  19.012  0.00  0.00    +0.000 OA
BRANCH  16  17
ATOM     17  C   UNL     1       2.087   8.106  19.080  0.00  0.00    +0.000 A 
ATOM     18  C   UNL     1       2.151   8.885  17.922  0.00  0.00    +0.000 A 
ATOM     19  C   UNL     1       1.534  10.136  17.871  0.00  0.00    +0.000 A 
ATOM     20  C   UNL     1       0.828  10.607  18.975  0.00  0.00    +0.000 A 
ATOM     21  C   UNL     1       0.732   9.820  20.122  0.00  0.00    +0.000 A 
ATOM     22  C   UNL     1       1.357   8.570  20.175  0.00  0.00    +0.000 A 
ENDBRANCH  16  17
ENDBRANCH  15  16
ENDBRANCH   5  15
TORSDOF 5
ENDMDL
MODEL 4
REMARK VINA RESULT:      -7.2      1.899      5.183
REMARK  Name = 
REMARK  5 active torsions:
REMARK  status: ('A' for Active; 'I' for Inactive)
REMARK    1  A    between atoms: S_2  and  C_4
REMARK    2  A    between atoms: S_2  and  N_10
REMARK    3  A    between atoms: C_14  and  C_15
REMARK    4  A    between atoms: C_15  and  O_16
REMARK    5  A    between atoms: O_16  and  C_17
REMARK                            x       y       z     vdW  Elec       q    Type
REMARK                         _______ _______ _______ _____ _____    ______ ____
ROOT
ATOM      1  N   UNL     1       3.243   4.046  19.579  0.00  0.00    +0.000 NA
ATOM      2  C   UNL     1       3.177   2.690  20.195  0.00  0.00    +0.000 C 
ATOM      3  C   UNL     1       1.793   2.174  19.849  0.00  0.00    +0.000 C 
ATOM      4  C   UNL     1       0.914   3.402  19.971  0.00  0.00    +0.000 C 
ATOM      5  C   UNL     1       1.822   4.593  19.620  0.00  0.00    +0.000 C 
ENDROOT
BRANCH   1   7
ATOM      6  O   UNL     1       3.108   5.048  17.234  0.00  0.00    +0.000 OA
ATOM      7  S   UNL     1       3.917   4.126  17.998  0.00  0.00    +0.000 S 
ATOM      8  O   UNL     1       4.126   2.767  17.545  0.00  0.00    +0.000 OA
BRANCH   7   9
ATOM      9  C   UNL     1       5.500   4.879  18.183  0.00  0.00    +0.000 A 
ATOM     10  C   UNL     1       6.065   5.664  17.174  0.00  0.00    +0.000 A 
ATOM     11  C   UNL     1       7.226   6.385  17.453  0.00  0.00    +0.000 A 
ATOM     12  C   UNL     1       7.776   6.282  18.719  0.00  0.00    +0.000 A 
ATOM     13  N   UNL     1       7.256   5.514  19.705  0.00  0.00    +0.000 NA
ATOM     14  C   UNL     1       6.114   4.840  19.418  0.00  0.00    +0.000 A 
ENDBRANCH   7   9
ENDBRANCH   1   7
BRANCH   5  15
ATOM     15  C   UNL     1       1.687   5.714  20.665  0.00  0.00    +0.000 C 
BRANCH  15  16
ATOM     16  O   UNL     1       2.560   6.787  20.284  0.00  0.00    +0.000 OA
BRANCH  16  17
ATOM     17  C   UNL     1       1.982   7.861  19.667  0.00  0.00    +0.000 A 
ATOM     18  C   UNL     1       1.149   8.638  20.478  0.00  0.00    +0.000 A 
ATOM     19  C   UNL     1       0.499   9.760  19.960  0.00  0.00    +0.000 A 
ATOM     20  C   UNL     1       0.696  10.124  18.630  0.00  0.00    +0.000 A 
ATOM     21  C   UNL     1       1.553   9.373  17.827  0.00  0.00    +0.000 A 
ATOM     22  C   UNL     1       2.198   8.245  18.343  0.00  0.00    +0.000 A 
ENDBRANCH  16  17
ENDBRANCH  15  16
ENDBRANCH   5  15
TORSDOF 5
ENDMDL
MODEL 5
REMARK VINA RESULT:      -7.2      2.135      5.256
REMARK  Name = 
REMARK  5 active torsions:
REMARK  status: ('A' for Active; 'I' for Inactive)
REMARK    1  A    between atoms: S_2  and  C_4
REMARK    2  A    between atoms: S_2  and  N_10
REMARK    3  A    between atoms: C_14  and  C_15
REMARK    4  A    between atoms: C_15  and  O_16
REMARK    5  A    between atoms: O_16  and  C_17
REMARK                            x       y       z     vdW  Elec       q    Type
REMARK                         _______ _______ _______ _____ _____    ______ ____
ROOT
ATOM      1  N   UNL     1       2.932   3.983  19.441  0.00  0.00    +0.000 NA
ATOM      2  C   UNL     1       3.443   2.933  20.368  0.00  0.00    +0.000 C 
ATOM      3  C   UNL     1       2.199   2.246  20.898  0.00  0.00    +0.000 C 
ATOM      4  C   UNL     1       1.212   3.383  21.075  0.00  0.00    +0.000 C 
ATOM      5  C   UNL     1       1.589   4.422  20.006  0.00  0.00    +0.000 C 
ENDROOT
BRANCH   1   7
ATOM      6  O   UNL     1       1.595   4.110  17.270  0.00  0.00    +0.000 OA
ATOM      7  S   UNL     1       2.817   3.535  17.783  0.00  0.00    +0.000 S 
ATOM      8  O   UNL     1       3.062   2.111  17.700  0.00  0.00    +0.000 OA
BRANCH   7   9
ATOM      9  C   UNL     1       4.144   4.358  16.965  0.00  0.00    +0.000 A 
ATOM     10  C   UNL     1       4.318   5.741  17.051  0.00  0.00    +0.000 A 
ATOM     11  C   UNL     1       5.488   6.305  16.544  0.00  0.00    +0.000 A 
ATOM     12  C   UNL     1       6.425   5.466  15.965  0.00  0.00    +0.000 A 
ATOM     13  N   UNL     1       6.270   4.126  15.855  0.00  0.00    +0.000 NA
ATOM     14  C   UNL     1       5.134   3.598  16.376  0.00  0.00    +0.000 A 
ENDBRANCH   7   9
ENDBRANCH   1   7
BRANCH   5  15
ATOM     15  C   UNL     1       1.677   5.832  20.618  0.00  0.00    +0.000 C 
BRANCH  15  16
ATOM     16  O   UNL     1       2.522   6.630  19.777  0.00  0.00    +0.000 OA
BRANCH  16  17
ATOM     17  C   UNL     1       2.036   7.850  19.396  0.00  0.00    +0.000 A 
ATOM     18  C   UNL     1       1.330   8.546  20.380  0.00  0.00    +0.000 A 
ATOM     19  C   UNL     1       0.781   9.801  20.109  0.00  0.00    +0.000 A 
ATOM     20  C   UNL     1       0.956  10.377  18.853  0.00  0.00    +0.000 A 
ATOM     21  C   UNL     1       1.688   9.702  17.877  0.00  0.00    +0.000 A 
ATOM     22  C   UNL     1       2.231   8.442  18.147  0.00  0.00    +0.000 A 
ENDBRANCH  16  17
ENDBRANCH  15  16
ENDBRANCH   5  15
TORSDOF 5
ENDMDL
MODEL 6
REMARK VINA RESULT:      -7.1      2.241      5.034
REMARK  Name = 
REMARK  5 active torsions:
REMARK  status: ('A' for Active; 'I' for Inactive)
REMARK    1  A    between atoms: S_2  and  C_4
REMARK    2  A    between atoms: S_2  and  N_10
REMARK    3  A    between atoms: C_14  and  C_15
REMARK    4  A    between atoms: C_15  and  O_16
REMARK    5  A    between atoms: O_16  and  C_17
REMARK                            x       y       z     vdW  Elec       q    Type
REMARK                         _______ _______ _______ _____ _____    ______ ____
ROOT
ATOM      1  N   UNL     1       3.066   3.465  20.675  0.00  0.00    +0.000 NA
ATOM      2  C   UNL     1       2.168   2.579  21.470  0.00  0.00    +0.000 C 
ATOM      3  C   UNL     1       0.870   2.541  20.687  0.00  0.00    +0.000 C 
ATOM      4  C   UNL     1       0.723   3.958  20.172  0.00  0.00    +0.000 C 
ATOM      5  C   UNL     1       2.157   4.483  20.000  0.00  0.00    +0.000 C 
ENDROOT
BRANCH   1   7
ATOM      6  O   UNL     1       3.259   1.883  18.680  0.00  0.00    +0.000 OA
ATOM      7  S   UNL     1       4.099   2.677  19.547  0.00  0.00    +0.000 S 
ATOM      8  O   UNL     1       5.179   2.071  20.296  0.00  0.00    +0.000 OA
BRANCH   7   9
ATOM      9  C   UNL     1       4.790   3.954  18.547  0.00  0.00    +0.000 A 
ATOM     10  C   UNL     1       4.237   4.303  17.312  0.00  0.00    +0.000 A 
ATOM     11  C   UNL     1       4.710   5.443  16.661  0.00  0.00    +0.000 A 
ATOM     12  C   UNL     1       5.718   6.174  17.266  0.00  0.00    +0.000 A 
ATOM     13  N   UNL     1       6.279   5.845  18.452  0.00  0.00    +0.000 NA
ATOM     14  C   UNL     1       5.789   4.746  19.077  0.00  0.00    +0.000 A 
ENDBRANCH   7   9
ENDBRANCH   1   7
BRANCH   5  15
ATOM     15  C   UNL     1       2.313   5.876  20.636  0.00  0.00    +0.000 C 
BRANCH  15  16
ATOM     16  O   UNL     1       2.876   6.755  19.652  0.00  0.00    +0.000 OA
BRANCH  16  17
ATOM     17  C   UNL     1       2.127   7.842  19.298  0.00  0.00    +0.000 A 
ATOM     18  C   UNL     1       1.424   8.449  20.342  0.00  0.00    +0.000 A 
ATOM     19  C   UNL     1       0.620   9.566  20.103  0.00  0.00    +0.000 A 
ATOM     20  C   UNL     1       0.534  10.097  18.819  0.00  0.00    +0.000 A 
ATOM     21  C   UNL     1       1.260   9.516  17.780  0.00  0.00    +0.000 A 
ATOM     22  C   UNL     1       2.058   8.392  18.017  0.00  0.00    +0.000 A 
ENDBRANCH  16  17
ENDBRANCH  15  16
ENDBRANCH   5  15
TORSDOF 5
ENDMDL
MODEL 7
REMARK VINA RESULT:      -7.1      2.177      5.430
REMARK  Name = 
REMARK  5 active torsions:
REMARK  status: ('A' for Active; 'I' for Inactive)
REMARK    1  A    between atoms: S_2  and  C_4
REMARK    2  A    between atoms: S_2  and  N_10
REMARK    3  A    between atoms: C_14  and  C_15
REMARK    4  A    between atoms: C_15  and  O_16
REMARK    5  A    between atoms: O_16  and  C_17
REMARK                            x       y       z     vdW  Elec       q    Type
REMARK                         _______ _______ _______ _____ _____    ______ ____
ROOT
ATOM      1  N   UNL     1       3.169   3.673  19.499  0.00  0.00    +0.000 NA
ATOM      2  C   UNL     1       3.066   2.626  20.555  0.00  0.00    +0.000 C 
ATOM      3  C   UNL     1       1.577   2.386  20.718  0.00  0.00    +0.000 C 
ATOM      4  C   UNL     1       0.976   3.770  20.580  0.00  0.00    +0.000 C 
ATOM      5  C   UNL     1       1.924   4.537  19.644  0.00  0.00    +0.000 C 
ENDROOT
BRANCH   1   7
ATOM      6  O   UNL     1       2.259   3.602  17.115  0.00  0.00    +0.000 OA
ATOM      7  S   UNL     1       3.372   3.103  17.888  0.00  0.00    +0.000 S 
ATOM      8  O   UNL     1       3.651   1.684  17.961  0.00  0.00    +0.000 OA
BRANCH   7   9
ATOM      9  C   UNL     1       4.815   3.903  17.268  0.00  0.00    +0.000 A 
ATOM     10  C   UNL     1       5.800   4.409  18.120  0.00  0.00    +0.000 A 
ATOM     11  C   UNL     1       7.001   4.856  17.570  0.00  0.00    +0.000 A 
ATOM     12  C   UNL     1       7.161   4.787  16.196  0.00  0.00    +0.000 A 
ATOM     13  N   UNL     1       6.214   4.317  15.351  0.00  0.00    +0.000 NA
ATOM     14  C   UNL     1       5.063   3.868  15.910  0.00  0.00    +0.000 A 
ENDBRANCH   7   9
ENDBRANCH   1   7
BRANCH   5  15
ATOM     15  C   UNL     1       2.272   5.919  20.226  0.00  0.00    +0.000 C 
BRANCH  15  16
ATOM     16  O   UNL     1       2.624   6.785  19.138  0.00  0.00    +0.000 OA
BRANCH  16  17
ATOM     17  C   UNL     1       2.067   8.033  19.139  0.00  0.00    +0.000 A 
ATOM     18  C   UNL     1       2.215   8.755  17.951  0.00  0.00    +0.000 A 
ATOM     19  C   UNL     1       1.692  10.044  17.831  0.00  0.00    +0.000 A 
ATOM     20  C   UNL     1       0.997  10.611  18.896  0.00  0.00    +0.000 A 
ATOM     21  C   UNL     1       0.817   9.884  20.072  0.00  0.00    +0.000 A 
ATOM     22  C   UNL     1       1.348   8.596  20.194  0.00  0.00    +0.000 A 
ENDBRANCH  16  17
ENDBRANCH  15  16
ENDBRANCH   5  15
TORSDOF 5
ENDMDL
MODEL 8
REMARK VINA RESULT:      -7.1      2.237      5.572
REMARK  Name = 
REMARK  5 active torsions:
REMARK  status: ('A' for Active; 'I' for Inactive)
REMARK    1  A    between atoms: S_2  and  C_4
REMARK    2  A    between atoms: S_2  and  N_10
REMARK    3  A    between atoms: C_14  and  C_15
REMARK    4  A    between atoms: C_15  and  O_16
REMARK    5  A    between atoms: O_16  and  C_17
REMARK                            x       y       z     vdW  Elec       q    Type
REMARK                         _______ _______ _______ _____ _____    ______ ____
ROOT
ATOM      1  N   UNL     1       4.187   5.585  19.293  0.00  0.00    +0.000 NA
ATOM      2  C   UNL     1       3.062   4.960  20.046  0.00  0.00    +0.000 C 
ATOM      3  C   UNL     1       2.204   4.301  18.984  0.00  0.00    +0.000 C 
ATOM      4  C   UNL     1       2.249   5.281  17.830  0.00  0.00    +0.000 C 
ATOM      5  C   UNL     1       3.614   5.980  17.939  0.00  0.00    +0.000 C 
ENDROOT
BRANCH   1   7
ATOM      6  O   UNL     1       5.253   3.270  19.454  0.00  0.00    +0.000 OA
ATOM      7  S   UNL     1       5.611   4.633  19.135  0.00  0.00    +0.000 S 
ATOM      8  O   UNL     1       6.670   5.312  19.852  0.00  0.00    +0.000 OA
BRANCH   7   9
ATOM      9  C   UNL     1       6.024   4.657  17.421  0.00  0.00    +0.000 A 
ATOM     10  C   UNL     1       5.320   3.898  16.483  0.00  0.00    +0.000 A 
ATOM     11  C   UNL     1       5.567   4.105  15.126  0.00  0.00    +0.000 A 
ATOM     12  C   UNL     1       6.512   5.052  14.768  0.00  0.00    +0.000 A 
ATOM     13  N   UNL     1       7.218   5.785  15.659  0.00  0.00    +0.000 NA
ATOM     14  C   UNL     1       6.944   5.582  16.972  0.00  0.00    +0.000 A 
ENDBRANCH   7   9
ENDBRANCH   1   7
BRANCH   5  15
ATOM     15  C   UNL     1       3.460   7.507  17.825  0.00  0.00    +0.000 C 
BRANCH  15  16
ATOM     16  O   UNL     1       2.061   7.820  17.877  0.00  0.00    +0.000 OA
BRANCH  16  17
ATOM     17  C   UNL     1       1.646   8.613  18.910  0.00  0.00    +0.000 A 
ATOM     18  C   UNL     1       1.244   9.903  18.549  0.00  0.00    +0.000 A 
ATOM     19  C   UNL     1       0.804  10.808  19.518  0.00  0.00    +0.000 A 
ATOM     20  C   UNL     1       0.741  10.418  20.853  0.00  0.00    +0.000 A 
ATOM     21  C   UNL     1       1.108   9.123  21.215  0.00  0.00    +0.000 A 
ATOM     22  C   UNL     1       1.558   8.219  20.246  0.00  0.00    +0.000 A 
ENDBRANCH  16  17
ENDBRANCH  15  16
ENDBRANCH   5  15
TORSDOF 5
ENDMDL
MODEL 9
REMARK VINA RESULT:      -7.1      0.784      1.554
REMARK  Name = 
REMARK  5 active torsions:
REMARK  status: ('A' for Active; 'I' for Inactive)
REMARK    1  A    between atoms: S_2  and  C_4
REMARK    2  A    between atoms: S_2  and  N_10
REMARK    3  A    between atoms: C_14  and  C_15
REMARK    4  A    between atoms: C_15  and  O_16
REMARK    5  A    between atoms: O_16  and  C_17
REMARK                            x       y       z     vdW  Elec       q    Type
REMARK                         _______ _______ _______ _____ _____    ______ ____
ROOT
ATOM      1  N   UNL     1       2.888   4.778  17.962  0.00  0.00    +0.000 NA
ATOM      2  C   UNL     1       1.595   4.055  17.800  0.00  0.00    +0.000 C 
ATOM      3  C   UNL     1       1.896   2.626  18.207  0.00  0.00    +0.000 C 
ATOM      4  C   UNL     1       3.285   2.383  17.654  0.00  0.00    +0.000 C 
ATOM      5  C   UNL     1       3.977   3.756  17.667  0.00  0.00    +0.000 C 
ENDROOT
BRANCH   1   7
ATOM      6  O   UNL     1       4.537   5.883  19.568  0.00  0.00    +0.000 OA
ATOM      7  S   UNL     1       3.133   5.560  19.475  0.00  0.00    +0.000 S 
ATOM      8  O   UNL     1       2.485   4.755  20.489  0.00  0.00    +0.000 OA
BRANCH   7   9
ATOM      9  C   UNL     1       2.268   7.093  19.375  0.00  0.00    +0.000 A 
ATOM     10  C   UNL     1       1.615   7.643  20.480  0.00  0.00    +0.000 A 
ATOM     11  C   UNL     1       1.116   8.943  20.389  0.00  0.00    +0.000 A 
ATOM     12  C   UNL     1       1.282   9.628  19.198  0.00  0.00    +0.000 A 
ATOM     13  N   UNL     1       1.895   9.109  18.109  0.00  0.00    +0.000 NA
ATOM     14  C   UNL     1       2.392   7.852  18.229  0.00  0.00    +0.000 A 
ENDBRANCH   7   9
ENDBRANCH   1   7
BRANCH   5  15
ATOM     15  C   UNL     1       4.657   4.042  16.316  0.00  0.00    +0.000 C 
BRANCH  15  16
ATOM     16  O   UNL     1       6.077   3.962  16.506  0.00  0.00    +0.000 OA
BRANCH  16  17
ATOM     17  C   UNL     1       6.677   5.024  17.123  0.00  0.00    +0.000 A 
ATOM     18  C   UNL     1       7.470   4.704  18.228  0.00  0.00    +0.000 A 
ATOM     19  C   UNL     1       8.131   5.704  18.943  0.00  0.00    +0.000 A 
ATOM     20  C   UNL     1       8.019   7.033  18.542  0.00  0.00    +0.000 A 
ATOM     21  C   UNL     1       7.256   7.355  17.421  0.00  0.00    +0.000 A 
ATOM     22  C   UNL     1       6.588   6.354  16.709  0.00  0.00    +0.000 A 
ENDBRANCH  16  17
ENDBRANCH  15  16
ENDBRANCH   5  15
TORSDOF 5
ENDMDL
