MODEL 1
REMARK VINA RESULT:      -8.8      0.000      0.000
REMARK  Name = 
REMARK  8 active torsions:
REMARK  status: ('A' for Active; 'I' for Inactive)
REMARK    1  A    between atoms: C_1  and  C_2
REMARK    2  A    between atoms: C_10  and  C_11
REMARK    3  A    between atoms: C_12  and  C_13
REMARK    4  A    between atoms: C_13  and  C_14
REMARK    5  A    between atoms: N_16  and  C_17
REMARK    6  A    between atoms: N_16  and  C_18
REMARK    7  A    between atoms: C_18  and  C_19
REMARK    8  A    between atoms: N_21  and  C_22
REMARK                            x       y       z     vdW  Elec       q    Type
REMARK                         _______ _______ _______ _____ _____    ______ ____
ROOT
ATOM      1  C   UNL     1       4.234   6.183  17.916  0.00  0.00    +0.000 C 
ATOM      2  O   UNL     1       4.929   7.171  17.651  0.00  0.00    +0.000 OA
ATOM      3  N   UNL     1       4.833   4.968  18.214  0.00  0.00    +0.000 N 
ATOM      4  C   UNL     1       4.128   3.739  18.561  0.00  0.00    +0.000 C 
ENDROOT
BRANCH   1   5
ATOM      5  C   UNL     1       2.725   6.338  18.029  0.00  0.00    +0.000 C 
BRANCH   5  17
ATOM      6  C   UNL     1       1.937   5.076  20.831  0.00  0.00    +0.000 C 
ATOM      7  C   UNL     1       1.723   6.504  20.433  0.00  0.00    +0.000 A 
ATOM      8  N   UNL     1       1.139   7.220  21.427  0.00  0.00    +0.000 NA
ATOM      9  C   UNL     1       0.845   8.509  21.258  0.00  0.00    +0.000 A 
ATOM     10  C   UNL     1       0.247   9.162  22.331  0.00  0.00    +0.000 A 
ATOM     11  C   UNL     1      -0.099  10.509  22.278  0.00  0.00    +0.000 A 
ATOM     12  C   UNL     1       0.155  11.226  21.122  0.00  0.00    +0.000 A 
ATOM     13  C   UNL     1       0.751  10.582  20.030  0.00  0.00    +0.000 A 
ATOM     14  C   UNL     1       1.111   9.205  20.072  0.00  0.00    +0.000 A 
ATOM     15  C   UNL     1       1.731   8.454  19.012  0.00  0.00    +0.000 A 
ATOM     16  C   UNL     1       2.026   9.112  17.681  0.00  0.00    +0.000 C 
ATOM     17  C   UNL     1       2.059   7.065  19.197  0.00  0.00    +0.000 A 
ENDBRANCH   5  17
ENDBRANCH   1   5
BRANCH   3  18
ATOM     18  C   UNL     1       6.305   4.898  18.227  0.00  0.00    +0.000 C 
BRANCH  18  19
ATOM     19  C   UNL     1       6.941   4.583  16.863  0.00  0.00    +0.000 C 
ATOM     20  O   UNL     1       8.099   4.181  16.776  0.00  0.00    +0.000 OA
ATOM     21  N   UNL     1       6.122   4.866  15.779  0.00  0.00    +0.000 N 
ATOM     22  H   UNL     1       5.420   5.585  15.938  0.00  0.00    +0.000 HD
BRANCH  21  23
ATOM     23  C   UNL     1       6.503   4.599  14.447  0.00  0.00    +0.000 A 
ATOM     24  C   UNL     1       7.477   5.406  13.851  0.00  0.00    +0.000 A 
ATOM     25  C   UNL     1       7.878   5.175  12.530  0.00  0.00    +0.000 A 
ATOM     26  C   UNL     1       7.258   4.176  11.779  0.00  0.00    +0.000 A 
ATOM     27  C   UNL     1       6.268   3.399  12.368  0.00  0.00    +0.000 A 
ATOM     28  F   UNL     1       5.648   2.467  11.631  0.00  0.00    +0.000 F 
ATOM     29  C   UNL     1       5.900   3.583  13.700  0.00  0.00    +0.000 A 
ENDBRANCH  21  23
ENDBRANCH  18  19
ENDBRANCH   3  18
TORSDOF 5
ENDMDL
MODEL 2
REMARK VINA RESULT:      -8.4      0.956      1.319
REMARK  Name = 
REMARK  8 active torsions:
REMARK  status: ('A' for Active; 'I' for Inactive)
REMARK    1  A    between atoms: C_1  and  C_2
REMARK    2  A    between atoms: C_10  and  C_11
REMARK    3  A    between atoms: C_12  and  C_13
REMARK    4  A    between atoms: C_13  and  C_14
REMARK    5  A    between atoms: N_16  and  C_17
REMARK    6  A    between atoms: N_16  and  C_18
REMARK    7  A    between atoms: C_18  and  C_19
REMARK    8  A    between atoms: N_21  and  C_22
REMARK                            x       y       z     vdW  Elec       q    Type
REMARK                         _______ _______ _______ _____ _____    ______ ____
ROOT
ATOM      1  C   UNL     1       4.184   5.860  18.011  0.00  0.00    +0.000 C 
ATOM      2  O   UNL     1       4.964   6.803  17.833  0.00  0.00    +0.000 OA
ATOM      3  N   UNL     1       4.675   4.586  18.258  0.00  0.00    +0.000 N 
ATOM      4  C   UNL     1       3.864   3.399  18.503  0.00  0.00    +0.000 C 
ENDROOT
BRANCH   1   5
ATOM      5  C   UNL     1       2.689   6.127  18.078  0.00  0.00    +0.000 C 
BRANCH   5  17
ATOM      6  C   UNL     1       1.863   4.993  20.924  0.00  0.00    +0.000 C 
ATOM      7  C   UNL     1       1.691   6.411  20.472  0.00  0.00    +0.000 A 
ATOM      8  N   UNL     1       1.129   7.180  21.439  0.00  0.00    +0.000 NA
ATOM      9  C   UNL     1       0.873   8.471  21.222  0.00  0.00    +0.000 A 
ATOM     10  C   UNL     1       0.295   9.180  22.270  0.00  0.00    +0.000 A 
ATOM     11  C   UNL     1      -0.011  10.533  22.166  0.00  0.00    +0.000 A 
ATOM     12  C   UNL     1       0.263  11.199  20.985  0.00  0.00    +0.000 A 
ATOM     13  C   UNL     1       0.841  10.498  19.918  0.00  0.00    +0.000 A 
ATOM     14  C   UNL     1       1.160   9.114  20.011  0.00  0.00    +0.000 A 
ATOM     15  C   UNL     1       1.757   8.306  18.980  0.00  0.00    +0.000 A 
ATOM     16  C   UNL     1       2.071   8.905  17.626  0.00  0.00    +0.000 C 
ATOM     17  C   UNL     1       2.044   6.916  19.217  0.00  0.00    +0.000 A 
ENDBRANCH   5  17
ENDBRANCH   1   5
BRANCH   3  18
ATOM     18  C   UNL     1       6.136   4.399  18.321  0.00  0.00    +0.000 C 
BRANCH  18  19
ATOM     19  C   UNL     1       6.836   4.376  16.952  0.00  0.00    +0.000 C 
ATOM     20  O   UNL     1       8.055   4.242  16.861  0.00  0.00    +0.000 OA
ATOM     21  N   UNL     1       5.984   4.593  15.879  0.00  0.00    +0.000 N 
ATOM     22  H   UNL     1       5.143   5.124  16.089  0.00  0.00    +0.000 HD
BRANCH  21  23
ATOM     23  C   UNL     1       6.426   4.559  14.538  0.00  0.00    +0.000 A 
ATOM     24  C   UNL     1       5.914   3.576  13.686  0.00  0.00    +0.000 A 
ATOM     25  C   UNL     1       6.332   3.507  12.352  0.00  0.00    +0.000 A 
ATOM     26  C   UNL     1       7.312   4.381  11.884  0.00  0.00    +0.000 A 
ATOM     27  C   UNL     1       7.840   5.335  12.745  0.00  0.00    +0.000 A 
ATOM     28  F   UNL     1       8.811   6.147  12.302  0.00  0.00    +0.000 F 
ATOM     29  C   UNL     1       7.392   5.449  14.060  0.00  0.00    +0.000 A 
ENDBRANCH  21  23
ENDBRANCH  18  19
ENDBRANCH   3  18
TORSDOF 5
ENDMDL
MODEL 3
REMARK VINA RESULT:      -7.8      4.970      7.948
REMARK  Name = 
REMARK  8 active torsions:
REMARK  status: ('A' for Active; 'I' for Inactive)
REMARK    1  A    between atoms: C_1  and  C_2
REMARK    2  A    between atoms: C_10  and  C_11
REMARK    3  A    between atoms: C_12  and  C_13
REMARK    4  A    between atoms: C_13  and  C_14
REMARK    5  A    between atoms: N_16  and  C_17
REMARK    6  A    between atoms: N_16  and  C_18
REMARK    7  A    between atoms: C_18  and  C_19
REMARK    8  A    between atoms: N_21  and  C_22
REMARK                            x       y       z     vdW  Elec       q    Type
REMARK                         _______ _______ _______ _____ _____    ______ ____
ROOT
ATOM      1  C   UNL     1      -0.185  11.601  21.642  0.00  0.00    +0.000 C 
ATOM      2  O   UNL     1      -0.340  11.392  22.851  0.00  0.00    +0.000 OA
ATOM      3  N   UNL     1       0.687  10.811  20.906  0.00  0.00    +0.000 N 
ATOM      4  C   UNL     1       0.943  10.942  19.476  0.00  0.00    +0.000 C 
ENDROOT
BRANCH   1   5
ATOM      5  C   UNL     1      -1.042  12.645  20.946  0.00  0.00    +0.000 C 
BRANCH   5  17
ATOM      6  C   UNL     1      -3.153  12.958  23.294  0.00  0.00    +0.000 C 
ATOM      7  C   UNL     1      -3.485  12.665  21.864  0.00  0.00    +0.000 A 
ATOM      8  N   UNL     1      -4.823  12.543  21.674  0.00  0.00    +0.000 NA
ATOM      9  C   UNL     1      -5.320  12.260  20.470  0.00  0.00    +0.000 A 
ATOM     10  C   UNL     1      -6.703  12.154  20.371  0.00  0.00    +0.000 A 
ATOM     11  C   UNL     1      -7.339  11.870  19.166  0.00  0.00    +0.000 A 
ATOM     12  C   UNL     1      -6.576  11.683  18.028  0.00  0.00    +0.000 A 
ATOM     13  C   UNL     1      -5.180  11.780  18.112  0.00  0.00    +0.000 A 
ATOM     14  C   UNL     1      -4.517  12.072  19.337  0.00  0.00    +0.000 A 
ATOM     15  C   UNL     1      -3.097  12.199  19.528  0.00  0.00    +0.000 A 
ATOM     16  C   UNL     1      -2.148  11.979  18.370  0.00  0.00    +0.000 C 
ATOM     17  C   UNL     1      -2.560  12.516  20.825  0.00  0.00    +0.000 A 
ENDBRANCH   5  17
ENDBRANCH   1   5
BRANCH   3  18
ATOM     18  C   UNL     1       1.396   9.719  21.596  0.00  0.00    +0.000 C 
BRANCH  18  19
ATOM     19  C   UNL     1       1.033   8.310  21.099  0.00  0.00    +0.000 C 
ATOM     20  O   UNL     1      -0.109   7.868  21.212  0.00  0.00    +0.000 OA
ATOM     21  N   UNL     1       2.110   7.591  20.602  0.00  0.00    +0.000 N 
ATOM     22  H   UNL     1       3.020   7.858  20.969  0.00  0.00    +0.000 HD
BRANCH  21  23
ATOM     23  C   UNL     1       1.974   6.298  20.051  0.00  0.00    +0.000 A 
ATOM     24  C   UNL     1       2.227   6.117  18.688  0.00  0.00    +0.000 A 
ATOM     25  C   UNL     1       2.097   4.851  18.106  0.00  0.00    +0.000 A 
ATOM     26  C   UNL     1       1.651   3.775  18.871  0.00  0.00    +0.000 A 
ATOM     27  C   UNL     1       1.369   3.969  20.219  0.00  0.00    +0.000 A 
ATOM     28  F   UNL     1       0.902   2.941  20.941  0.00  0.00    +0.000 F 
ATOM     29  C   UNL     1       1.548   5.213  20.822  0.00  0.00    +0.000 A 
ENDBRANCH  21  23
ENDBRANCH  18  19
ENDBRANCH   3  18
TORSDOF 5
ENDMDL
MODEL 4
REMARK VINA RESULT:      -7.6      4.934      8.050
REMARK  Name = 
REMARK  8 active torsions:
REMARK  status: ('A' for Active; 'I' for Inactive)
REMARK    1  A    between atoms: C_1  and  C_2
REMARK    2  A    between atoms: C_10  and  C_11
REMARK    3  A    between atoms: C_12  and  C_13
REMARK    4  A    between atoms: C_13  and  C_14
REMARK    5  A    between atoms: N_16  and  C_17
REMARK    6  A    between atoms: N_16  and  C_18
REMARK    7  A    between atoms: C_18  and  C_19
REMARK    8  A    between atoms: N_21  and  C_22
REMARK                            x       y       z     vdW  Elec       q    Type
REMARK                         _______ _______ _______ _____ _____    ______ ____
ROOT
ATOM      1  C   UNL     1      -0.283  11.549  21.957  0.00  0.00    +0.000 C 
ATOM      2  O   UNL     1      -0.590  11.220  23.109  0.00  0.00    +0.000 OA
ATOM      3  N   UNL     1       0.666  10.821  21.253  0.00  0.00    +0.000 N 
ATOM      4  C   UNL     1       1.099  11.094  19.887  0.00  0.00    +0.000 C 
ENDROOT
BRANCH   1   5
ATOM      5  C   UNL     1      -1.036  12.681  21.276  0.00  0.00    +0.000 C 
BRANCH   5  17
ATOM      6  C   UNL     1      -1.838  11.839  18.325  0.00  0.00    +0.000 C 
ATOM      7  C   UNL     1      -2.800  12.135  19.433  0.00  0.00    +0.000 A 
ATOM      8  N   UNL     1      -4.088  12.000  19.028  0.00  0.00    +0.000 NA
ATOM      9  C   UNL     1      -5.097  12.242  19.866  0.00  0.00    +0.000 A 
ATOM     10  C   UNL     1      -6.383  12.078  19.362  0.00  0.00    +0.000 A 
ATOM     11  C   UNL     1      -7.516  12.293  20.142  0.00  0.00    +0.000 A 
ATOM     12  C   UNL     1      -7.363  12.685  21.460  0.00  0.00    +0.000 A 
ATOM     13  C   UNL     1      -6.074  12.860  21.981  0.00  0.00    +0.000 A 
ATOM     14  C   UNL     1      -4.907  12.642  21.195  0.00  0.00    +0.000 A 
ATOM     15  C   UNL     1      -3.544  12.787  21.634  0.00  0.00    +0.000 A 
ATOM     16  C   UNL     1      -3.241  13.248  23.043  0.00  0.00    +0.000 C 
ATOM     17  C   UNL     1      -2.455  12.515  20.734  0.00  0.00    +0.000 A 
ENDBRANCH   5  17
ENDBRANCH   1   5
BRANCH   3  18
ATOM     18  C   UNL     1       1.271   9.646  21.904  0.00  0.00    +0.000 C 
BRANCH  18  19
ATOM     19  C   UNL     1       0.938   8.303  21.234  0.00  0.00    +0.000 C 
ATOM     20  O   UNL     1      -0.218   7.888  21.175  0.00  0.00    +0.000 OA
ATOM     21  N   UNL     1       2.050   7.602  20.789  0.00  0.00    +0.000 N 
ATOM     22  H   UNL     1       2.918   7.804  21.279  0.00  0.00    +0.000 HD
BRANCH  21  23
ATOM     23  C   UNL     1       1.950   6.373  20.102  0.00  0.00    +0.000 A 
ATOM     24  C   UNL     1       2.300   6.328  18.749  0.00  0.00    +0.000 A 
ATOM     25  C   UNL     1       2.209   5.129  18.033  0.00  0.00    +0.000 A 
ATOM     26  C   UNL     1       1.706   3.985  18.652  0.00  0.00    +0.000 A 
ATOM     27  C   UNL     1       1.328   4.045  19.988  0.00  0.00    +0.000 A 
ATOM     28  F   UNL     1       0.807   2.954  20.567  0.00  0.00    +0.000 F 
ATOM     29  C   UNL     1       1.466   5.220  20.726  0.00  0.00    +0.000 A 
ENDBRANCH  21  23
ENDBRANCH  18  19
ENDBRANCH   3  18
TORSDOF 5
ENDMDL
MODEL 5
REMARK VINA RESULT:      -7.6      0.838      1.051
REMARK  Name = 
REMARK  8 active torsions:
REMARK  status: ('A' for Active; 'I' for Inactive)
REMARK    1  A    between atoms: C_1  and  C_2
REMARK    2  A    between atoms: C_10  and  C_11
REMARK    3  A    between atoms: C_12  and  C_13
REMARK    4  A    between atoms: C_13  and  C_14
REMARK    5  A    between atoms: N_16  and  C_17
REMARK    6  A    between atoms: N_16  and  C_18
REMARK    7  A    between atoms: C_18  and  C_19
REMARK    8  A    between atoms: N_21  and  C_22
REMARK                            x       y       z     vdW  Elec       q    Type
REMARK                         _______ _______ _______ _____ _____    ______ ____
ROOT
ATOM      1  C   UNL     1       3.726   5.793  18.114  0.00  0.00    +0.000 C 
ATOM      2  O   UNL     1       3.293   4.638  18.204  0.00  0.00    +0.000 OA
ATOM      3  N   UNL     1       5.092   6.021  18.025  0.00  0.00    +0.000 N 
ATOM      4  C   UNL     1       5.725   7.328  17.896  0.00  0.00    +0.000 C 
ENDROOT
BRANCH   1   5
ATOM      5  C   UNL     1       2.749   6.951  17.982  0.00  0.00    +0.000 C 
BRANCH   5  17
ATOM      6  C   UNL     1       1.996   5.453  20.676  0.00  0.00    +0.000 C 
ATOM      7  C   UNL     1       1.700   6.888  20.370  0.00  0.00    +0.000 A 
ATOM      8  N   UNL     1       1.056   7.497  21.399  0.00  0.00    +0.000 NA
ATOM      9  C   UNL     1       0.685   8.775  21.312  0.00  0.00    +0.000 A 
ATOM     10  C   UNL     1       0.031   9.314  22.414  0.00  0.00    +0.000 A 
ATOM     11  C   UNL     1      -0.398  10.637  22.446  0.00  0.00    +0.000 A 
ATOM     12  C   UNL     1      -0.172  11.446  21.347  0.00  0.00    +0.000 A 
ATOM     13  C   UNL     1       0.481  10.917  20.226  0.00  0.00    +0.000 A 
ATOM     14  C   UNL     1       0.926   9.565  20.181  0.00  0.00    +0.000 A 
ATOM     15  C   UNL     1       1.609   8.928  19.086  0.00  0.00    +0.000 A 
ATOM     16  C   UNL     1       1.883   9.693  17.809  0.00  0.00    +0.000 C 
ATOM     17  C   UNL     1       2.020   7.553  19.182  0.00  0.00    +0.000 A 
ENDBRANCH   5  17
ENDBRANCH   1   5
BRANCH   3  18
ATOM     18  C   UNL     1       5.996   4.857  18.018  0.00  0.00    +0.000 C 
BRANCH  18  19
ATOM     19  C   UNL     1       6.680   4.589  16.667  0.00  0.00    +0.000 C 
ATOM     20  O   UNL     1       7.894   4.412  16.590  0.00  0.00    +0.000 OA
ATOM     21  N   UNL     1       5.821   4.643  15.579  0.00  0.00    +0.000 N 
ATOM     22  H   UNL     1       4.994   5.222  15.704  0.00  0.00    +0.000 HD
BRANCH  21  23
ATOM     23  C   UNL     1       6.246   4.374  14.260  0.00  0.00    +0.000 A 
ATOM     24  C   UNL     1       7.234   5.184  13.693  0.00  0.00    +0.000 A 
ATOM     25  C   UNL     1       7.677   4.952  12.386  0.00  0.00    +0.000 A 
ATOM     26  C   UNL     1       7.088   3.947  11.620  0.00  0.00    +0.000 A 
ATOM     27  C   UNL     1       6.084   3.165  12.179  0.00  0.00    +0.000 A 
ATOM     28  F   UNL     1       5.493   2.227  11.426  0.00  0.00    +0.000 F 
ATOM     29  C   UNL     1       5.673   3.352  13.498  0.00  0.00    +0.000 A 
ENDBRANCH  21  23
ENDBRANCH  18  19
ENDBRANCH   3  18
TORSDOF 5
ENDMDL
MODEL 6
REMARK VINA RESULT:      -7.6      4.923      7.947
REMARK  Name = 
REMARK  8 active torsions:
REMARK  status: ('A' for Active; 'I' for Inactive)
REMARK    1  A    between atoms: C_1  and  C_2
REMARK    2  A    between atoms: C_10  and  C_11
REMARK    3  A    between atoms: C_12  and  C_13
REMARK    4  A    between atoms: C_13  and  C_14
REMARK    5  A    between atoms: N_16  and  C_17
REMARK    6  A    between atoms: N_16  and  C_18
REMARK    7  A    between atoms: C_18  and  C_19
REMARK    8  A    between atoms: N_21  and  C_22
REMARK                            x       y       z     vdW  Elec       q    Type
REMARK                         _______ _______ _______ _____ _____    ______ ____
ROOT
ATOM      1  C   UNL     1       0.044  11.410  20.774  0.00  0.00    +0.000 C 
ATOM      2  O   UNL     1       0.894  11.293  19.884  0.00  0.00    +0.000 OA
ATOM      3  N   UNL     1       0.080  10.581  21.886  0.00  0.00    +0.000 N 
ATOM      4  C   UNL     1      -0.850  10.631  23.009  0.00  0.00    +0.000 C 
ENDROOT
BRANCH   1   5
ATOM      5  C   UNL     1      -0.967  12.543  20.699  0.00  0.00    +0.000 C 
BRANCH   5  17
ATOM      6  C   UNL     1      -1.720  11.522  17.791  0.00  0.00    +0.000 C 
ATOM      7  C   UNL     1      -2.700  11.893  18.860  0.00  0.00    +0.000 A 
ATOM      8  N   UNL     1      -3.982  11.741  18.439  0.00  0.00    +0.000 NA
ATOM      9  C   UNL     1      -5.004  12.040  19.241  0.00  0.00    +0.000 A 
ATOM     10  C   UNL     1      -6.282  11.854  18.725  0.00  0.00    +0.000 A 
ATOM     11  C   UNL     1      -7.427  12.124  19.468  0.00  0.00    +0.000 A 
ATOM     12  C   UNL     1      -7.296  12.597  20.761  0.00  0.00    +0.000 A 
ATOM     13  C   UNL     1      -6.016  12.796  21.295  0.00  0.00    +0.000 A 
ATOM     14  C   UNL     1      -4.837  12.522  20.546  0.00  0.00    +0.000 A 
ATOM     15  C   UNL     1      -3.481  12.686  21.001  0.00  0.00    +0.000 A 
ATOM     16  C   UNL     1      -3.201  13.233  22.384  0.00  0.00    +0.000 C 
ATOM     17  C   UNL     1      -2.377  12.352  20.141  0.00  0.00    +0.000 A 
ENDBRANCH   5  17
ENDBRANCH   1   5
BRANCH   3  18
ATOM     18  C   UNL     1       1.162   9.586  21.983  0.00  0.00    +0.000 C 
BRANCH  18  19
ATOM     19  C   UNL     1       0.869   8.254  21.274  0.00  0.00    +0.000 C 
ATOM     20  O   UNL     1      -0.280   7.833  21.156  0.00  0.00    +0.000 OA
ATOM     21  N   UNL     1       2.005   7.569  20.867  0.00  0.00    +0.000 N 
ATOM     22  H   UNL     1       2.849   7.767  21.399  0.00  0.00    +0.000 HD
BRANCH  21  23
ATOM     23  C   UNL     1       1.945   6.353  20.153  0.00  0.00    +0.000 A 
ATOM     24  C   UNL     1       2.318   6.344  18.805  0.00  0.00    +0.000 A 
ATOM     25  C   UNL     1       2.267   5.158  18.064  0.00  0.00    +0.000 A 
ATOM     26  C   UNL     1       1.782   3.991  18.650  0.00  0.00    +0.000 A 
ATOM     27  C   UNL     1       1.382   4.013  19.981  0.00  0.00    +0.000 A 
ATOM     28  F   UNL     1       0.878   2.899  20.529  0.00  0.00    +0.000 F 
ATOM     29  C   UNL     1       1.480   5.175  20.745  0.00  0.00    +0.000 A 
ENDBRANCH  21  23
ENDBRANCH  18  19
ENDBRANCH   3  18
TORSDOF 5
ENDMDL
MODEL 7
REMARK VINA RESULT:      -7.6      4.055      4.974
REMARK  Name = 
REMARK  8 active torsions:
REMARK  status: ('A' for Active; 'I' for Inactive)
REMARK    1  A    between atoms: C_1  and  C_2
REMARK    2  A    between atoms: C_10  and  C_11
REMARK    3  A    between atoms: C_12  and  C_13
REMARK    4  A    between atoms: C_13  and  C_14
REMARK    5  A    between atoms: N_16  and  C_17
REMARK    6  A    between atoms: N_16  and  C_18
REMARK    7  A    between atoms: C_18  and  C_19
REMARK    8  A    between atoms: N_21  and  C_22
REMARK                            x       y       z     vdW  Elec       q    Type
REMARK                         _______ _______ _______ _____ _____    ______ ____
ROOT
ATOM      1  C   UNL     1       4.842   5.841  18.256  0.00  0.00    +0.000 C 
ATOM      2  O   UNL     1       5.401   5.431  19.280  0.00  0.00    +0.000 OA
ATOM      3  N   UNL     1       5.593   6.171  17.136  0.00  0.00    +0.000 N 
ATOM      4  C   UNL     1       5.055   6.646  15.867  0.00  0.00    +0.000 C 
ENDROOT
BRANCH   1   5
ATOM      5  C   UNL     1       3.324   5.867  18.191  0.00  0.00    +0.000 C 
BRANCH   5  17
ATOM      6  C   UNL     1       2.213   4.695  20.922  0.00  0.00    +0.000 C 
ATOM      7  C   UNL     1       1.991   6.089  20.423  0.00  0.00    +0.000 A 
ATOM      8  N   UNL     1       1.242   6.818  21.289  0.00  0.00    +0.000 NA
ATOM      9  C   UNL     1       0.916   8.081  21.014  0.00  0.00    +0.000 A 
ATOM     10  C   UNL     1       0.145   8.750  21.960  0.00  0.00    +0.000 A 
ATOM     11  C   UNL     1      -0.252  10.073  21.789  0.00  0.00    +0.000 A 
ATOM     12  C   UNL     1       0.127  10.748  20.643  0.00  0.00    +0.000 A 
ATOM     13  C   UNL     1       0.898  10.087  19.678  0.00  0.00    +0.000 A 
ATOM     14  C   UNL     1       1.312   8.735  19.840  0.00  0.00    +0.000 A 
ATOM     15  C   UNL     1       2.107   7.969  18.916  0.00  0.00    +0.000 A 
ATOM     16  C   UNL     1       2.552   8.581  17.605  0.00  0.00    +0.000 C 
ATOM     17  C   UNL     1       2.469   6.610  19.216  0.00  0.00    +0.000 A 
ENDBRANCH   5  17
ENDBRANCH   1   5
BRANCH   3  18
ATOM     18  C   UNL     1       7.056   5.999  17.198  0.00  0.00    +0.000 C 
BRANCH  18  19
ATOM     19  C   UNL     1       7.794   7.095  17.983  0.00  0.00    +0.000 C 
ATOM     20  O   UNL     1       8.371   6.845  19.040  0.00  0.00    +0.000 OA
ATOM     21  N   UNL     1       7.677   8.362  17.431  0.00  0.00    +0.000 N 
ATOM     22  H   UNL     1       6.846   8.517  16.865  0.00  0.00    +0.000 HD
BRANCH  21  23
ATOM     23  C   UNL     1       8.325   9.493  17.974  0.00  0.00    +0.000 A 
ATOM     24  C   UNL     1       9.033   9.351  19.171  0.00  0.00    +0.000 A 
ATOM     25  C   UNL     1       9.684  10.450  19.743  0.00  0.00    +0.000 A 
ATOM     26  C   UNL     1       9.575  11.709  19.153  0.00  0.00    +0.000 A 
ATOM     27  C   UNL     1       8.842  11.849  17.980  0.00  0.00    +0.000 A 
ATOM     28  F   UNL     1       8.706  13.067  17.438  0.00  0.00    +0.000 F 
ATOM     29  C   UNL     1       8.235  10.751  17.372  0.00  0.00    +0.000 A 
ENDBRANCH  21  23
ENDBRANCH  18  19
ENDBRANCH   3  18
TORSDOF 5
ENDMDL
MODEL 8
REMARK VINA RESULT:      -7.5      3.472      5.227
REMARK  Name = 
REMARK  8 active torsions:
REMARK  status: ('A' for Active; 'I' for Inactive)
REMARK    1  A    between atoms: C_1  and  C_2
REMARK    2  A    between atoms: C_10  and  C_11
REMARK    3  A    between atoms: C_12  and  C_13
REMARK    4  A    between atoms: C_13  and  C_14
REMARK    5  A    between atoms: N_16  and  C_17
REMARK    6  A    between atoms: N_16  and  C_18
REMARK    7  A    between atoms: C_18  and  C_19
REMARK    8  A    between atoms: N_21  and  C_22
REMARK                            x       y       z     vdW  Elec       q    Type
REMARK                         _______ _______ _______ _____ _____    ______ ____
ROOT
ATOM      1  C   UNL     1       1.224   9.305  19.736  0.00  0.00    +0.000 C 
ATOM      2  O   UNL     1       0.928   9.035  20.906  0.00  0.00    +0.000 OA
ATOM      3  N   UNL     1       1.876   8.367  18.948  0.00  0.00    +0.000 N 
ATOM      4  C   UNL     1       2.261   8.555  17.554  0.00  0.00    +0.000 C 
ENDROOT
BRANCH   1   5
ATOM      5  C   UNL     1       0.764  10.622  19.132  0.00  0.00    +0.000 C 
BRANCH   5  17
ATOM      6  C   UNL     1      -0.053  12.446  21.597  0.00  0.00    +0.000 C 
ATOM      7  C   UNL     1      -0.968  12.025  20.488  0.00  0.00    +0.000 A 
ATOM      8  N   UNL     1      -2.220  12.521  20.657  0.00  0.00    +0.000 NA
ATOM      9  C   UNL     1      -3.189  12.241  19.784  0.00  0.00    +0.000 A 
ATOM     10  C   UNL     1      -4.440  12.793  20.038  0.00  0.00    +0.000 A 
ATOM     11  C   UNL     1      -5.527  12.579  19.196  0.00  0.00    +0.000 A 
ATOM     12  C   UNL     1      -5.365  11.790  18.072  0.00  0.00    +0.000 A 
ATOM     13  C   UNL     1      -4.113  11.222  17.805  0.00  0.00    +0.000 A 
ATOM     14  C   UNL     1      -2.992  11.434  18.657  0.00  0.00    +0.000 A 
ATOM     15  C   UNL     1      -1.667  10.903  18.470  0.00  0.00    +0.000 A 
ATOM     16  C   UNL     1      -1.367   9.992  17.299  0.00  0.00    +0.000 C 
ATOM     17  C   UNL     1      -0.618  11.214  19.404  0.00  0.00    +0.000 A 
ENDBRANCH   5  17
ENDBRANCH   1   5
BRANCH   3  18
ATOM     18  C   UNL     1       2.180   7.049  19.535  0.00  0.00    +0.000 C 
BRANCH  18  19
ATOM     19  C   UNL     1       3.060   6.147  18.654  0.00  0.00    +0.000 C 
ATOM     20  O   UNL     1       2.669   5.043  18.280  0.00  0.00    +0.000 OA
ATOM     21  N   UNL     1       4.323   6.662  18.403  0.00  0.00    +0.000 N 
ATOM     22  H   UNL     1       4.678   7.310  19.102  0.00  0.00    +0.000 HD
BRANCH  21  23
ATOM     23  C   UNL     1       5.260   6.008  17.574  0.00  0.00    +0.000 A 
ATOM     24  C   UNL     1       5.010   5.939  16.201  0.00  0.00    +0.000 A 
ATOM     25  C   UNL     1       5.913   5.294  15.347  0.00  0.00    +0.000 A 
ATOM     26  C   UNL     1       7.038   4.661  15.874  0.00  0.00    +0.000 A 
ATOM     27  C   UNL     1       7.264   4.706  17.245  0.00  0.00    +0.000 A 
ATOM     28  F   UNL     1       8.325   4.062  17.752  0.00  0.00    +0.000 F 
ATOM     29  C   UNL     1       6.401   5.392  18.098  0.00  0.00    +0.000 A 
ENDBRANCH  21  23
ENDBRANCH  18  19
ENDBRANCH   3  18
TORSDOF 5
ENDMDL
MODEL 9
REMARK VINA RESULT:      -7.5      4.520      7.010
REMARK  Name = 
REMARK  8 active torsions:
REMARK  status: ('A' for Active; 'I' for Inactive)
REMARK    1  A    between atoms: C_1  and  C_2
REMARK    2  A    between atoms: C_10  and  C_11
REMARK    3  A    between atoms: C_12  and  C_13
REMARK    4  A    between atoms: C_13  and  C_14
REMARK    5  A    between atoms: N_16  and  C_17
REMARK    6  A    between atoms: N_16  and  C_18
REMARK    7  A    between atoms: C_18  and  C_19
REMARK    8  A    between atoms: N_21  and  C_22
REMARK                            x       y       z     vdW  Elec       q    Type
REMARK                         _______ _______ _______ _____ _____    ______ ____
ROOT
ATOM      1  C   UNL     1       0.029   9.916  19.501  0.00  0.00    +0.000 C 
ATOM      2  O   UNL     1      -0.527   9.484  20.517  0.00  0.00    +0.000 OA
ATOM      3  N   UNL     1       1.297   9.469  19.157  0.00  0.00    +0.000 N 
ATOM      4  C   UNL     1       2.049   9.884  17.978  0.00  0.00    +0.000 C 
ENDROOT
BRANCH   1   5
ATOM      5  C   UNL     1      -0.732  10.845  18.568  0.00  0.00    +0.000 C 
BRANCH   5  17
ATOM      6  C   UNL     1      -1.328  12.974  20.844  0.00  0.00    +0.000 C 
ATOM      7  C   UNL     1      -2.349  12.379  19.925  0.00  0.00    +0.000 A 
ATOM      8  N   UNL     1      -3.592  12.861  20.178  0.00  0.00    +0.000 NA
ATOM      9  C   UNL     1      -4.645  12.437  19.478  0.00  0.00    +0.000 A 
ATOM     10  C   UNL     1      -5.880  12.987  19.807  0.00  0.00    +0.000 A 
ATOM     11  C   UNL     1      -7.049  12.630  19.143  0.00  0.00    +0.000 A 
ATOM     12  C   UNL     1      -6.988  11.695  18.124  0.00  0.00    +0.000 A 
ATOM     13  C   UNL     1      -5.753  11.128  17.784  0.00  0.00    +0.000 A 
ATOM     14  C   UNL     1      -4.549  11.485  18.454  0.00  0.00    +0.000 A 
ATOM     15  C   UNL     1      -3.235  10.968  18.179  0.00  0.00    +0.000 A 
ATOM     16  C   UNL     1      -3.038   9.911  17.114  0.00  0.00    +0.000 C 
ATOM     17  C   UNL     1      -2.096  11.433  18.926  0.00  0.00    +0.000 A 
ENDBRANCH   5  17
ENDBRANCH   1   5
BRANCH   3  18
ATOM     18  C   UNL     1       1.942   8.462  20.018  0.00  0.00    +0.000 C 
BRANCH  18  19
ATOM     19  C   UNL     1       2.124   7.084  19.361  0.00  0.00    +0.000 C 
ATOM     20  O   UNL     1       2.228   6.967  18.142  0.00  0.00    +0.000 OA
ATOM     21  N   UNL     1       2.081   6.023  20.254  0.00  0.00    +0.000 N 
ATOM     22  H   UNL     1       1.555   6.192  21.108  0.00  0.00    +0.000 HD
BRANCH  21  23
ATOM     23  C   UNL     1       2.279   4.684  19.854  0.00  0.00    +0.000 A 
ATOM     24  C   UNL     1       3.585   4.189  19.783  0.00  0.00    +0.000 A 
ATOM     25  C   UNL     1       3.821   2.868  19.386  0.00  0.00    +0.000 A 
ATOM     26  C   UNL     1       2.756   2.057  18.996  0.00  0.00    +0.000 A 
ATOM     27  C   UNL     1       1.463   2.565  19.038  0.00  0.00    +0.000 A 
ATOM     28  F   UNL     1       0.447   1.796  18.625  0.00  0.00    +0.000 F 
ATOM     29  C   UNL     1       1.211   3.862  19.485  0.00  0.00    +0.000 A 
ENDBRANCH  21  23
ENDBRANCH  18  19
ENDBRANCH   3  18
TORSDOF 5
ENDMDL
