MODEL 1
REMARK VINA RESULT:      -7.1      0.000      0.000
REMARK  Name = 
REMARK  5 active torsions:
REMARK  status: ('A' for Active; 'I' for Inactive)
REMARK    1  A    between atoms: C_1  and  C_2
REMARK    2  A    between atoms: C_5  and  O_6
REMARK    3  A    between atoms: O_6  and  C_7
REMARK    4  A    between atoms: C_7  and  C_8
REMARK    5  A    between atoms: C_15  and  N_16
REMARK                            x       y       z     vdW  Elec       q    Type
REMARK                         _______ _______ _______ _____ _____    ______ ____
ROOT
ATOM      1  C   UNL     1       7.724   4.969  12.913  0.00  0.00    +0.000 C 
ATOM      2  C   UNL     1       6.967   4.835  14.199  0.00  0.00    +0.000 A 
ATOM      3  C   UNL     1       5.662   4.361  14.213  0.00  0.00    +0.000 A 
ATOM      4  C   UNL     1       4.984   4.266  15.428  0.00  0.00    +0.000 A 
ATOM      5  C   UNL     1       5.612   4.645  16.618  0.00  0.00    +0.000 A 
ATOM      6  C   UNL     1       6.935   5.109  16.517  0.00  0.00    +0.000 A 
ATOM      7  N   UNL     1       7.612   5.201  15.327  0.00  0.00    +0.000 NA
ENDROOT
BRANCH   6   8
ATOM      8  N   UNL     1       7.610   5.508  17.767  0.00  0.00    +0.000 N 
ATOM      9  O   UNL     1       8.105   4.608  18.468  0.00  0.00    +0.000 OA
ATOM     10  O   UNL     1       7.597   6.713  18.056  0.00  0.00    +0.000 OA
ENDBRANCH   6   8
BRANCH   5  11
ATOM     11  O   UNL     1       5.017   4.566  17.845  0.00  0.00    +0.000 OA
BRANCH  11  12
ATOM     12  C   UNL     1       3.603   4.339  17.911  0.00  0.00    +0.000 C 
BRANCH  12  13
ATOM     13  C   UNL     1       2.947   5.461  18.685  0.00  0.00    +0.000 A 
ATOM     14  C   UNL     1       2.900   6.766  18.170  0.00  0.00    +0.000 A 
ATOM     15  C   UNL     1       2.301   7.797  18.896  0.00  0.00    +0.000 A 
ATOM     16  C   UNL     1       1.728   7.528  20.136  0.00  0.00    +0.000 A 
ATOM     17 CL   UNL     1       1.010   8.803  21.040  0.00  0.00    +0.000 Cl
ATOM     18  C   UNL     1       1.734   6.231  20.647  0.00  0.00    +0.000 A 
ATOM     19  C   UNL     1       2.336   5.199  19.922  0.00  0.00    +0.000 A 
ENDBRANCH  12  13
ENDBRANCH  11  12
ENDBRANCH   5  11
TORSDOF 4
ENDMDL
MODEL 2
REMARK VINA RESULT:      -7.1      1.890      2.522
REMARK  Name = 
REMARK  5 active torsions:
REMARK  status: ('A' for Active; 'I' for Inactive)
REMARK    1  A    between atoms: C_1  and  C_2
REMARK    2  A    between atoms: C_5  and  O_6
REMARK    3  A    between atoms: O_6  and  C_7
REMARK    4  A    between atoms: C_7  and  C_8
REMARK    5  A    between atoms: C_15  and  N_16
REMARK                            x       y       z     vdW  Elec       q    Type
REMARK                         _______ _______ _______ _____ _____    ______ ____
ROOT
ATOM      1  C   UNL     1       7.639   4.705  12.625  0.00  0.00    +0.000 C 
ATOM      2  C   UNL     1       6.954   4.759  13.956  0.00  0.00    +0.000 A 
ATOM      3  C   UNL     1       5.822   3.996  14.208  0.00  0.00    +0.000 A 
ATOM      4  C   UNL     1       5.203   4.087  15.455  0.00  0.00    +0.000 A 
ATOM      5  C   UNL     1       5.715   4.938  16.438  0.00  0.00    +0.000 A 
ATOM      6  C   UNL     1       6.866   5.672  16.102  0.00  0.00    +0.000 A 
ATOM      7  N   UNL     1       7.486   5.586  14.881  0.00  0.00    +0.000 NA
ENDROOT
BRANCH   6   8
ATOM      8  N   UNL     1       7.420   6.572  17.133  0.00  0.00    +0.000 N 
ATOM      9  O   UNL     1       7.229   7.793  16.995  0.00  0.00    +0.000 OA
ATOM     10  O   UNL     1       8.079   6.050  18.043  0.00  0.00    +0.000 OA
ENDBRANCH   6   8
BRANCH   5  11
ATOM     11  O   UNL     1       5.172   5.069  17.684  0.00  0.00    +0.000 OA
BRANCH  11  12
ATOM     12  C   UNL     1       3.809   5.499  17.798  0.00  0.00    +0.000 C 
BRANCH  12  13
ATOM     13  C   UNL     1       3.121   4.712  18.891  0.00  0.00    +0.000 A 
ATOM     14  C   UNL     1       2.394   5.360  19.903  0.00  0.00    +0.000 A 
ATOM     15  C   UNL     1       1.770   4.626  20.913  0.00  0.00    +0.000 A 
ATOM     16  C   UNL     1       1.854   3.237  20.911  0.00  0.00    +0.000 A 
ATOM     17 CL   UNL     1       1.104   2.334  22.169  0.00  0.00    +0.000 Cl
ATOM     18  C   UNL     1       2.542   2.574  19.896  0.00  0.00    +0.000 A 
ATOM     19  C   UNL     1       3.169   3.309  18.886  0.00  0.00    +0.000 A 
ENDBRANCH  12  13
ENDBRANCH  11  12
ENDBRANCH   5  11
TORSDOF 4
ENDMDL
MODEL 3
REMARK VINA RESULT:      -6.9      2.274      2.660
REMARK  Name = 
REMARK  5 active torsions:
REMARK  status: ('A' for Active; 'I' for Inactive)
REMARK    1  A    between atoms: C_1  and  C_2
REMARK    2  A    between atoms: C_5  and  O_6
REMARK    3  A    between atoms: O_6  and  C_7
REMARK    4  A    between atoms: C_7  and  C_8
REMARK    5  A    between atoms: C_15  and  N_16
REMARK                            x       y       z     vdW  Elec       q    Type
REMARK                         _______ _______ _______ _____ _____    ______ ____
ROOT
ATOM      1  C   UNL     1       8.121   5.570  12.815  0.00  0.00    +0.000 C 
ATOM      2  C   UNL     1       7.243   5.133  13.948  0.00  0.00    +0.000 A 
ATOM      3  C   UNL     1       6.114   4.358  13.718  0.00  0.00    +0.000 A 
ATOM      4  C   UNL     1       5.312   3.986  14.797  0.00  0.00    +0.000 A 
ATOM      5  C   UNL     1       5.642   4.389  16.094  0.00  0.00    +0.000 A 
ATOM      6  C   UNL     1       6.803   5.167  16.240  0.00  0.00    +0.000 A 
ATOM      7  N   UNL     1       7.601   5.535  15.186  0.00  0.00    +0.000 NA
ENDROOT
BRANCH   6   8
ATOM      8  N   UNL     1       7.164   5.597  17.605  0.00  0.00    +0.000 N 
ATOM      9  O   UNL     1       7.061   6.806  17.875  0.00  0.00    +0.000 OA
ATOM     10  O   UNL     1       7.590   4.726  18.376  0.00  0.00    +0.000 OA
ENDBRANCH   6   8
BRANCH   5  11
ATOM     11  O   UNL     1       4.913   4.051  17.199  0.00  0.00    +0.000 OA
BRANCH  11  12
ATOM     12  C   UNL     1       3.515   4.366  17.224  0.00  0.00    +0.000 C 
BRANCH  12  13
ATOM     13  C   UNL     1       2.903   3.847  18.505  0.00  0.00    +0.000 A 
ATOM     14  C   UNL     1       1.539   4.030  18.784  0.00  0.00    +0.000 A 
ATOM     15  C   UNL     1       0.985   3.556  19.974  0.00  0.00    +0.000 A 
ATOM     16  C   UNL     1       1.786   2.879  20.889  0.00  0.00    +0.000 A 
ATOM     17 CL   UNL     1       1.108   2.314  22.366  0.00  0.00    +0.000 Cl
ATOM     18  C   UNL     1       3.134   2.656  20.614  0.00  0.00    +0.000 A 
ATOM     19  C   UNL     1       3.690   3.133  19.423  0.00  0.00    +0.000 A 
ENDBRANCH  12  13
ENDBRANCH  11  12
ENDBRANCH   5  11
TORSDOF 4
ENDMDL
MODEL 4
REMARK VINA RESULT:      -6.9      2.175      2.653
REMARK  Name = 
REMARK  5 active torsions:
REMARK  status: ('A' for Active; 'I' for Inactive)
REMARK    1  A    between atoms: C_1  and  C_2
REMARK    2  A    between atoms: C_5  and  O_6
REMARK    3  A    between atoms: O_6  and  C_7
REMARK    4  A    between atoms: C_7  and  C_8
REMARK    5  A    between atoms: C_15  and  N_16
REMARK                            x       y       z     vdW  Elec       q    Type
REMARK                         _______ _______ _______ _____ _____    ______ ____
ROOT
ATOM      1  C   UNL     1       8.190   5.275  12.684  0.00  0.00    +0.000 C 
ATOM      2  C   UNL     1       7.303   4.960  13.850  0.00  0.00    +0.000 A 
ATOM      3  C   UNL     1       6.060   4.373  13.663  0.00  0.00    +0.000 A 
ATOM      4  C   UNL     1       5.256   4.111  14.773  0.00  0.00    +0.000 A 
ATOM      5  C   UNL     1       5.698   4.439  16.058  0.00  0.00    +0.000 A 
ATOM      6  C   UNL     1       6.970   5.026  16.160  0.00  0.00    +0.000 A 
ATOM      7  N   UNL     1       7.771   5.283  15.075  0.00  0.00    +0.000 NA
ENDROOT
BRANCH   6   8
ATOM      8  N   UNL     1       7.451   5.373  17.512  0.00  0.00    +0.000 N 
ATOM      9  O   UNL     1       7.356   6.560  17.870  0.00  0.00    +0.000 OA
ATOM     10  O   UNL     1       7.960   4.463  18.180  0.00  0.00    +0.000 OA
ENDBRANCH   6   8
BRANCH   5  11
ATOM     11  O   UNL     1       4.973   4.199  17.191  0.00  0.00    +0.000 OA
BRANCH  11  12
ATOM     12  C   UNL     1       3.543   4.263  17.119  0.00  0.00    +0.000 C 
BRANCH  12  13
ATOM     13  C   UNL     1       2.950   3.826  18.439  0.00  0.00    +0.000 A 
ATOM     14  C   UNL     1       3.674   3.010  19.324  0.00  0.00    +0.000 A 
ATOM     15  C   UNL     1       3.114   2.603  20.537  0.00  0.00    +0.000 A 
ATOM     16  C   UNL     1       1.833   3.023  20.883  0.00  0.00    +0.000 A 
ATOM     17 CL   UNL     1       1.135   2.503  22.367  0.00  0.00    +0.000 Cl
ATOM     18  C   UNL     1       1.113   3.862  20.033  0.00  0.00    +0.000 A 
ATOM     19  C   UNL     1       1.672   4.267  18.818  0.00  0.00    +0.000 A 
ENDBRANCH  12  13
ENDBRANCH  11  12
ENDBRANCH   5  11
TORSDOF 4
ENDMDL
MODEL 5
REMARK VINA RESULT:      -6.9      1.233      1.978
REMARK  Name = 
REMARK  5 active torsions:
REMARK  status: ('A' for Active; 'I' for Inactive)
REMARK    1  A    between atoms: C_1  and  C_2
REMARK    2  A    between atoms: C_5  and  O_6
REMARK    3  A    between atoms: O_6  and  C_7
REMARK    4  A    between atoms: C_7  and  C_8
REMARK    5  A    between atoms: C_15  and  N_16
REMARK                            x       y       z     vdW  Elec       q    Type
REMARK                         _______ _______ _______ _____ _____    ______ ____
ROOT
ATOM      1  C   UNL     1       7.313   4.443  13.384  0.00  0.00    +0.000 C 
ATOM      2  C   UNL     1       6.623   4.854  14.649  0.00  0.00    +0.000 A 
ATOM      3  C   UNL     1       5.327   4.437  14.923  0.00  0.00    +0.000 A 
ATOM      4  C   UNL     1       4.713   4.855  16.103  0.00  0.00    +0.000 A 
ATOM      5  C   UNL     1       5.393   5.685  16.999  0.00  0.00    +0.000 A 
ATOM      6  C   UNL     1       6.702   6.057  16.647  0.00  0.00    +0.000 A 
ATOM      7  N   UNL     1       7.318   5.647  15.491  0.00  0.00    +0.000 NA
ENDROOT
BRANCH   6   8
ATOM      8  N   UNL     1       7.434   6.931  17.586  0.00  0.00    +0.000 N 
ATOM      9  O   UNL     1       7.573   8.126  17.272  0.00  0.00    +0.000 OA
ATOM     10  O   UNL     1       7.901   6.400  18.604  0.00  0.00    +0.000 OA
ENDBRANCH   6   8
BRANCH   5  11
ATOM     11  O   UNL     1       4.862   6.122  18.178  0.00  0.00    +0.000 OA
BRANCH  11  12
ATOM     12  C   UNL     1       3.516   5.752  18.506  0.00  0.00    +0.000 C 
BRANCH  12  13
ATOM     13  C   UNL     1       2.703   6.996  18.783  0.00  0.00    +0.000 A 
ATOM     14  C   UNL     1       2.188   7.257  20.063  0.00  0.00    +0.000 A 
ATOM     15  C   UNL     1       1.430   8.403  20.306  0.00  0.00    +0.000 A 
ATOM     16  C   UNL     1       1.194   9.308  19.276  0.00  0.00    +0.000 A 
ATOM     17 CL   UNL     1       0.240  10.709  19.570  0.00  0.00    +0.000 Cl
ATOM     18  C   UNL     1       1.725   9.084  18.007  0.00  0.00    +0.000 A 
ATOM     19  C   UNL     1       2.483   7.935  17.762  0.00  0.00    +0.000 A 
ENDBRANCH  12  13
ENDBRANCH  11  12
ENDBRANCH   5  11
TORSDOF 4
ENDMDL
MODEL 6
REMARK VINA RESULT:      -6.9      0.860      1.590
REMARK  Name = 
REMARK  5 active torsions:
REMARK  status: ('A' for Active; 'I' for Inactive)
REMARK    1  A    between atoms: C_1  and  C_2
REMARK    2  A    between atoms: C_5  and  O_6
REMARK    3  A    between atoms: O_6  and  C_7
REMARK    4  A    between atoms: C_7  and  C_8
REMARK    5  A    between atoms: C_15  and  N_16
REMARK                            x       y       z     vdW  Elec       q    Type
REMARK                         _______ _______ _______ _____ _____    ______ ____
ROOT
ATOM      1  C   UNL     1       7.910   5.281  12.292  0.00  0.00    +0.000 C 
ATOM      2  C   UNL     1       7.207   4.897  13.558  0.00  0.00    +0.000 A 
ATOM      3  C   UNL     1       6.247   3.894  13.566  0.00  0.00    +0.000 A 
ATOM      4  C   UNL     1       5.602   3.577  14.761  0.00  0.00    +0.000 A 
ATOM      5  C   UNL     1       5.918   4.263  15.938  0.00  0.00    +0.000 A 
ATOM      6  C   UNL     1       6.904   5.260  15.844  0.00  0.00    +0.000 A 
ATOM      7  N   UNL     1       7.548   5.576  14.674  0.00  0.00    +0.000 NA
ENDROOT
BRANCH   6   8
ATOM      8  N   UNL     1       7.250   5.989  17.080  0.00  0.00    +0.000 N 
ATOM      9  O   UNL     1       6.853   7.163  17.187  0.00  0.00    +0.000 OA
ATOM     10  O   UNL     1       7.955   5.395  17.908  0.00  0.00    +0.000 OA
ENDBRANCH   6   8
BRANCH   5  11
ATOM     11  O   UNL     1       5.340   3.998  17.146  0.00  0.00    +0.000 OA
BRANCH  11  12
ATOM     12  C   UNL     1       3.915   3.851  17.210  0.00  0.00    +0.000 C 
BRANCH  12  13
ATOM     13  C   UNL     1       3.334   4.930  18.095  0.00  0.00    +0.000 A 
ATOM     14  C   UNL     1       2.896   4.640  19.398  0.00  0.00    +0.000 A 
ATOM     15  C   UNL     1       2.351   5.641  20.204  0.00  0.00    +0.000 A 
ATOM     16  C   UNL     1       2.257   6.943  19.723  0.00  0.00    +0.000 A 
ATOM     17 CL   UNL     1       1.565   8.172  20.709  0.00  0.00    +0.000 Cl
ATOM     18  C   UNL     1       2.719   7.257  18.446  0.00  0.00    +0.000 A 
ATOM     19  C   UNL     1       3.262   6.255  17.636  0.00  0.00    +0.000 A 
ENDBRANCH  12  13
ENDBRANCH  11  12
ENDBRANCH   5  11
TORSDOF 4
ENDMDL
MODEL 7
REMARK VINA RESULT:      -6.8      3.971      6.811
REMARK  Name = 
REMARK  5 active torsions:
REMARK  status: ('A' for Active; 'I' for Inactive)
REMARK    1  A    between atoms: C_1  and  C_2
REMARK    2  A    between atoms: C_5  and  O_6
REMARK    3  A    between atoms: O_6  and  C_7
REMARK    4  A    between atoms: C_7  and  C_8
REMARK    5  A    between atoms: C_15  and  N_16
REMARK                            x       y       z     vdW  Elec       q    Type
REMARK                         _______ _______ _______ _____ _____    ______ ____
ROOT
ATOM      1  C   UNL     1       0.737   8.490  21.252  0.00  0.00    +0.000 C 
ATOM      2  C   UNL     1       1.459   7.350  20.601  0.00  0.00    +0.000 A 
ATOM      3  C   UNL     1       2.290   7.562  19.510  0.00  0.00    +0.000 A 
ATOM      4  C   UNL     1       2.932   6.472  18.921  0.00  0.00    +0.000 A 
ATOM      5  C   UNL     1       2.739   5.183  19.424  0.00  0.00    +0.000 A 
ATOM      6  C   UNL     1       1.886   5.057  20.534  0.00  0.00    +0.000 A 
ATOM      7  N   UNL     1       1.254   6.123  21.123  0.00  0.00    +0.000 NA
ENDROOT
BRANCH   6   8
ATOM      8  N   UNL     1       1.677   3.700  21.077  0.00  0.00    +0.000 N 
ATOM      9  O   UNL     1       0.842   2.975  20.510  0.00  0.00    +0.000 OA
ATOM     10  O   UNL     1       2.317   3.394  22.093  0.00  0.00    +0.000 OA
ENDBRANCH   6   8
BRANCH   5  11
ATOM     11  O   UNL     1       3.344   4.072  18.909  0.00  0.00    +0.000 OA
BRANCH  11  12
ATOM     12  C   UNL     1       4.767   3.944  19.033  0.00  0.00    +0.000 C 
BRANCH  12  13
ATOM     13  C   UNL     1       5.417   4.210  17.694  0.00  0.00    +0.000 A 
ATOM     14  C   UNL     1       4.672   4.162  16.504  0.00  0.00    +0.000 A 
ATOM     15  C   UNL     1       5.284   4.400  15.272  0.00  0.00    +0.000 A 
ATOM     16  C   UNL     1       6.640   4.705  15.219  0.00  0.00    +0.000 A 
ATOM     17 CL   UNL     1       7.398   4.975  13.699  0.00  0.00    +0.000 Cl
ATOM     18  C   UNL     1       7.388   4.791  16.393  0.00  0.00    +0.000 A 
ATOM     19  C   UNL     1       6.777   4.551  17.627  0.00  0.00    +0.000 A 
ENDBRANCH  12  13
ENDBRANCH  11  12
ENDBRANCH   5  11
TORSDOF 4
ENDMDL
MODEL 8
REMARK VINA RESULT:      -6.8      2.351      2.778
REMARK  Name = 
REMARK  5 active torsions:
REMARK  status: ('A' for Active; 'I' for Inactive)
REMARK    1  A    between atoms: C_1  and  C_2
REMARK    2  A    between atoms: C_5  and  O_6
REMARK    3  A    between atoms: O_6  and  C_7
REMARK    4  A    between atoms: C_7  and  C_8
REMARK    5  A    between atoms: C_15  and  N_16
REMARK                            x       y       z     vdW  Elec       q    Type
REMARK                         _______ _______ _______ _____ _____    ______ ____
ROOT
ATOM      1  C   UNL     1       7.370   4.780  13.407  0.00  0.00    +0.000 C 
ATOM      2  C   UNL     1       6.976   4.854  14.851  0.00  0.00    +0.000 A 
ATOM      3  C   UNL     1       6.126   3.909  15.408  0.00  0.00    +0.000 A 
ATOM      4  C   UNL     1       5.770   4.022  16.752  0.00  0.00    +0.000 A 
ATOM      5  C   UNL     1       6.262   5.075  17.527  0.00  0.00    +0.000 A 
ATOM      6  C   UNL     1       7.120   5.986  16.887  0.00  0.00    +0.000 A 
ATOM      7  N   UNL     1       7.481   5.881  15.567  0.00  0.00    +0.000 NA
ENDROOT
BRANCH   6   8
ATOM      8  N   UNL     1       7.650   7.101  17.696  0.00  0.00    +0.000 N 
ATOM      9  O   UNL     1       7.482   8.256  17.265  0.00  0.00    +0.000 OA
ATOM     10  O   UNL     1       8.268   6.806  18.728  0.00  0.00    +0.000 OA
ENDBRANCH   6   8
BRANCH   5  11
ATOM     11  O   UNL     1       5.968   5.242  18.850  0.00  0.00    +0.000 OA
BRANCH  11  12
ATOM     12  C   UNL     1       4.727   5.865  19.207  0.00  0.00    +0.000 C 
BRANCH  12  13
ATOM     13  C   UNL     1       3.600   4.867  19.062  0.00  0.00    +0.000 A 
ATOM     14  C   UNL     1       2.560   5.077  18.142  0.00  0.00    +0.000 A 
ATOM     15  C   UNL     1       1.518   4.155  18.024  0.00  0.00    +0.000 A 
ATOM     16  C   UNL     1       1.517   3.007  18.810  0.00  0.00    +0.000 A 
ATOM     17 CL   UNL     1       0.221   1.883  18.679  0.00  0.00    +0.000 Cl
ATOM     18  C   UNL     1       2.559   2.765  19.703  0.00  0.00    +0.000 A 
ATOM     19  C   UNL     1       3.601   3.689  19.825  0.00  0.00    +0.000 A 
ENDBRANCH  12  13
ENDBRANCH  11  12
ENDBRANCH   5  11
TORSDOF 4
ENDMDL
MODEL 9
REMARK VINA RESULT:      -6.7      2.316      2.945
REMARK  Name = 
REMARK  5 active torsions:
REMARK  status: ('A' for Active; 'I' for Inactive)
REMARK    1  A    between atoms: C_1  and  C_2
REMARK    2  A    between atoms: C_5  and  O_6
REMARK    3  A    between atoms: O_6  and  C_7
REMARK    4  A    between atoms: C_7  and  C_8
REMARK    5  A    between atoms: C_15  and  N_16
REMARK                            x       y       z     vdW  Elec       q    Type
REMARK                         _______ _______ _______ _____ _____    ______ ____
ROOT
ATOM      1  C   UNL     1       7.158   4.746  13.350  0.00  0.00    +0.000 C 
ATOM      2  C   UNL     1       6.848   4.802  14.815  0.00  0.00    +0.000 A 
ATOM      3  C   UNL     1       6.049   3.837  15.413  0.00  0.00    +0.000 A 
ATOM      4  C   UNL     1       5.769   3.934  16.776  0.00  0.00    +0.000 A 
ATOM      5  C   UNL     1       6.285   4.991  17.530  0.00  0.00    +0.000 A 
ATOM      6  C   UNL     1       7.088   5.923  16.849  0.00  0.00    +0.000 A 
ATOM      7  N   UNL     1       7.374   5.834  15.509  0.00  0.00    +0.000 NA
ENDROOT
BRANCH   6   8
ATOM      8  N   UNL     1       7.642   7.042  17.635  0.00  0.00    +0.000 N 
ATOM      9  O   UNL     1       7.512   8.190  17.173  0.00  0.00    +0.000 OA
ATOM     10  O   UNL     1       8.242   6.756  18.680  0.00  0.00    +0.000 OA
ENDBRANCH   6   8
BRANCH   5  11
ATOM     11  O   UNL     1       6.065   5.143  18.869  0.00  0.00    +0.000 OA
BRANCH  11  12
ATOM     12  C   UNL     1       4.849   5.767  19.301  0.00  0.00    +0.000 C 
BRANCH  12  13
ATOM     13  C   UNL     1       3.702   4.792  19.155  0.00  0.00    +0.000 A 
ATOM     14  C   UNL     1       3.711   3.557  19.824  0.00  0.00    +0.000 A 
ATOM     15  C   UNL     1       2.652   2.660  19.675  0.00  0.00    +0.000 A 
ATOM     16  C   UNL     1       1.567   2.996  18.871  0.00  0.00    +0.000 A 
ATOM     17 CL   UNL     1       0.272   1.881  18.671  0.00  0.00    +0.000 Cl
ATOM     18  C   UNL     1       1.524   4.232  18.227  0.00  0.00    +0.000 A 
ATOM     19  C   UNL     1       2.586   5.130  18.373  0.00  0.00    +0.000 A 
ENDBRANCH  12  13
ENDBRANCH  11  12
ENDBRANCH   5  11
TORSDOF 4
ENDMDL
