MODEL 1
REMARK VINA RESULT:      -7.1      0.000      0.000
REMARK  Name = 
REMARK  8 active torsions:
REMARK  status: ('A' for Active; 'I' for Inactive)
REMARK    1  A    between atoms: C_1  and  C_2
REMARK    2  A    between atoms: C_2  and  C_3
REMARK    3  A    between atoms: C_2  and  C_5
REMARK    4  A    between atoms: C_3  and  S_4
REMARK    5  A    between atoms: N_7  and  C_8
REMARK    6  A    between atoms: N_7  and  C_12
REMARK    7  A    between atoms: C_8  and  C_9
REMARK    8  A    between atoms: C_9  and  O_11
REMARK                            x       y       z     vdW  Elec       q    Type
REMARK                         _______ _______ _______ _____ _____    ______ ____
ROOT
ATOM      1  C   UNL     1       6.978   4.913  17.339  0.00  0.00    +0.000 C 
ATOM      2  O   UNL     1       8.035   4.518  16.846  0.00  0.00    +0.000 OA
ATOM      3  N   UNL     1       5.768   4.359  16.937  0.00  0.00    +0.000 N 
ENDROOT
BRANCH   3   4
ATOM      4  C   UNL     1       4.599   4.409  17.735  0.00  0.00    +0.000 A 
ATOM      5  C   UNL     1       3.596   5.345  17.435  0.00  0.00    +0.000 A 
ATOM      6  C   UNL     1       2.443   5.425  18.220  0.00  0.00    +0.000 A 
ATOM      7  C   UNL     1       2.300   4.533  19.270  0.00  0.00    +0.000 A 
ATOM      8  C   UNL     1       3.298   3.594  19.565  0.00  0.00    +0.000 A 
ATOM      9  C   UNL     1       4.451   3.522  18.807  0.00  0.00    +0.000 A 
ATOM     10  C   UNL     1       2.928   2.781  20.764  0.00  0.00    +0.000 C 
ATOM     11  C   UNL     1       1.415   3.020  20.821  0.00  0.00    +0.000 C 
ATOM     12  C   UNL     1       1.169   4.422  20.241  0.00  0.00    +0.000 C 
ENDBRANCH   3   4
BRANCH   1  14
ATOM     13  C   UNL     1       8.148   5.966  19.300  0.00  0.00    +0.000 C 
ATOM     14  C   UNL     1       6.948   6.073  18.357  0.00  0.00    +0.000 C 
BRANCH  14  15
ATOM     15  C   UNL     1       6.898   7.405  17.600  0.00  0.00    +0.000 C 
BRANCH  15  16
ATOM     16  S   UNL     1       8.229   8.556  18.088  0.00  0.00    +0.000 S 
ATOM     17  H   UNL     1       9.216   7.649  18.152  0.00  0.00    +0.000 HD
ENDBRANCH  15  16
ENDBRANCH  14  15
ENDBRANCH   1  14
BRANCH   3  18
ATOM     18  C   UNL     1       5.713   3.441  15.776  0.00  0.00    +0.000 C 
BRANCH  18  19
ATOM     19  C   UNL     1       5.981   4.088  14.415  0.00  0.00    +0.000 C 
ATOM     20  O   UNL     1       6.020   5.301  14.248  0.00  0.00    +0.000 OA
BRANCH  19  21
ATOM     21  O   UNL     1       6.295   3.227  13.423  0.00  0.00    +0.000 OA
ATOM     22  H   UNL     1       7.118   2.736  13.619  0.00  0.00    +0.000 HD
ENDBRANCH  19  21
ENDBRANCH  18  19
ENDBRANCH   3  18
TORSDOF 7
ENDMDL
MODEL 2
REMARK VINA RESULT:      -6.9      0.739      1.030
REMARK  Name = 
REMARK  8 active torsions:
REMARK  status: ('A' for Active; 'I' for Inactive)
REMARK    1  A    between atoms: C_1  and  C_2
REMARK    2  A    between atoms: C_2  and  C_3
REMARK    3  A    between atoms: C_2  and  C_5
REMARK    4  A    between atoms: C_3  and  S_4
REMARK    5  A    between atoms: N_7  and  C_8
REMARK    6  A    between atoms: N_7  and  C_12
REMARK    7  A    between atoms: C_8  and  C_9
REMARK    8  A    between atoms: C_9  and  O_11
REMARK                            x       y       z     vdW  Elec       q    Type
REMARK                         _______ _______ _______ _____ _____    ______ ____
ROOT
ATOM      1  C   UNL     1       7.233   4.778  17.800  0.00  0.00    +0.000 C 
ATOM      2  O   UNL     1       8.232   4.283  17.274  0.00  0.00    +0.000 OA
ATOM      3  N   UNL     1       5.965   4.465  17.323  0.00  0.00    +0.000 N 
ENDROOT
BRANCH   3   4
ATOM      4  C   UNL     1       4.796   4.603  18.111  0.00  0.00    +0.000 A 
ATOM      5  C   UNL     1       3.969   5.724  17.931  0.00  0.00    +0.000 A 
ATOM      6  C   UNL     1       2.821   5.890  18.710  0.00  0.00    +0.000 A 
ATOM      7  C   UNL     1       2.501   4.903  19.627  0.00  0.00    +0.000 A 
ATOM      8  C   UNL     1       3.321   3.781  19.801  0.00  0.00    +0.000 A 
ATOM      9  C   UNL     1       4.470   3.619  19.051  0.00  0.00    +0.000 A 
ATOM     10  C   UNL     1       2.786   2.889  20.874  0.00  0.00    +0.000 C 
ATOM     11  C   UNL     1       1.332   3.366  20.949  0.00  0.00    +0.000 C 
ATOM     12  C   UNL     1       1.337   4.855  20.564  0.00  0.00    +0.000 C 
ENDBRANCH   3   4
BRANCH   1  14
ATOM     13  C   UNL     1       8.018   5.155  20.158  0.00  0.00    +0.000 C 
ATOM     14  C   UNL     1       7.351   5.805  18.945  0.00  0.00    +0.000 C 
BRANCH  14  15
ATOM     15  C   UNL     1       8.106   7.039  18.437  0.00  0.00    +0.000 C 
BRANCH  15  16
ATOM     16  S   UNL     1       7.092   8.100  17.348  0.00  0.00    +0.000 S 
ATOM     17  H   UNL     1       6.897   7.197  16.375  0.00  0.00    +0.000 HD
ENDBRANCH  15  16
ENDBRANCH  14  15
ENDBRANCH   1  14
BRANCH   3  18
ATOM     18  C   UNL     1       5.804   3.703  16.063  0.00  0.00    +0.000 C 
BRANCH  18  19
ATOM     19  C   UNL     1       6.003   4.512  14.779  0.00  0.00    +0.000 C 
ATOM     20  O   UNL     1       6.262   3.996  13.698  0.00  0.00    +0.000 OA
BRANCH  19  21
ATOM     21  O   UNL     1       5.752   5.834  14.890  0.00  0.00    +0.000 OA
ATOM     22  H   UNL     1       5.123   6.022  15.616  0.00  0.00    +0.000 HD
ENDBRANCH  19  21
ENDBRANCH  18  19
ENDBRANCH   3  18
TORSDOF 7
ENDMDL
MODEL 3
REMARK VINA RESULT:      -6.8      3.493      5.098
REMARK  Name = 
REMARK  8 active torsions:
REMARK  status: ('A' for Active; 'I' for Inactive)
REMARK    1  A    between atoms: C_1  and  C_2
REMARK    2  A    between atoms: C_2  and  C_3
REMARK    3  A    between atoms: C_2  and  C_5
REMARK    4  A    between atoms: C_3  and  S_4
REMARK    5  A    between atoms: N_7  and  C_8
REMARK    6  A    between atoms: N_7  and  C_12
REMARK    7  A    between atoms: C_8  and  C_9
REMARK    8  A    between atoms: C_9  and  O_11
REMARK                            x       y       z     vdW  Elec       q    Type
REMARK                         _______ _______ _______ _____ _____    ______ ____
ROOT
ATOM      1  C   UNL     1       3.592   4.306  18.153  0.00  0.00    +0.000 C 
ATOM      2  O   UNL     1       4.257   3.471  17.536  0.00  0.00    +0.000 OA
ATOM      3  N   UNL     1       4.070   5.600  18.314  0.00  0.00    +0.000 N 
ENDROOT
BRANCH   3   4
ATOM      4  C   UNL     1       3.222   6.702  18.584  0.00  0.00    +0.000 A 
ATOM      5  C   UNL     1       2.968   7.644  17.575  0.00  0.00    +0.000 A 
ATOM      6  C   UNL     1       2.150   8.748  17.824  0.00  0.00    +0.000 A 
ATOM      7  C   UNL     1       1.566   8.864  19.075  0.00  0.00    +0.000 A 
ATOM      8  C   UNL     1       1.813   7.921  20.081  0.00  0.00    +0.000 A 
ATOM      9  C   UNL     1       2.638   6.836  19.849  0.00  0.00    +0.000 A 
ATOM     10  C   UNL     1       1.107   8.289  21.345  0.00  0.00    +0.000 C 
ATOM     11  C   UNL     1       0.050   9.264  20.813  0.00  0.00    +0.000 C 
ATOM     12  C   UNL     1       0.662   9.944  19.577  0.00  0.00    +0.000 C 
ENDBRANCH   3   4
BRANCH   1  14
ATOM     13  C   UNL     1       1.169   3.764  17.755  0.00  0.00    +0.000 C 
ATOM     14  C   UNL     1       2.253   3.932  18.822  0.00  0.00    +0.000 C 
BRANCH  14  15
ATOM     15  C   UNL     1       2.452   2.675  19.677  0.00  0.00    +0.000 C 
BRANCH  15  16
ATOM     16  S   UNL     1       1.898   2.890  21.404  0.00  0.00    +0.000 S 
ATOM     17  H   UNL     1       0.658   3.322  21.127  0.00  0.00    +0.000 HD
ENDBRANCH  15  16
ENDBRANCH  14  15
ENDBRANCH   1  14
BRANCH   3  18
ATOM     18  C   UNL     1       5.460   5.940  17.931  0.00  0.00    +0.000 C 
BRANCH  18  19
ATOM     19  C   UNL     1       6.553   5.191  18.698  0.00  0.00    +0.000 C 
ATOM     20  O   UNL     1       6.805   5.403  19.879  0.00  0.00    +0.000 OA
BRANCH  19  21
ATOM     21  O   UNL     1       7.145   4.187  18.017  0.00  0.00    +0.000 OA
ATOM     22  H   UNL     1       6.486   3.586  17.615  0.00  0.00    +0.000 HD
ENDBRANCH  19  21
ENDBRANCH  18  19
ENDBRANCH   3  18
TORSDOF 7
ENDMDL
MODEL 4
REMARK VINA RESULT:      -6.6      3.464      4.415
REMARK  Name = 
REMARK  8 active torsions:
REMARK  status: ('A' for Active; 'I' for Inactive)
REMARK    1  A    between atoms: C_1  and  C_2
REMARK    2  A    between atoms: C_2  and  C_3
REMARK    3  A    between atoms: C_2  and  C_5
REMARK    4  A    between atoms: C_3  and  S_4
REMARK    5  A    between atoms: N_7  and  C_8
REMARK    6  A    between atoms: N_7  and  C_12
REMARK    7  A    between atoms: C_8  and  C_9
REMARK    8  A    between atoms: C_9  and  O_11
REMARK                            x       y       z     vdW  Elec       q    Type
REMARK                         _______ _______ _______ _____ _____    ______ ____
ROOT
ATOM      1  C   UNL     1       4.830   4.151  19.155  0.00  0.00    +0.000 C 
ATOM      2  O   UNL     1       5.295   3.107  19.613  0.00  0.00    +0.000 OA
ATOM      3  N   UNL     1       3.471   4.421  19.269  0.00  0.00    +0.000 N 
ENDROOT
BRANCH   3   4
ATOM      4  C   UNL     1       2.942   5.732  19.196  0.00  0.00    +0.000 A 
ATOM      5  C   UNL     1       3.022   6.446  17.990  0.00  0.00    +0.000 A 
ATOM      6  C   UNL     1       2.524   7.748  17.901  0.00  0.00    +0.000 A 
ATOM      7  C   UNL     1       1.914   8.295  19.017  0.00  0.00    +0.000 A 
ATOM      8  C   UNL     1       1.827   7.581  20.220  0.00  0.00    +0.000 A 
ATOM      9  C   UNL     1       2.336   6.301  20.323  0.00  0.00    +0.000 A 
ATOM     10  C   UNL     1       1.167   8.401  21.281  0.00  0.00    +0.000 C 
ATOM     11  C   UNL     1       0.456   9.459  20.430  0.00  0.00    +0.000 C 
ATOM     12  C   UNL     1       1.310   9.655  19.167  0.00  0.00    +0.000 C 
ENDBRANCH   3   4
BRANCH   1  14
ATOM     13  C   UNL     1       6.886   5.595  19.261  0.00  0.00    +0.000 C 
ATOM     14  C   UNL     1       5.712   5.155  18.384  0.00  0.00    +0.000 C 
BRANCH  14  15
ATOM     15  C   UNL     1       6.158   4.520  17.061  0.00  0.00    +0.000 C 
BRANCH  15  16
ATOM     16  S   UNL     1       5.602   5.456  15.595  0.00  0.00    +0.000 S 
ATOM     17  H   UNL     1       6.212   4.695  14.673  0.00  0.00    +0.000 HD
ENDBRANCH  15  16
ENDBRANCH  14  15
ENDBRANCH   1  14
BRANCH   3  18
ATOM     18  C   UNL     1       2.538   3.378  19.754  0.00  0.00    +0.000 C 
BRANCH  18  19
ATOM     19  C   UNL     1       1.962   2.460  18.674  0.00  0.00    +0.000 C 
ATOM     20  O   UNL     1       0.901   2.684  18.103  0.00  0.00    +0.000 OA
BRANCH  19  21
ATOM     21  O   UNL     1       2.765   1.441  18.299  0.00  0.00    +0.000 OA
ATOM     22  H   UNL     1       3.663   1.755  18.072  0.00  0.00    +0.000 HD
ENDBRANCH  19  21
ENDBRANCH  18  19
ENDBRANCH   3  18
TORSDOF 7
ENDMDL
MODEL 5
REMARK VINA RESULT:      -6.6      1.241      1.389
REMARK  Name = 
REMARK  8 active torsions:
REMARK  status: ('A' for Active; 'I' for Inactive)
REMARK    1  A    between atoms: C_1  and  C_2
REMARK    2  A    between atoms: C_2  and  C_3
REMARK    3  A    between atoms: C_2  and  C_5
REMARK    4  A    between atoms: C_3  and  S_4
REMARK    5  A    between atoms: N_7  and  C_8
REMARK    6  A    between atoms: N_7  and  C_12
REMARK    7  A    between atoms: C_8  and  C_9
REMARK    8  A    between atoms: C_9  and  O_11
REMARK                            x       y       z     vdW  Elec       q    Type
REMARK                         _______ _______ _______ _____ _____    ______ ____
ROOT
ATOM      1  C   UNL     1       6.811   6.198  16.661  0.00  0.00    +0.000 C 
ATOM      2  O   UNL     1       7.699   5.857  15.878  0.00  0.00    +0.000 OA
ATOM      3  N   UNL     1       5.490   5.841  16.420  0.00  0.00    +0.000 N 
ENDROOT
BRANCH   3   4
ATOM      4  C   UNL     1       4.513   5.783  17.444  0.00  0.00    +0.000 A 
ATOM      5  C   UNL     1       3.691   6.897  17.679  0.00  0.00    +0.000 A 
ATOM      6  C   UNL     1       2.734   6.870  18.696  0.00  0.00    +0.000 A 
ATOM      7  C   UNL     1       2.590   5.706  19.432  0.00  0.00    +0.000 A 
ATOM      8  C   UNL     1       3.405   4.591  19.193  0.00  0.00    +0.000 A 
ATOM      9  C   UNL     1       4.369   4.617  18.203  0.00  0.00    +0.000 A 
ATOM     10  C   UNL     1       3.086   3.482  20.143  0.00  0.00    +0.000 C 
ATOM     11  C   UNL     1       1.689   3.900  20.617  0.00  0.00    +0.000 C 
ATOM     12  C   UNL     1       1.645   5.435  20.559  0.00  0.00    +0.000 C 
ENDBRANCH   3   4
BRANCH   1  14
ATOM     13  C   UNL     1       7.962   6.304  18.894  0.00  0.00    +0.000 C 
ATOM     14  C   UNL     1       7.117   7.085  17.886  0.00  0.00    +0.000 C 
BRANCH  14  15
ATOM     15  C   UNL     1       7.791   8.379  17.415  0.00  0.00    +0.000 C 
BRANCH  15  16
ATOM     16  S   UNL     1       8.710   9.232  18.743  0.00  0.00    +0.000 S 
ATOM     17  H   UNL     1       8.168  10.446  18.565  0.00  0.00    +0.000 HD
ENDBRANCH  15  16
ENDBRANCH  14  15
ENDBRANCH   1  14
BRANCH   3  18
ATOM     18  C   UNL     1       5.103   5.227  15.129  0.00  0.00    +0.000 C 
BRANCH  18  19
ATOM     19  C   UNL     1       5.887   3.972  14.738  0.00  0.00    +0.000 C 
ATOM     20  O   UNL     1       6.351   3.796  13.618  0.00  0.00    +0.000 OA
BRANCH  19  21
ATOM     21  O   UNL     1       6.143   3.118  15.753  0.00  0.00    +0.000 OA
ATOM     22  H   UNL     1       5.565   2.331  15.716  0.00  0.00    +0.000 HD
ENDBRANCH  19  21
ENDBRANCH  18  19
ENDBRANCH   3  18
TORSDOF 7
ENDMDL
MODEL 6
REMARK VINA RESULT:      -6.4      3.521      5.937
REMARK  Name = 
REMARK  8 active torsions:
REMARK  status: ('A' for Active; 'I' for Inactive)
REMARK    1  A    between atoms: C_1  and  C_2
REMARK    2  A    between atoms: C_2  and  C_3
REMARK    3  A    between atoms: C_2  and  C_5
REMARK    4  A    between atoms: C_3  and  S_4
REMARK    5  A    between atoms: N_7  and  C_8
REMARK    6  A    between atoms: N_7  and  C_12
REMARK    7  A    between atoms: C_8  and  C_9
REMARK    8  A    between atoms: C_9  and  O_11
REMARK                            x       y       z     vdW  Elec       q    Type
REMARK                         _______ _______ _______ _____ _____    ______ ____
ROOT
ATOM      1  C   UNL     1       2.386   4.910  19.511  0.00  0.00    +0.000 C 
ATOM      2  O   UNL     1       1.304   4.534  19.966  0.00  0.00    +0.000 OA
ATOM      3  N   UNL     1       3.368   3.982  19.185  0.00  0.00    +0.000 N 
ENDROOT
BRANCH   3   4
ATOM      4  C   UNL     1       4.411   4.261  18.268  0.00  0.00    +0.000 A 
ATOM      5  C   UNL     1       5.668   4.660  18.749  0.00  0.00    +0.000 A 
ATOM      6  C   UNL     1       6.706   4.957  17.862  0.00  0.00    +0.000 A 
ATOM      7  C   UNL     1       6.473   4.808  16.505  0.00  0.00    +0.000 A 
ATOM      8  C   UNL     1       5.221   4.403  16.025  0.00  0.00    +0.000 A 
ATOM      9  C   UNL     1       4.183   4.127  16.894  0.00  0.00    +0.000 A 
ATOM     10  C   UNL     1       5.211   4.359  14.531  0.00  0.00    +0.000 C 
ATOM     11  C   UNL     1       6.713   4.307  14.232  0.00  0.00    +0.000 C 
ATOM     12  C   UNL     1       7.415   5.062  15.373  0.00  0.00    +0.000 C 
ENDBRANCH   3   4
BRANCH   1  14
ATOM     13  C   UNL     1       2.333   6.880  17.948  0.00  0.00    +0.000 C 
ATOM     14  C   UNL     1       2.716   6.410  19.353  0.00  0.00    +0.000 C 
BRANCH  14  15
ATOM     15  C   UNL     1       2.009   7.199  20.462  0.00  0.00    +0.000 C 
BRANCH  15  16
ATOM     16  S   UNL     1       1.332   8.793  19.884  0.00  0.00    +0.000 S 
ATOM     17  H   UNL     1       2.404   9.183  19.178  0.00  0.00    +0.000 HD
ENDBRANCH  15  16
ENDBRANCH  14  15
ENDBRANCH   1  14
BRANCH   3  18
ATOM     18  C   UNL     1       3.212   2.560  19.566  0.00  0.00    +0.000 C 
BRANCH  18  19
ATOM     19  C   UNL     1       3.709   2.198  20.967  0.00  0.00    +0.000 C 
ATOM     20  O   UNL     1       4.850   1.812  21.193  0.00  0.00    +0.000 OA
BRANCH  19  21
ATOM     21  O   UNL     1       2.838   2.451  21.967  0.00  0.00    +0.000 OA
ATOM     22  H   UNL     1       1.912   2.443  21.650  0.00  0.00    +0.000 HD
ENDBRANCH  19  21
ENDBRANCH  18  19
ENDBRANCH   3  18
TORSDOF 7
ENDMDL
MODEL 7
REMARK VINA RESULT:      -6.4      3.594      5.666
REMARK  Name = 
REMARK  8 active torsions:
REMARK  status: ('A' for Active; 'I' for Inactive)
REMARK    1  A    between atoms: C_1  and  C_2
REMARK    2  A    between atoms: C_2  and  C_3
REMARK    3  A    between atoms: C_2  and  C_5
REMARK    4  A    between atoms: C_3  and  S_4
REMARK    5  A    between atoms: N_7  and  C_8
REMARK    6  A    between atoms: N_7  and  C_12
REMARK    7  A    between atoms: C_8  and  C_9
REMARK    8  A    between atoms: C_9  and  O_11
REMARK                            x       y       z     vdW  Elec       q    Type
REMARK                         _______ _______ _______ _____ _____    ______ ____
ROOT
ATOM      1  C   UNL     1       2.144   5.341  19.858  0.00  0.00    +0.000 C 
ATOM      2  O   UNL     1       1.038   5.011  20.291  0.00  0.00    +0.000 OA
ATOM      3  N   UNL     1       3.120   4.379  19.628  0.00  0.00    +0.000 N 
ENDROOT
BRANCH   3   4
ATOM      4  C   UNL     1       4.202   4.585  18.738  0.00  0.00    +0.000 A 
ATOM      5  C   UNL     1       5.447   4.992  19.244  0.00  0.00    +0.000 A 
ATOM      6  C   UNL     1       6.523   5.219  18.383  0.00  0.00    +0.000 A 
ATOM      7  C   UNL     1       6.341   4.991  17.029  0.00  0.00    +0.000 A 
ATOM      8  C   UNL     1       5.102   4.577  16.524  0.00  0.00    +0.000 A 
ATOM      9  C   UNL     1       4.025   4.370  17.366  0.00  0.00    +0.000 A 
ATOM     10  C   UNL     1       5.149   4.442  15.036  0.00  0.00    +0.000 C 
ATOM     11  C   UNL     1       6.661   4.348  14.802  0.00  0.00    +0.000 C 
ATOM     12  C   UNL     1       7.331   5.160  15.922  0.00  0.00    +0.000 C 
ENDBRANCH   3   4
BRANCH   1  14
ATOM     13  C   UNL     1       2.203   7.210  18.177  0.00  0.00    +0.000 C 
ATOM     14  C   UNL     1       2.508   6.822  19.625  0.00  0.00    +0.000 C 
BRANCH  14  15
ATOM     15  C   UNL     1       1.761   7.690  20.646  0.00  0.00    +0.000 C 
BRANCH  15  16
ATOM     16  S   UNL     1       1.051   9.205  19.914  0.00  0.00    +0.000 S 
ATOM     17  H   UNL     1       1.213   9.997  20.985  0.00  0.00    +0.000 HD
ENDBRANCH  15  16
ENDBRANCH  14  15
ENDBRANCH   1  14
BRANCH   3  18
ATOM     18  C   UNL     1       2.922   2.984  20.086  0.00  0.00    +0.000 C 
BRANCH  18  19
ATOM     19  C   UNL     1       2.282   2.043  19.062  0.00  0.00    +0.000 C 
ATOM     20  O   UNL     1       1.110   2.130  18.715  0.00  0.00    +0.000 OA
BRANCH  19  21
ATOM     21  O   UNL     1       3.133   1.179  18.469  0.00  0.00    +0.000 OA
ATOM     22  H   UNL     1       3.896   0.972  19.045  0.00  0.00    +0.000 HD
ENDBRANCH  19  21
ENDBRANCH  18  19
ENDBRANCH   3  18
TORSDOF 7
ENDMDL
MODEL 8
REMARK VINA RESULT:      -6.4      2.477      3.856
REMARK  Name = 
REMARK  8 active torsions:
REMARK  status: ('A' for Active; 'I' for Inactive)
REMARK    1  A    between atoms: C_1  and  C_2
REMARK    2  A    between atoms: C_2  and  C_3
REMARK    3  A    between atoms: C_2  and  C_5
REMARK    4  A    between atoms: C_3  and  S_4
REMARK    5  A    between atoms: N_7  and  C_8
REMARK    6  A    between atoms: N_7  and  C_12
REMARK    7  A    between atoms: C_8  and  C_9
REMARK    8  A    between atoms: C_9  and  O_11
REMARK                            x       y       z     vdW  Elec       q    Type
REMARK                         _______ _______ _______ _____ _____    ______ ____
ROOT
ATOM      1  C   UNL     1       6.789   4.838  15.579  0.00  0.00    +0.000 C 
ATOM      2  O   UNL     1       7.883   5.283  15.230  0.00  0.00    +0.000 OA
ATOM      3  N   UNL     1       6.549   4.538  16.915  0.00  0.00    +0.000 N 
ENDROOT
BRANCH   3   4
ATOM      4  C   UNL     1       5.245   4.468  17.462  0.00  0.00    +0.000 A 
ATOM      5  C   UNL     1       4.540   5.654  17.722  0.00  0.00    +0.000 A 
ATOM      6  C   UNL     1       3.259   5.610  18.279  0.00  0.00    +0.000 A 
ATOM      7  C   UNL     1       2.693   4.371  18.527  0.00  0.00    +0.000 A 
ATOM      8  C   UNL     1       3.393   3.187  18.261  0.00  0.00    +0.000 A 
ATOM      9  C   UNL     1       4.668   3.221  17.729  0.00  0.00    +0.000 A 
ATOM     10  C   UNL     1       2.588   1.990  18.652  0.00  0.00    +0.000 C 
ATOM     11  C   UNL     1       1.181   2.594  18.710  0.00  0.00    +0.000 C 
ATOM     12  C   UNL     1       1.350   4.068  19.112  0.00  0.00    +0.000 C 
ENDBRANCH   3   4
BRANCH   1  14
ATOM     13  C   UNL     1       5.011   5.836  14.107  0.00  0.00    +0.000 C 
ATOM     14  C   UNL     1       5.679   4.533  14.551  0.00  0.00    +0.000 C 
BRANCH  14  15
ATOM     15  C   UNL     1       6.280   3.740  13.384  0.00  0.00    +0.000 C 
BRANCH  15  16
ATOM     16  S   UNL     1       5.058   3.343  12.085  0.00  0.00    +0.000 S 
ATOM     17  H   UNL     1       5.615   4.073  11.107  0.00  0.00    +0.000 HD
ENDBRANCH  15  16
ENDBRANCH  14  15
ENDBRANCH   1  14
BRANCH   3  18
ATOM     18  C   UNL     1       7.658   4.554  17.897  0.00  0.00    +0.000 C 
BRANCH  18  19
ATOM     19  C   UNL     1       7.610   5.691  18.920  0.00  0.00    +0.000 C 
ATOM     20  O   UNL     1       7.410   5.507  20.116  0.00  0.00    +0.000 OA
BRANCH  19  21
ATOM     21  O   UNL     1       7.927   6.911  18.435  0.00  0.00    +0.000 OA
ATOM     22  H   UNL     1       7.215   7.561  18.602  0.00  0.00    +0.000 HD
ENDBRANCH  19  21
ENDBRANCH  18  19
ENDBRANCH   3  18
TORSDOF 7
ENDMDL
MODEL 9
REMARK VINA RESULT:      -6.4      2.220      3.674
REMARK  Name = 
REMARK  8 active torsions:
REMARK  status: ('A' for Active; 'I' for Inactive)
REMARK    1  A    between atoms: C_1  and  C_2
REMARK    2  A    between atoms: C_2  and  C_3
REMARK    3  A    between atoms: C_2  and  C_5
REMARK    4  A    between atoms: C_3  and  S_4
REMARK    5  A    between atoms: N_7  and  C_8
REMARK    6  A    between atoms: N_7  and  C_12
REMARK    7  A    between atoms: C_8  and  C_9
REMARK    8  A    between atoms: C_9  and  O_11
REMARK                            x       y       z     vdW  Elec       q    Type
REMARK                         _______ _______ _______ _____ _____    ______ ____
ROOT
ATOM      1  C   UNL     1       6.632   4.838  16.256  0.00  0.00    +0.000 C 
ATOM      2  O   UNL     1       7.723   5.129  15.761  0.00  0.00    +0.000 OA
ATOM      3  N   UNL     1       6.520   4.624  17.625  0.00  0.00    +0.000 N 
ENDROOT
BRANCH   3   4
ATOM      4  C   UNL     1       5.292   4.740  18.320  0.00  0.00    +0.000 A 
ATOM      5  C   UNL     1       4.573   5.945  18.259  0.00  0.00    +0.000 A 
ATOM      6  C   UNL     1       3.368   6.089  18.951  0.00  0.00    +0.000 A 
ATOM      7  C   UNL     1       2.886   5.002  19.662  0.00  0.00    +0.000 A 
ATOM      8  C   UNL     1       3.599   3.798  19.718  0.00  0.00    +0.000 A 
ATOM      9  C   UNL     1       4.801   3.654  19.053  0.00  0.00    +0.000 A 
ATOM     10  C   UNL     1       2.894   2.799  20.578  0.00  0.00    +0.000 C 
ATOM     11  C   UNL     1       1.479   3.387  20.606  0.00  0.00    +0.000 C 
ATOM     12  C   UNL     1       1.633   4.911  20.474  0.00  0.00    +0.000 C 
ENDBRANCH   3   4
BRANCH   1  14
ATOM     13  C   UNL     1       5.096   5.902  14.574  0.00  0.00    +0.000 C 
ATOM     14  C   UNL     1       5.379   4.632  15.380  0.00  0.00    +0.000 C 
BRANCH  14  15
ATOM     15  C   UNL     1       5.581   3.395  14.496  0.00  0.00    +0.000 C 
BRANCH  15  16
ATOM     16  S   UNL     1       6.208   3.801  12.830  0.00  0.00    +0.000 S 
ATOM     17  H   UNL     1       5.682   2.743  12.193  0.00  0.00    +0.000 HD
ENDBRANCH  15  16
ENDBRANCH  14  15
ENDBRANCH   1  14
BRANCH   3  18
ATOM     18  C   UNL     1       7.732   4.541  18.473  0.00  0.00    +0.000 C 
BRANCH  18  19
ATOM     19  C   UNL     1       8.030   5.786  19.312  0.00  0.00    +0.000 C 
ATOM     20  O   UNL     1       8.164   6.903  18.827  0.00  0.00    +0.000 OA
BRANCH  19  21
ATOM     21  O   UNL     1       8.016   5.592  20.649  0.00  0.00    +0.000 OA
ATOM     22  H   UNL     1       8.027   4.640  20.875  0.00  0.00    +0.000 HD
ENDBRANCH  19  21
ENDBRANCH  18  19
ENDBRANCH   3  18
TORSDOF 7
ENDMDL
