MODEL 1
REMARK VINA RESULT:      -7.7      0.000      0.000
REMARK  Name = 
REMARK  3 active torsions:
REMARK  status: ('A' for Active; 'I' for Inactive)
REMARK    1  A    between atoms: C_2  and  C_16
REMARK    2  A    between atoms: N_3  and  C_4
REMARK    3  A    between atoms: C_9  and  N_10
REMARK                            x       y       z     vdW  Elec       q    Type
REMARK                         _______ _______ _______ _____ _____    ______ ____
ROOT
ATOM      1  C   UNL     1       5.478   4.777  16.203  0.00  0.00    +0.000 A 
ATOM      2  C   UNL     1       5.049   4.037  15.097  0.00  0.00    +0.000 A 
ATOM      3  C   UNL     1       5.817   3.971  13.939  0.00  0.00    +0.000 A 
ATOM      4  C   UNL     1       7.002   4.676  13.899  0.00  0.00    +0.000 A 
ATOM      5  N   UNL     1       7.459   5.423  14.924  0.00  0.00    +0.000 NA
ATOM      6  C   UNL     1       6.702   5.463  16.067  0.00  0.00    +0.000 A 
ENDROOT
BRANCH   6   7
ATOM      7  N   UNL     1       7.262   6.198  17.162  0.00  0.00    +0.000 N 
ATOM      8  C   UNL     1       7.583   7.542  17.159  0.00  0.00    +0.000 A 
ATOM      9  C   UNL     1       8.179   7.812  18.363  0.00  0.00    +0.000 A 
ATOM     10 CL   UNL     1       8.814   9.276  18.917  0.00  0.00    +0.000 Cl
ATOM     11  C   UNL     1       8.161   6.597  19.059  0.00  0.00    +0.000 A 
ATOM     12  N   UNL     1       7.580   5.615  18.364  0.00  0.00    +0.000 NA
ENDBRANCH   6   7
BRANCH   1  15
ATOM     13  O   UNL     1       4.030   2.624  17.586  0.00  0.00    +0.000 OA
ATOM     14  C   UNL     1       4.029   3.787  17.986  0.00  0.00    +0.000 C 
ATOM     15  N   UNL     1       4.703   4.833  17.394  0.00  0.00    +0.000 N 
ATOM     16  H   UNL     1       4.790   5.707  17.921  0.00  0.00    +0.000 HD
BRANCH  14  17
ATOM     17  C   UNL     1       3.225   4.185  19.213  0.00  0.00    +0.000 C 
ATOM     18  C   UNL     1       1.729   4.263  18.902  0.00  0.00    +0.000 C 
ATOM     19  C   UNL     1       1.067   4.227  20.268  0.00  0.00    +0.000 C 
ATOM     20  C   UNL     1       2.004   3.415  21.156  0.00  0.00    +0.000 C 
ATOM     21  C   UNL     1       3.268   3.156  20.337  0.00  0.00    +0.000 C 
ENDBRANCH  14  17
ENDBRANCH   1  15
TORSDOF 3
ENDMDL
MODEL 2
REMARK VINA RESULT:      -7.7      0.979      1.075
REMARK  Name = 
REMARK  3 active torsions:
REMARK  status: ('A' for Active; 'I' for Inactive)
REMARK    1  A    between atoms: C_2  and  C_16
REMARK    2  A    between atoms: N_3  and  C_4
REMARK    3  A    between atoms: C_9  and  N_10
REMARK                            x       y       z     vdW  Elec       q    Type
REMARK                         _______ _______ _______ _____ _____    ______ ____
ROOT
ATOM      1  C   UNL     1       5.437   5.007  16.435  0.00  0.00    +0.000 A 
ATOM      2  C   UNL     1       4.963   4.190  15.404  0.00  0.00    +0.000 A 
ATOM      3  C   UNL     1       5.716   3.982  14.253  0.00  0.00    +0.000 A 
ATOM      4  C   UNL     1       6.932   4.625  14.142  0.00  0.00    +0.000 A 
ATOM      5  N   UNL     1       7.432   5.440  15.092  0.00  0.00    +0.000 NA
ATOM      6  C   UNL     1       6.689   5.619  16.230  0.00  0.00    +0.000 A 
ENDROOT
BRANCH   6   7
ATOM      7  N   UNL     1       7.293   6.425  17.250  0.00  0.00    +0.000 N 
ATOM      8  C   UNL     1       7.541   7.782  17.173  0.00  0.00    +0.000 A 
ATOM      9  C   UNL     1       8.214   8.130  18.315  0.00  0.00    +0.000 A 
ATOM     10 CL   UNL     1       8.812   9.645  18.764  0.00  0.00    +0.000 Cl
ATOM     11  C   UNL     1       8.316   6.944  19.053  0.00  0.00    +0.000 A 
ATOM     12  N   UNL     1       7.735   5.907  18.442  0.00  0.00    +0.000 NA
ENDBRANCH   6   7
BRANCH   1  15
ATOM     13  O   UNL     1       5.464   3.478  18.948  0.00  0.00    +0.000 OA
ATOM     14  C   UNL     1       4.721   4.442  18.765  0.00  0.00    +0.000 C 
ATOM     15  N   UNL     1       4.677   5.208  17.621  0.00  0.00    +0.000 N 
ATOM     16  H   UNL     1       4.166   6.096  17.657  0.00  0.00    +0.000 HD
BRANCH  14  17
ATOM     17  C   UNL     1       3.727   4.869  19.834  0.00  0.00    +0.000 C 
ATOM     18  C   UNL     1       3.069   6.205  19.486  0.00  0.00    +0.000 C 
ATOM     19  C   UNL     1       1.841   6.254  20.379  0.00  0.00    +0.000 C 
ATOM     20  C   UNL     1       1.427   4.800  20.585  0.00  0.00    +0.000 C 
ATOM     21  C   UNL     1       2.526   3.939  19.962  0.00  0.00    +0.000 C 
ENDBRANCH  14  17
ENDBRANCH   1  15
TORSDOF 3
ENDMDL
MODEL 3
REMARK VINA RESULT:      -7.7      1.335      1.422
REMARK  Name = 
REMARK  3 active torsions:
REMARK  status: ('A' for Active; 'I' for Inactive)
REMARK    1  A    between atoms: C_2  and  C_16
REMARK    2  A    between atoms: N_3  and  C_4
REMARK    3  A    between atoms: C_9  and  N_10
REMARK                            x       y       z     vdW  Elec       q    Type
REMARK                         _______ _______ _______ _____ _____    ______ ____
ROOT
ATOM      1  C   UNL     1       5.577   4.723  16.142  0.00  0.00    +0.000 A 
ATOM      2  C   UNL     1       5.173   3.980  15.028  0.00  0.00    +0.000 A 
ATOM      3  C   UNL     1       5.939   3.957  13.867  0.00  0.00    +0.000 A 
ATOM      4  C   UNL     1       7.095   4.708  13.831  0.00  0.00    +0.000 A 
ATOM      5  N   UNL     1       7.526   5.461  14.864  0.00  0.00    +0.000 NA
ATOM      6  C   UNL     1       6.773   5.457  16.009  0.00  0.00    +0.000 A 
ENDROOT
BRANCH   6   7
ATOM      7  N   UNL     1       7.308   6.202  17.111  0.00  0.00    +0.000 N 
ATOM      8  C   UNL     1       7.599   7.552  17.114  0.00  0.00    +0.000 A 
ATOM      9  C   UNL     1       8.180   7.832  18.324  0.00  0.00    +0.000 A 
ATOM     10 CL   UNL     1       8.779   9.307  18.887  0.00  0.00    +0.000 Cl
ATOM     11  C   UNL     1       8.182   6.614  19.016  0.00  0.00    +0.000 A 
ATOM     12  N   UNL     1       7.628   5.622  18.314  0.00  0.00    +0.000 NA
ENDBRANCH   6   7
BRANCH   1  15
ATOM     13  O   UNL     1       3.921   6.877  17.268  0.00  0.00    +0.000 OA
ATOM     14  C   UNL     1       4.060   5.787  17.823  0.00  0.00    +0.000 C 
ATOM     15  N   UNL     1       4.805   4.735  17.336  0.00  0.00    +0.000 N 
ATOM     16  H   UNL     1       4.688   3.819  17.780  0.00  0.00    +0.000 HD
BRANCH  14  17
ATOM     17  C   UNL     1       3.408   5.513  19.168  0.00  0.00    +0.000 C 
ATOM     18  C   UNL     1       2.488   6.660  19.590  0.00  0.00    +0.000 C 
ATOM     19  C   UNL     1       1.616   6.053  20.674  0.00  0.00    +0.000 C 
ATOM     20  C   UNL     1       1.502   4.571  20.326  0.00  0.00    +0.000 C 
ATOM     21  C   UNL     1       2.456   4.322  19.158  0.00  0.00    +0.000 C 
ENDBRANCH  14  17
ENDBRANCH   1  15
TORSDOF 3
ENDMDL
MODEL 4
REMARK VINA RESULT:      -7.5      1.689      1.920
REMARK  Name = 
REMARK  3 active torsions:
REMARK  status: ('A' for Active; 'I' for Inactive)
REMARK    1  A    between atoms: C_2  and  C_16
REMARK    2  A    between atoms: N_3  and  C_4
REMARK    3  A    between atoms: C_9  and  N_10
REMARK                            x       y       z     vdW  Elec       q    Type
REMARK                         _______ _______ _______ _____ _____    ______ ____
ROOT
ATOM      1  C   UNL     1       5.778   4.244  15.209  0.00  0.00    +0.000 A 
ATOM      2  C   UNL     1       5.517   3.737  13.933  0.00  0.00    +0.000 A 
ATOM      3  C   UNL     1       6.373   4.001  12.869  0.00  0.00    +0.000 A 
ATOM      4  C   UNL     1       7.474   4.801  13.098  0.00  0.00    +0.000 A 
ATOM      5  N   UNL     1       7.767   5.336  14.300  0.00  0.00    +0.000 NA
ATOM      6  C   UNL     1       6.927   5.050  15.345  0.00  0.00    +0.000 A 
ENDROOT
BRANCH   6   7
ATOM      7  N   UNL     1       7.319   5.568  16.622  0.00  0.00    +0.000 N 
ATOM      8  C   UNL     1       7.577   4.823  17.757  0.00  0.00    +0.000 A 
ATOM      9  C   UNL     1       7.818   5.712  18.771  0.00  0.00    +0.000 A 
ATOM     10 CL   UNL     1       8.156   5.389  20.394  0.00  0.00    +0.000 Cl
ATOM     11  C   UNL     1       7.721   6.976  18.177  0.00  0.00    +0.000 A 
ATOM     12  N   UNL     1       7.453   6.911  16.870  0.00  0.00    +0.000 NA
ENDBRANCH   6   7
BRANCH   1  15
ATOM     13  O   UNL     1       4.092   6.077  16.774  0.00  0.00    +0.000 OA
ATOM     14  C   UNL     1       4.159   4.871  17.011  0.00  0.00    +0.000 C 
ATOM     15  N   UNL     1       4.914   3.961  16.302  0.00  0.00    +0.000 N 
ATOM     16  H   UNL     1       4.740   2.965  16.464  0.00  0.00    +0.000 HD
BRANCH  14  17
ATOM     17  C   UNL     1       3.395   4.266  18.177  0.00  0.00    +0.000 C 
ATOM     18  C   UNL     1       1.886   4.454  18.017  0.00  0.00    +0.000 C 
ATOM     19  C   UNL     1       1.285   3.448  18.983  0.00  0.00    +0.000 C 
ATOM     20  C   UNL     1       2.288   2.300  19.055  0.00  0.00    +0.000 C 
ATOM     21  C   UNL     1       3.524   2.750  18.276  0.00  0.00    +0.000 C 
ENDBRANCH  14  17
ENDBRANCH   1  15
TORSDOF 3
ENDMDL
MODEL 5
REMARK VINA RESULT:      -7.5      1.581      1.955
REMARK  Name = 
REMARK  3 active torsions:
REMARK  status: ('A' for Active; 'I' for Inactive)
REMARK    1  A    between atoms: C_2  and  C_16
REMARK    2  A    between atoms: N_3  and  C_4
REMARK    3  A    between atoms: C_9  and  N_10
REMARK                            x       y       z     vdW  Elec       q    Type
REMARK                         _______ _______ _______ _____ _____    ______ ____
ROOT
ATOM      1  C   UNL     1       5.745   4.241  15.299  0.00  0.00    +0.000 A 
ATOM      2  C   UNL     1       5.453   3.723  14.033  0.00  0.00    +0.000 A 
ATOM      3  C   UNL     1       6.284   3.978  12.947  0.00  0.00    +0.000 A 
ATOM      4  C   UNL     1       7.390   4.780  13.143  0.00  0.00    +0.000 A 
ATOM      5  N   UNL     1       7.712   5.324  14.334  0.00  0.00    +0.000 NA
ATOM      6  C   UNL     1       6.897   5.047  15.400  0.00  0.00    +0.000 A 
ENDROOT
BRANCH   6   7
ATOM      7  N   UNL     1       7.320   5.575  16.664  0.00  0.00    +0.000 N 
ATOM      8  C   UNL     1       7.580   4.841  17.805  0.00  0.00    +0.000 A 
ATOM      9  C   UNL     1       7.856   5.739  18.802  0.00  0.00    +0.000 A 
ATOM     10 CL   UNL     1       8.213   5.433  20.425  0.00  0.00    +0.000 Cl
ATOM     11  C   UNL     1       7.775   6.997  18.191  0.00  0.00    +0.000 A 
ATOM     12  N   UNL     1       7.485   6.919  16.890  0.00  0.00    +0.000 NA
ENDBRANCH   6   7
BRANCH   1  15
ATOM     13  O   UNL     1       4.070   6.080  16.867  0.00  0.00    +0.000 OA
ATOM     14  C   UNL     1       4.157   4.880  17.123  0.00  0.00    +0.000 C 
ATOM     15  N   UNL     1       4.907   3.967  16.415  0.00  0.00    +0.000 N 
ATOM     16  H   UNL     1       4.749   2.971  16.598  0.00  0.00    +0.000 HD
BRANCH  14  17
ATOM     17  C   UNL     1       3.425   4.286  18.316  0.00  0.00    +0.000 C 
ATOM     18  C   UNL     1       3.630   5.129  19.576  0.00  0.00    +0.000 C 
ATOM     19  C   UNL     1       2.523   4.672  20.509  0.00  0.00    +0.000 C 
ATOM     20  C   UNL     1       1.374   4.244  19.601  0.00  0.00    +0.000 C 
ATOM     21  C   UNL     1       1.907   4.289  18.169  0.00  0.00    +0.000 C 
ENDBRANCH  14  17
ENDBRANCH   1  15
TORSDOF 3
ENDMDL
MODEL 6
REMARK VINA RESULT:      -7.5      2.776      5.753
REMARK  Name = 
REMARK  3 active torsions:
REMARK  status: ('A' for Active; 'I' for Inactive)
REMARK    1  A    between atoms: C_2  and  C_16
REMARK    2  A    between atoms: N_3  and  C_4
REMARK    3  A    between atoms: C_9  and  N_10
REMARK                            x       y       z     vdW  Elec       q    Type
REMARK                         _______ _______ _______ _____ _____    ______ ____
ROOT
ATOM      1  C   UNL     1       3.681   3.733  18.560  0.00  0.00    +0.000 A 
ATOM      2  C   UNL     1       3.692   2.359  18.301  0.00  0.00    +0.000 A 
ATOM      3  C   UNL     1       2.552   1.586  18.495  0.00  0.00    +0.000 A 
ATOM      4  C   UNL     1       1.416   2.203  18.975  0.00  0.00    +0.000 A 
ATOM      5  N   UNL     1       1.349   3.519  19.263  0.00  0.00    +0.000 NA
ATOM      6  C   UNL     1       2.473   4.273  19.047  0.00  0.00    +0.000 A 
ENDROOT
BRANCH   6   7
ATOM      7  N   UNL     1       2.337   5.680  19.284  0.00  0.00    +0.000 N 
ATOM      8  C   UNL     1       1.903   6.268  20.457  0.00  0.00    +0.000 A 
ATOM      9  C   UNL     1       1.827   7.616  20.223  0.00  0.00    +0.000 A 
ATOM     10 CL   UNL     1       1.325   8.840  21.273  0.00  0.00    +0.000 Cl
ATOM     11  C   UNL     1       2.256   7.780  18.900  0.00  0.00    +0.000 A 
ATOM     12  N   UNL     1       2.602   6.625  18.324  0.00  0.00    +0.000 NA
ENDBRANCH   6   7
BRANCH   1  15
ATOM     13  O   UNL     1       5.056   4.384  16.043  0.00  0.00    +0.000 OA
ATOM     14  C   UNL     1       5.451   4.784  17.138  0.00  0.00    +0.000 C 
ATOM     15  N   UNL     1       4.839   4.530  18.346  0.00  0.00    +0.000 N 
ATOM     16  H   UNL     1       5.142   5.073  19.160  0.00  0.00    +0.000 HD
BRANCH  14  17
ATOM     17  C   UNL     1       6.721   5.612  17.250  0.00  0.00    +0.000 C 
ATOM     18  C   UNL     1       6.432   7.106  17.104  0.00  0.00    +0.000 C 
ATOM     19  C   UNL     1       7.672   7.778  17.666  0.00  0.00    +0.000 C 
ATOM     20  C   UNL     1       8.212   6.821  18.724  0.00  0.00    +0.000 C 
ATOM     21  C   UNL     1       7.381   5.542  18.622  0.00  0.00    +0.000 C 
ENDBRANCH  14  17
ENDBRANCH   1  15
TORSDOF 3
ENDMDL
MODEL 7
REMARK VINA RESULT:      -7.4      0.916      1.235
REMARK  Name = 
REMARK  3 active torsions:
REMARK  status: ('A' for Active; 'I' for Inactive)
REMARK    1  A    between atoms: C_2  and  C_16
REMARK    2  A    between atoms: N_3  and  C_4
REMARK    3  A    between atoms: C_9  and  N_10
REMARK                            x       y       z     vdW  Elec       q    Type
REMARK                         _______ _______ _______ _____ _____    ______ ____
ROOT
ATOM      1  C   UNL     1       5.382   4.866  15.649  0.00  0.00    +0.000 A 
ATOM      2  C   UNL     1       5.043   4.157  14.492  0.00  0.00    +0.000 A 
ATOM      3  C   UNL     1       5.975   3.951  13.480  0.00  0.00    +0.000 A 
ATOM      4  C   UNL     1       7.236   4.488  13.633  0.00  0.00    +0.000 A 
ATOM      5  N   UNL     1       7.617   5.198  14.715  0.00  0.00    +0.000 NA
ATOM      6  C   UNL     1       6.695   5.374  15.715  0.00  0.00    +0.000 A 
ENDROOT
BRANCH   6   7
ATOM      7  N   UNL     1       7.163   6.061  16.882  0.00  0.00    +0.000 N 
ATOM      8  C   UNL     1       7.561   7.382  16.943  0.00  0.00    +0.000 A 
ATOM      9  C   UNL     1       8.025   7.601  18.214  0.00  0.00    +0.000 A 
ATOM     10 CL   UNL     1       8.675   9.016  18.868  0.00  0.00    +0.000 Cl
ATOM     11  C   UNL     1       7.853   6.380  18.879  0.00  0.00    +0.000 A 
ATOM     12  N   UNL     1       7.301   5.444  18.101  0.00  0.00    +0.000 NA
ENDBRANCH   6   7
BRANCH   1  15
ATOM     13  O   UNL     1       4.172   2.893  17.464  0.00  0.00    +0.000 OA
ATOM     14  C   UNL     1       3.890   4.090  17.502  0.00  0.00    +0.000 C 
ATOM     15  N   UNL     1       4.437   5.062  16.693  0.00  0.00    +0.000 N 
ATOM     16  H   UNL     1       4.275   6.042  16.946  0.00  0.00    +0.000 HD
BRANCH  14  17
ATOM     17  C   UNL     1       2.846   4.610  18.476  0.00  0.00    +0.000 C 
ATOM     18  C   UNL     1       3.074   4.064  19.887  0.00  0.00    +0.000 C 
ATOM     19  C   UNL     1       2.264   4.991  20.776  0.00  0.00    +0.000 C 
ATOM     20  C   UNL     1       2.261   6.341  20.064  0.00  0.00    +0.000 C 
ATOM     21  C   UNL     1       2.909   6.117  18.698  0.00  0.00    +0.000 C 
ENDBRANCH  14  17
ENDBRANCH   1  15
TORSDOF 3
ENDMDL
MODEL 8
REMARK VINA RESULT:      -7.4      2.959      6.106
REMARK  Name = 
REMARK  3 active torsions:
REMARK  status: ('A' for Active; 'I' for Inactive)
REMARK    1  A    between atoms: C_2  and  C_16
REMARK    2  A    between atoms: N_3  and  C_4
REMARK    3  A    between atoms: C_9  and  N_10
REMARK                            x       y       z     vdW  Elec       q    Type
REMARK                         _______ _______ _______ _____ _____    ______ ____
ROOT
ATOM      1  C   UNL     1       3.475   4.462  19.833  0.00  0.00    +0.000 A 
ATOM      2  C   UNL     1       3.459   3.130  20.257  0.00  0.00    +0.000 A 
ATOM      3  C   UNL     1       2.300   2.558  20.773  0.00  0.00    +0.000 A 
ATOM      4  C   UNL     1       1.173   3.346  20.882  0.00  0.00    +0.000 A 
ATOM      5  N   UNL     1       1.133   4.642  20.510  0.00  0.00    +0.000 NA
ATOM      6  C   UNL     1       2.275   5.186  19.983  0.00  0.00    +0.000 A 
ENDROOT
BRANCH   6   7
ATOM      7  N   UNL     1       2.167   6.539  19.523  0.00  0.00    +0.000 N 
ATOM      8  C   UNL     1       1.675   7.608  20.248  0.00  0.00    +0.000 A 
ATOM      9  C   UNL     1       1.657   8.688  19.404  0.00  0.00    +0.000 A 
ATOM     10 CL   UNL     1       1.124  10.259  19.718  0.00  0.00    +0.000 Cl
ATOM     11  C   UNL     1       2.178   8.212  18.194  0.00  0.00    +0.000 A 
ATOM     12  N   UNL     1       2.526   6.924  18.255  0.00  0.00    +0.000 NA
ENDBRANCH   6   7
BRANCH   1  15
ATOM     13  O   UNL     1       4.703   4.062  17.191  0.00  0.00    +0.000 OA
ATOM     14  C   UNL     1       5.191   4.802  18.044  0.00  0.00    +0.000 C 
ATOM     15  N   UNL     1       4.653   5.045  19.290  0.00  0.00    +0.000 N 
ATOM     16  H   UNL     1       5.037   5.823  19.834  0.00  0.00    +0.000 HD
BRANCH  14  17
ATOM     17  C   UNL     1       6.504   5.523  17.786  0.00  0.00    +0.000 C 
ATOM     18  C   UNL     1       6.272   6.925  17.221  0.00  0.00    +0.000 C 
ATOM     19  C   UNL     1       7.596   7.635  17.440  0.00  0.00    +0.000 C 
ATOM     20  C   UNL     1       8.201   6.995  18.686  0.00  0.00    +0.000 C 
ATOM     21  C   UNL     1       7.305   5.813  19.051  0.00  0.00    +0.000 C 
ENDBRANCH  14  17
ENDBRANCH   1  15
TORSDOF 3
ENDMDL
MODEL 9
REMARK VINA RESULT:      -7.4      1.309      1.507
REMARK  Name = 
REMARK  3 active torsions:
REMARK  status: ('A' for Active; 'I' for Inactive)
REMARK    1  A    between atoms: C_2  and  C_16
REMARK    2  A    between atoms: N_3  and  C_4
REMARK    3  A    between atoms: C_9  and  N_10
REMARK                            x       y       z     vdW  Elec       q    Type
REMARK                         _______ _______ _______ _____ _____    ______ ____
ROOT
ATOM      1  C   UNL     1       5.347   4.823  15.488  0.00  0.00    +0.000 A 
ATOM      2  C   UNL     1       4.942   4.268  14.270  0.00  0.00    +0.000 A 
ATOM      3  C   UNL     1       5.856   4.047  13.246  0.00  0.00    +0.000 A 
ATOM      4  C   UNL     1       7.170   4.416  13.450  0.00  0.00    +0.000 A 
ATOM      5  N   UNL     1       7.617   4.974  14.594  0.00  0.00    +0.000 NA
ATOM      6  C   UNL     1       6.709   5.165  15.603  0.00  0.00    +0.000 A 
ENDROOT
BRANCH   6   7
ATOM      7  N   UNL     1       7.239   5.682  16.830  0.00  0.00    +0.000 N 
ATOM      8  C   UNL     1       7.483   4.956  17.980  0.00  0.00    +0.000 A 
ATOM      9  C   UNL     1       7.890   5.848  18.937  0.00  0.00    +0.000 A 
ATOM     10 CL   UNL     1       8.293   5.551  20.550  0.00  0.00    +0.000 Cl
ATOM     11  C   UNL     1       7.899   7.092  18.293  0.00  0.00    +0.000 A 
ATOM     12  N   UNL     1       7.542   7.009  17.009  0.00  0.00    +0.000 NA
ENDBRANCH   6   7
BRANCH   1  15
ATOM     13  O   UNL     1       4.157   2.872  17.340  0.00  0.00    +0.000 OA
ATOM     14  C   UNL     1       3.880   4.070  17.370  0.00  0.00    +0.000 C 
ATOM     15  N   UNL     1       4.418   5.033  16.544  0.00  0.00    +0.000 N 
ATOM     16  H   UNL     1       4.262   6.016  16.789  0.00  0.00    +0.000 HD
BRANCH  14  17
ATOM     17  C   UNL     1       2.852   4.604  18.355  0.00  0.00    +0.000 C 
ATOM     18  C   UNL     1       1.806   3.544  18.703  0.00  0.00    +0.000 C 
ATOM     19  C   UNL     1       1.160   4.068  19.974  0.00  0.00    +0.000 C 
ATOM     20  C   UNL     1       2.245   4.873  20.683  0.00  0.00    +0.000 C 
ATOM     21  C   UNL     1       3.431   4.948  19.722  0.00  0.00    +0.000 C 
ENDBRANCH  14  17
ENDBRANCH   1  15
TORSDOF 3
ENDMDL
