MODEL 1
REMARK VINA RESULT:      -7.4      0.000      0.000
REMARK  Name = 
REMARK  6 active torsions:
REMARK  status: ('A' for Active; 'I' for Inactive)
REMARK    1  A    between atoms: C_1  and  C_2
REMARK    2  A    between atoms: C_6  and  N_7
REMARK    3  A    between atoms: C_8  and  C_10
REMARK    4  A    between atoms: C_10  and  C_11
REMARK    5  A    between atoms: C_11  and  S_12
REMARK    6  A    between atoms: S_12  and  C_15
REMARK                            x       y       z     vdW  Elec       q    Type
REMARK                         _______ _______ _______ _____ _____    ______ ____
ROOT
ATOM      1  N   UNL     1       2.666   6.197  20.344  0.00  0.00    +0.000 N 
ATOM      2  C   UNL     1       1.896   5.066  20.568  0.00  0.00    +0.000 C 
ATOM      3  O   UNL     1       0.694   4.959  20.358  0.00  0.00    +0.000 OA
ATOM      4  H   UNL     1       3.644   6.186  20.591  0.00  0.00    +0.000 HD
ENDROOT
BRANCH   1  10
ATOM      5  C   UNL     1       0.187  10.290  20.857  0.00  0.00    +0.000 C 
ATOM      6  C   UNL     1       0.967   9.379  19.956  0.00  0.00    +0.000 A 
ATOM      7  C   UNL     1       1.179   9.699  18.624  0.00  0.00    +0.000 A 
ATOM      8  C   UNL     1       1.907   8.806  17.844  0.00  0.00    +0.000 A 
ATOM      9  C   UNL     1       2.402   7.633  18.417  0.00  0.00    +0.000 A 
ATOM     10  C   UNL     1       2.159   7.383  19.765  0.00  0.00    +0.000 A 
ATOM     11  N   UNL     1       1.447   8.245  20.512  0.00  0.00    +0.000 NA
ENDBRANCH   1  10
BRANCH   2  12
ATOM     12  C   UNL     1       2.645   3.881  21.157  0.00  0.00    +0.000 C 
BRANCH  12  13
ATOM     13  C   UNL     1       2.496   2.703  20.190  0.00  0.00    +0.000 C 
BRANCH  13  14
ATOM     14  S   UNL     1       4.023   2.196  19.450  0.00  0.00    +0.000 S 
ATOM     15  O   UNL     1       4.969   1.928  20.520  0.00  0.00    +0.000 OA
ATOM     16  O   UNL     1       3.738   1.188  18.448  0.00  0.00    +0.000 OA
BRANCH  14  17
ATOM     17  C   UNL     1       4.590   3.663  18.597  0.00  0.00    +0.000 A 
ATOM     18  C   UNL     1       4.003   4.008  17.376  0.00  0.00    +0.000 A 
ATOM     19  C   UNL     1       4.438   5.146  16.693  0.00  0.00    +0.000 A 
ATOM     20  C   UNL     1       5.446   5.944  17.234  0.00  0.00    +0.000 A 
ATOM     21  C   UNL     1       6.009   5.615  18.470  0.00  0.00    +0.000 A 
ATOM     22  C   UNL     1       5.581   4.476  19.160  0.00  0.00    +0.000 A 
ENDBRANCH  14  17
ENDBRANCH  13  14
ENDBRANCH  12  13
ENDBRANCH   2  12
TORSDOF 5
ENDMDL
MODEL 2
REMARK VINA RESULT:      -7.3      0.121      1.064
REMARK  Name = 
REMARK  6 active torsions:
REMARK  status: ('A' for Active; 'I' for Inactive)
REMARK    1  A    between atoms: C_1  and  C_2
REMARK    2  A    between atoms: C_6  and  N_7
REMARK    3  A    between atoms: C_8  and  C_10
REMARK    4  A    between atoms: C_10  and  C_11
REMARK    5  A    between atoms: C_11  and  S_12
REMARK    6  A    between atoms: S_12  and  C_15
REMARK                            x       y       z     vdW  Elec       q    Type
REMARK                         _______ _______ _______ _____ _____    ______ ____
ROOT
ATOM      1  N   UNL     1       2.636   6.055  20.389  0.00  0.00    +0.000 N 
ATOM      2  C   UNL     1       1.847   4.929  20.566  0.00  0.00    +0.000 C 
ATOM      3  O   UNL     1       0.651   4.841  20.319  0.00  0.00    +0.000 OA
ATOM      4  H   UNL     1       3.607   6.027  20.664  0.00  0.00    +0.000 HD
ENDROOT
BRANCH   1  10
ATOM      5  C   UNL     1       0.303  10.226  20.949  0.00  0.00    +0.000 C 
ATOM      6  C   UNL     1       1.039   9.292  20.035  0.00  0.00    +0.000 A 
ATOM      7  C   UNL     1       1.240   9.609  18.700  0.00  0.00    +0.000 A 
ATOM      8  C   UNL     1       1.926   8.694  17.908  0.00  0.00    +0.000 A 
ATOM      9  C   UNL     1       2.391   7.505  18.469  0.00  0.00    +0.000 A 
ATOM     10  C   UNL     1       2.160   7.258  19.821  0.00  0.00    +0.000 A 
ATOM     11  N   UNL     1       1.489   8.142  20.580  0.00  0.00    +0.000 NA
ENDBRANCH   1  10
BRANCH   2  12
ATOM     12  C   UNL     1       2.565   3.723  21.152  0.00  0.00    +0.000 C 
BRANCH  12  13
ATOM     13  C   UNL     1       2.473   2.581  20.135  0.00  0.00    +0.000 C 
BRANCH  13  14
ATOM     14  S   UNL     1       4.036   2.126  19.438  0.00  0.00    +0.000 S 
ATOM     15  O   UNL     1       4.968   1.917  20.533  0.00  0.00    +0.000 OA
ATOM     16  O   UNL     1       3.816   1.088  18.450  0.00  0.00    +0.000 OA
BRANCH  14  17
ATOM     17  C   UNL     1       4.561   3.599  18.570  0.00  0.00    +0.000 A 
ATOM     18  C   UNL     1       5.543   4.413  19.145  0.00  0.00    +0.000 A 
ATOM     19  C   UNL     1       5.959   5.570  18.484  0.00  0.00    +0.000 A 
ATOM     20  C   UNL     1       5.409   5.907  17.247  0.00  0.00    +0.000 A 
ATOM     21  C   UNL     1       4.452   5.075  16.659  0.00  0.00    +0.000 A 
ATOM     22  C   UNL     1       4.027   3.915  17.315  0.00  0.00    +0.000 A 
ENDBRANCH  14  17
ENDBRANCH  13  14
ENDBRANCH  12  13
ENDBRANCH   2  12
TORSDOF 5
ENDMDL
MODEL 3
REMARK VINA RESULT:      -7.0      3.388      5.245
REMARK  Name = 
REMARK  6 active torsions:
REMARK  status: ('A' for Active; 'I' for Inactive)
REMARK    1  A    between atoms: C_1  and  C_2
REMARK    2  A    between atoms: C_6  and  N_7
REMARK    3  A    between atoms: C_8  and  C_10
REMARK    4  A    between atoms: C_10  and  C_11
REMARK    5  A    between atoms: C_11  and  S_12
REMARK    6  A    between atoms: S_12  and  C_15
REMARK                            x       y       z     vdW  Elec       q    Type
REMARK                         _______ _______ _______ _____ _____    ______ ____
ROOT
ATOM      1  N   UNL     1       4.174   5.822  18.392  0.00  0.00    +0.000 N 
ATOM      2  C   UNL     1       5.494   5.744  18.810  0.00  0.00    +0.000 C 
ATOM      3  O   UNL     1       5.903   5.145  19.796  0.00  0.00    +0.000 OA
ATOM      4  H   UNL     1       3.944   6.378  17.582  0.00  0.00    +0.000 HD
ENDROOT
BRANCH   1  10
ATOM      5  C   UNL     1       1.364   1.928  18.694  0.00  0.00    +0.000 C 
ATOM      6  C   UNL     1       1.721   3.284  19.226  0.00  0.00    +0.000 A 
ATOM      7  C   UNL     1       1.038   3.833  20.300  0.00  0.00    +0.000 A 
ATOM      8  C   UNL     1       1.418   5.098  20.739  0.00  0.00    +0.000 A 
ATOM      9  C   UNL     1       2.464   5.765  20.101  0.00  0.00    +0.000 A 
ATOM     10  C   UNL     1       3.112   5.146  19.034  0.00  0.00    +0.000 A 
ATOM     11  N   UNL     1       2.734   3.928  18.609  0.00  0.00    +0.000 NA
ENDBRANCH   1  10
BRANCH   2  12
ATOM     12  C   UNL     1       6.489   6.509  17.953  0.00  0.00    +0.000 C 
BRANCH  12  13
ATOM     13  C   UNL     1       6.239   6.130  16.489  0.00  0.00    +0.000 C 
BRANCH  13  14
ATOM     14  S   UNL     1       6.614   4.439  16.122  0.00  0.00    +0.000 S 
ATOM     15  O   UNL     1       7.909   4.133  16.706  0.00  0.00    +0.000 OA
ATOM     16  O   UNL     1       5.454   3.630  16.438  0.00  0.00    +0.000 OA
BRANCH  14  17
ATOM     17  C   UNL     1       6.818   4.423  14.345  0.00  0.00    +0.000 A 
ATOM     18  C   UNL     1       6.062   3.527  13.582  0.00  0.00    +0.000 A 
ATOM     19  C   UNL     1       6.214   3.497  12.195  0.00  0.00    +0.000 A 
ATOM     20  C   UNL     1       7.106   4.368  11.568  0.00  0.00    +0.000 A 
ATOM     21  C   UNL     1       7.836   5.284  12.329  0.00  0.00    +0.000 A 
ATOM     22  C   UNL     1       7.693   5.320  13.720  0.00  0.00    +0.000 A 
ENDBRANCH  14  17
ENDBRANCH  13  14
ENDBRANCH  12  13
ENDBRANCH   2  12
TORSDOF 5
ENDMDL
MODEL 4
REMARK VINA RESULT:      -7.0      3.560      5.397
REMARK  Name = 
REMARK  6 active torsions:
REMARK  status: ('A' for Active; 'I' for Inactive)
REMARK    1  A    between atoms: C_1  and  C_2
REMARK    2  A    between atoms: C_6  and  N_7
REMARK    3  A    between atoms: C_8  and  C_10
REMARK    4  A    between atoms: C_10  and  C_11
REMARK    5  A    between atoms: C_11  and  S_12
REMARK    6  A    between atoms: S_12  and  C_15
REMARK                            x       y       z     vdW  Elec       q    Type
REMARK                         _______ _______ _______ _____ _____    ______ ____
ROOT
ATOM      1  N   UNL     1       3.534   5.056  17.923  0.00  0.00    +0.000 N 
ATOM      2  C   UNL     1       3.647   6.409  18.203  0.00  0.00    +0.000 C 
ATOM      3  O   UNL     1       2.967   7.039  19.003  0.00  0.00    +0.000 OA
ATOM      4  H   UNL     1       4.124   4.646  17.213  0.00  0.00    +0.000 HD
ENDROOT
BRANCH   1  10
ATOM      5  C   UNL     1       2.158   2.929  22.014  0.00  0.00    +0.000 C 
ATOM      6  C   UNL     1       1.926   3.136  20.547  0.00  0.00    +0.000 A 
ATOM      7  C   UNL     1       0.875   2.511  19.894  0.00  0.00    +0.000 A 
ATOM      8  C   UNL     1       0.721   2.744  18.530  0.00  0.00    +0.000 A 
ATOM      9  C   UNL     1       1.611   3.592  17.870  0.00  0.00    +0.000 A 
ATOM     10  C   UNL     1       2.637   4.194  18.593  0.00  0.00    +0.000 A 
ATOM     11  N   UNL     1       2.786   3.959  19.909  0.00  0.00    +0.000 NA
ENDBRANCH   1  10
BRANCH   2  12
ATOM     12  C   UNL     1       4.706   7.148  17.400  0.00  0.00    +0.000 C 
BRANCH  12  13
ATOM     13  C   UNL     1       4.963   6.354  16.116  0.00  0.00    +0.000 C 
BRANCH  13  14
ATOM     14  S   UNL     1       6.506   5.484  16.118  0.00  0.00    +0.000 S 
ATOM     15  O   UNL     1       7.567   6.459  16.301  0.00  0.00    +0.000 OA
ATOM     16  O   UNL     1       6.391   4.344  17.007  0.00  0.00    +0.000 OA
BRANCH  14  17
ATOM     17  C   UNL     1       6.644   4.857  14.449  0.00  0.00    +0.000 A 
ATOM     18  C   UNL     1       7.628   5.384  13.604  0.00  0.00    +0.000 A 
ATOM     19  C   UNL     1       7.745   4.911  12.296  0.00  0.00    +0.000 A 
ATOM     20  C   UNL     1       6.894   3.906  11.836  0.00  0.00    +0.000 A 
ATOM     21  C   UNL     1       5.934   3.358  12.690  0.00  0.00    +0.000 A 
ATOM     22  C   UNL     1       5.808   3.827  14.002  0.00  0.00    +0.000 A 
ENDBRANCH  14  17
ENDBRANCH  13  14
ENDBRANCH  12  13
ENDBRANCH   2  12
TORSDOF 5
ENDMDL
MODEL 5
REMARK VINA RESULT:      -6.9      4.308      5.712
REMARK  Name = 
REMARK  6 active torsions:
REMARK  status: ('A' for Active; 'I' for Inactive)
REMARK    1  A    between atoms: C_1  and  C_2
REMARK    2  A    between atoms: C_6  and  N_7
REMARK    3  A    between atoms: C_8  and  C_10
REMARK    4  A    between atoms: C_10  and  C_11
REMARK    5  A    between atoms: C_11  and  S_12
REMARK    6  A    between atoms: S_12  and  C_15
REMARK                            x       y       z     vdW  Elec       q    Type
REMARK                         _______ _______ _______ _____ _____    ______ ____
ROOT
ATOM      1  N   UNL     1       5.188   3.478  18.569  0.00  0.00    +0.000 N 
ATOM      2  C   UNL     1       5.816   4.611  19.064  0.00  0.00    +0.000 C 
ATOM      3  O   UNL     1       5.300   5.475  19.762  0.00  0.00    +0.000 OA
ATOM      4  H   UNL     1       5.701   2.850  17.969  0.00  0.00    +0.000 HD
ENDROOT
BRANCH   1  10
ATOM      5  C   UNL     1       1.820   2.596  21.891  0.00  0.00    +0.000 C 
ATOM      6  C   UNL     1       2.180   2.696  20.439  0.00  0.00    +0.000 A 
ATOM      7  C   UNL     1       1.235   2.464  19.451  0.00  0.00    +0.000 A 
ATOM      8  C   UNL     1       1.638   2.568  18.123  0.00  0.00    +0.000 A 
ATOM      9  C   UNL     1       2.960   2.905  17.827  0.00  0.00    +0.000 A 
ATOM     10  C   UNL     1       3.851   3.133  18.872  0.00  0.00    +0.000 A 
ATOM     11  N   UNL     1       3.458   3.023  20.153  0.00  0.00    +0.000 NA
ENDBRANCH   1  10
BRANCH   2  12
ATOM     12  C   UNL     1       7.271   4.773  18.655  0.00  0.00    +0.000 C 
BRANCH  12  13
ATOM     13  C   UNL     1       7.380   4.442  17.163  0.00  0.00    +0.000 C 
BRANCH  13  14
ATOM     14  S   UNL     1       6.758   5.721  16.107  0.00  0.00    +0.000 S 
ATOM     15  O   UNL     1       5.368   5.954  16.461  0.00  0.00    +0.000 OA
ATOM     16  O   UNL     1       7.710   6.814  16.096  0.00  0.00    +0.000 OA
BRANCH  14  17
ATOM     17  C   UNL     1       6.771   4.975  14.481  0.00  0.00    +0.000 A 
ATOM     18  C   UNL     1       5.786   4.036  14.156  0.00  0.00    +0.000 A 
ATOM     19  C   UNL     1       5.786   3.439  12.894  0.00  0.00    +0.000 A 
ATOM     20  C   UNL     1       6.756   3.788  11.954  0.00  0.00    +0.000 A 
ATOM     21  C   UNL     1       7.720   4.749  12.270  0.00  0.00    +0.000 A 
ATOM     22  C   UNL     1       7.729   5.351  13.532  0.00  0.00    +0.000 A 
ENDBRANCH  14  17
ENDBRANCH  13  14
ENDBRANCH  12  13
ENDBRANCH   2  12
TORSDOF 5
ENDMDL
MODEL 6
REMARK VINA RESULT:      -6.9      3.902      6.869
REMARK  Name = 
REMARK  6 active torsions:
REMARK  status: ('A' for Active; 'I' for Inactive)
REMARK    1  A    between atoms: C_1  and  C_2
REMARK    2  A    between atoms: C_6  and  N_7
REMARK    3  A    between atoms: C_8  and  C_10
REMARK    4  A    between atoms: C_10  and  C_11
REMARK    5  A    between atoms: C_11  and  S_12
REMARK    6  A    between atoms: S_12  and  C_15
REMARK                            x       y       z     vdW  Elec       q    Type
REMARK                         _______ _______ _______ _____ _____    ______ ____
ROOT
ATOM      1  N   UNL     1       5.926   4.687  15.842  0.00  0.00    +0.000 N 
ATOM      2  C   UNL     1       5.250   5.809  16.295  0.00  0.00    +0.000 C 
ATOM      3  O   UNL     1       5.006   6.815  15.641  0.00  0.00    +0.000 OA
ATOM      4  H   UNL     1       6.107   3.926  16.481  0.00  0.00    +0.000 HD
ENDROOT
BRANCH   1  10
ATOM      5  C   UNL     1       5.471   2.497  11.581  0.00  0.00    +0.000 C 
ATOM      6  C   UNL     1       6.199   3.501  12.425  0.00  0.00    +0.000 A 
ATOM      7  C   UNL     1       7.254   4.238  11.909  0.00  0.00    +0.000 A 
ATOM      8  C   UNL     1       7.888   5.148  12.749  0.00  0.00    +0.000 A 
ATOM      9  C   UNL     1       7.447   5.298  14.065  0.00  0.00    +0.000 A 
ATOM     10  C   UNL     1       6.374   4.530  14.510  0.00  0.00    +0.000 A 
ATOM     11  N   UNL     1       5.771   3.646  13.697  0.00  0.00    +0.000 NA
ENDBRANCH   1  10
BRANCH   2  12
ATOM     12  C   UNL     1       4.815   5.757  17.750  0.00  0.00    +0.000 C 
BRANCH  12  13
ATOM     13  C   UNL     1       3.284   5.815  17.786  0.00  0.00    +0.000 C 
BRANCH  13  14
ATOM     14  S   UNL     1       2.511   4.234  17.584  0.00  0.00    +0.000 S 
ATOM     15  O   UNL     1       1.138   4.460  17.167  0.00  0.00    +0.000 OA
ATOM     16  O   UNL     1       3.390   3.388  16.801  0.00  0.00    +0.000 OA
BRANCH  14  17
ATOM     17  C   UNL     1       2.458   3.570  19.244  0.00  0.00    +0.000 A 
ATOM     18  C   UNL     1       1.281   3.698  19.990  0.00  0.00    +0.000 A 
ATOM     19  C   UNL     1       1.224   3.191  21.290  0.00  0.00    +0.000 A 
ATOM     20  C   UNL     1       2.333   2.547  21.839  0.00  0.00    +0.000 A 
ATOM     21  C   UNL     1       3.497   2.392  21.082  0.00  0.00    +0.000 A 
ATOM     22  C   UNL     1       3.564   2.898  19.779  0.00  0.00    +0.000 A 
ENDBRANCH  14  17
ENDBRANCH  13  14
ENDBRANCH  12  13
ENDBRANCH   2  12
TORSDOF 5
ENDMDL
MODEL 7
REMARK VINA RESULT:      -6.9      3.988      6.907
REMARK  Name = 
REMARK  6 active torsions:
REMARK  status: ('A' for Active; 'I' for Inactive)
REMARK    1  A    between atoms: C_1  and  C_2
REMARK    2  A    between atoms: C_6  and  N_7
REMARK    3  A    between atoms: C_8  and  C_10
REMARK    4  A    between atoms: C_10  and  C_11
REMARK    5  A    between atoms: C_11  and  S_12
REMARK    6  A    between atoms: S_12  and  C_15
REMARK                            x       y       z     vdW  Elec       q    Type
REMARK                         _______ _______ _______ _____ _____    ______ ____
ROOT
ATOM      1  N   UNL     1       6.781   4.845  15.907  0.00  0.00    +0.000 N 
ATOM      2  C   UNL     1       6.224   5.969  16.496  0.00  0.00    +0.000 C 
ATOM      3  O   UNL     1       5.815   6.963  15.907  0.00  0.00    +0.000 OA
ATOM      4  H   UNL     1       7.121   4.097  16.493  0.00  0.00    +0.000 HD
ENDROOT
BRANCH   1  10
ATOM      5  C   UNL     1       5.309   2.593  11.917  0.00  0.00    +0.000 C 
ATOM      6  C   UNL     1       6.216   3.610  12.544  0.00  0.00    +0.000 A 
ATOM      7  C   UNL     1       7.110   4.340  11.775  0.00  0.00    +0.000 A 
ATOM      8  C   UNL     1       7.926   5.264  12.423  0.00  0.00    +0.000 A 
ATOM      9  C   UNL     1       7.819   5.432  13.804  0.00  0.00    +0.000 A 
ATOM     10  C   UNL     1       6.891   4.670  14.509  0.00  0.00    +0.000 A 
ATOM     11  N   UNL     1       6.111   3.773  13.880  0.00  0.00    +0.000 NA
ENDBRANCH   1  10
BRANCH   2  12
ATOM     12  C   UNL     1       6.159   5.939  18.014  0.00  0.00    +0.000 C 
BRANCH  12  13
ATOM     13  C   UNL     1       5.404   4.672  18.428  0.00  0.00    +0.000 C 
BRANCH  13  14
ATOM     14  S   UNL     1       3.726   4.631  17.862  0.00  0.00    +0.000 S 
ATOM     15  O   UNL     1       3.263   6.003  17.741  0.00  0.00    +0.000 OA
ATOM     16  O   UNL     1       3.641   3.723  16.735  0.00  0.00    +0.000 OA
BRANCH  14  17
ATOM     17  C   UNL     1       2.834   3.890  19.224  0.00  0.00    +0.000 A 
ATOM     18  C   UNL     1       1.444   4.032  19.283  0.00  0.00    +0.000 A 
ATOM     19  C   UNL     1       0.733   3.466  20.343  0.00  0.00    +0.000 A 
ATOM     20  C   UNL     1       1.405   2.747  21.333  0.00  0.00    +0.000 A 
ATOM     21  C   UNL     1       2.790   2.579  21.254  0.00  0.00    +0.000 A 
ATOM     22  C   UNL     1       3.511   3.145  20.197  0.00  0.00    +0.000 A 
ENDBRANCH  14  17
ENDBRANCH  13  14
ENDBRANCH  12  13
ENDBRANCH   2  12
TORSDOF 5
ENDMDL
MODEL 8
REMARK VINA RESULT:      -6.8      3.985      6.992
REMARK  Name = 
REMARK  6 active torsions:
REMARK  status: ('A' for Active; 'I' for Inactive)
REMARK    1  A    between atoms: C_1  and  C_2
REMARK    2  A    between atoms: C_6  and  N_7
REMARK    3  A    between atoms: C_8  and  C_10
REMARK    4  A    between atoms: C_10  and  C_11
REMARK    5  A    between atoms: C_11  and  S_12
REMARK    6  A    between atoms: S_12  and  C_15
REMARK                            x       y       z     vdW  Elec       q    Type
REMARK                         _______ _______ _______ _____ _____    ______ ____
ROOT
ATOM      1  N   UNL     1       6.584   5.276  15.568  0.00  0.00    +0.000 N 
ATOM      2  C   UNL     1       5.722   6.293  15.948  0.00  0.00    +0.000 C 
ATOM      3  O   UNL     1       5.078   7.011  15.195  0.00  0.00    +0.000 OA
ATOM      4  H   UNL     1       7.095   4.770  16.275  0.00  0.00    +0.000 HD
ENDROOT
BRANCH   1  10
ATOM      5  C   UNL     1       5.330   2.458  11.875  0.00  0.00    +0.000 C 
ATOM      6  C   UNL     1       6.218   3.546  12.401  0.00  0.00    +0.000 A 
ATOM      7  C   UNL     1       7.180   4.136  11.596  0.00  0.00    +0.000 A 
ATOM      8  C   UNL     1       7.973   5.136  12.150  0.00  0.00    +0.000 A 
ATOM      9  C   UNL     1       7.777   5.516  13.479  0.00  0.00    +0.000 A 
ATOM     10  C   UNL     1       6.784   4.886  14.224  0.00  0.00    +0.000 A 
ATOM     11  N   UNL     1       6.026   3.914  13.686  0.00  0.00    +0.000 NA
ENDBRANCH   1  10
BRANCH   2  12
ATOM     12  C   UNL     1       5.617   6.523  17.448  0.00  0.00    +0.000 C 
BRANCH  12  13
ATOM     13  C   UNL     1       4.366   5.794  17.949  0.00  0.00    +0.000 C 
BRANCH  13  14
ATOM     14  S   UNL     1       4.641   4.082  18.309  0.00  0.00    +0.000 S 
ATOM     15  O   UNL     1       4.549   3.344  17.061  0.00  0.00    +0.000 OA
ATOM     16  O   UNL     1       5.818   3.970  19.147  0.00  0.00    +0.000 OA
BRANCH  14  17
ATOM     17  C   UNL     1       3.225   3.622  19.301  0.00  0.00    +0.000 A 
ATOM     18  C   UNL     1       2.861   4.432  20.383  0.00  0.00    +0.000 A 
ATOM     19  C   UNL     1       1.763   4.084  21.171  0.00  0.00    +0.000 A 
ATOM     20  C   UNL     1       1.020   2.941  20.873  0.00  0.00    +0.000 A 
ATOM     21  C   UNL     1       1.366   2.152  19.774  0.00  0.00    +0.000 A 
ATOM     22  C   UNL     1       2.466   2.491  18.979  0.00  0.00    +0.000 A 
ENDBRANCH  14  17
ENDBRANCH  13  14
ENDBRANCH  12  13
ENDBRANCH   2  12
TORSDOF 5
ENDMDL
MODEL 9
REMARK VINA RESULT:      -6.8      2.633      4.985
REMARK  Name = 
REMARK  6 active torsions:
REMARK  status: ('A' for Active; 'I' for Inactive)
REMARK    1  A    between atoms: C_1  and  C_2
REMARK    2  A    between atoms: C_6  and  N_7
REMARK    3  A    between atoms: C_8  and  C_10
REMARK    4  A    between atoms: C_10  and  C_11
REMARK    5  A    between atoms: C_11  and  S_12
REMARK    6  A    between atoms: S_12  and  C_15
REMARK                            x       y       z     vdW  Elec       q    Type
REMARK                         _______ _______ _______ _____ _____    ______ ____
ROOT
ATOM      1  N   UNL     1       4.933   3.365  17.687  0.00  0.00    +0.000 N 
ATOM      2  C   UNL     1       4.585   2.594  18.786  0.00  0.00    +0.000 C 
ATOM      3  O   UNL     1       4.978   2.757  19.934  0.00  0.00    +0.000 OA
ATOM      4  H   UNL     1       4.578   3.115  16.776  0.00  0.00    +0.000 HD
ENDROOT
BRANCH   1  10
ATOM      5  C   UNL     1       8.412   5.774  19.977  0.00  0.00    +0.000 C 
ATOM      6  C   UNL     1       7.438   5.722  18.838  0.00  0.00    +0.000 A 
ATOM      7  C   UNL     1       7.364   6.752  17.913  0.00  0.00    +0.000 A 
ATOM      8  C   UNL     1       6.433   6.640  16.884  0.00  0.00    +0.000 A 
ATOM      9  C   UNL     1       5.618   5.510  16.809  0.00  0.00    +0.000 A 
ATOM     10  C   UNL     1       5.756   4.511  17.768  0.00  0.00    +0.000 A 
ATOM     11  N   UNL     1       6.651   4.627  18.765  0.00  0.00    +0.000 NA
ENDBRANCH   1  10
BRANCH   2  12
ATOM     12  C   UNL     1       3.652   1.431  18.489  0.00  0.00    +0.000 C 
BRANCH  12  13
ATOM     13  C   UNL     1       2.371   2.001  17.873  0.00  0.00    +0.000 C 
BRANCH  13  14
ATOM     14  S   UNL     1       1.249   2.674  19.067  0.00  0.00    +0.000 S 
ATOM     15  O   UNL     1      -0.093   2.594  18.513  0.00  0.00    +0.000 OA
ATOM     16  O   UNL     1       1.548   2.091  20.360  0.00  0.00    +0.000 OA
BRANCH  14  17
ATOM     17  C   UNL     1       1.689   4.406  19.138  0.00  0.00    +0.000 A 
ATOM     18  C   UNL     1       1.741   5.044  20.382  0.00  0.00    +0.000 A 
ATOM     19  C   UNL     1       2.077   6.397  20.455  0.00  0.00    +0.000 A 
ATOM     20  C   UNL     1       2.374   7.108  19.292  0.00  0.00    +0.000 A 
ATOM     21  C   UNL     1       2.352   6.462  18.054  0.00  0.00    +0.000 A 
ATOM     22  C   UNL     1       2.015   5.106  17.971  0.00  0.00    +0.000 A 
ENDBRANCH  14  17
ENDBRANCH  13  14
ENDBRANCH  12  13
ENDBRANCH   2  12
TORSDOF 5
ENDMDL
