MODEL 1
REMARK VINA RESULT:      -6.9      0.000      0.000
REMARK  Name = 
REMARK  8 active torsions:
REMARK  status: ('A' for Active; 'I' for Inactive)
REMARK    1  A    between atoms: C_1  and  C_2
REMARK    2  A    between atoms: C_2  and  O_4
REMARK    3  A    between atoms: O_4  and  C_5
REMARK    4  A    between atoms: C_8  and  O_9
REMARK    5  A    between atoms: O_9  and  C_10
REMARK    6  A    between atoms: C_10  and  C_11
REMARK    7  A    between atoms: C_17  and  C_18
REMARK    8  A    between atoms: C_19  and  C_20
REMARK                            x       y       z     vdW  Elec       q    Type
REMARK                         _______ _______ _______ _____ _____    ______ ____
ROOT
ATOM      1  C   UNL     1       4.720   5.224  16.802  0.00  0.00    +0.000 C 
ATOM      2  C   UNL     1       4.580   6.723  16.497  0.00  0.00    +0.000 C 
ATOM      3  C   UNL     1       4.525   7.523  17.802  0.00  0.00    +0.000 C 
ATOM      4  C   UNL     1       3.263   7.164  18.603  0.00  0.00    +0.000 C 
ATOM      5  C   UNL     1       3.091   5.670  18.715  0.00  0.00    +0.000 A 
ATOM      6  C   UNL     1       3.706   4.772  17.820  0.00  0.00    +0.000 A 
ATOM      7  N   UNL     1       3.480   3.403  17.921  0.00  0.00    +0.000 N 
ATOM      8  O   UNL     1       4.019   2.607  17.092  0.00  0.00    +0.000 OA
ATOM      9  C   UNL     1       2.666   2.920  18.945  0.00  0.00    +0.000 A 
ATOM     10  C   UNL     1       2.492   1.434  19.057  0.00  0.00    +0.000 C 
ATOM     11  C   UNL     1       2.053   3.819  19.844  0.00  0.00    +0.000 A 
ATOM     12  C   UNL     1       1.154   3.384  20.963  0.00  0.00    +0.000 C 
ATOM     13  N   UNL     1       2.262   5.195  19.722  0.00  0.00    +0.000 N 
ATOM     14  O   UNL     1       1.713   5.999  20.539  0.00  0.00    +0.000 OA
ENDROOT
BRANCH   1  15
ATOM     15  O   UNL     1       6.001   4.998  17.426  0.00  0.00    +0.000 OA
BRANCH  15  17
ATOM     16  C   UNL     1       6.410   4.213  15.257  0.00  0.00    +0.000 C 
ATOM     17  C   UNL     1       6.972   4.499  16.617  0.00  0.00    +0.000 C 
ATOM     18  O   UNL     1       8.116   4.229  16.961  0.00  0.00    +0.000 OA
ENDBRANCH  15  17
ENDBRANCH   1  15
BRANCH   4  19
ATOM     19  O   UNL     1       2.099   7.661  17.909  0.00  0.00    +0.000 OA
BRANCH  19  20
ATOM     20  C   UNL     1       1.814   8.976  18.124  0.00  0.00    +0.000 C 
ATOM     21  C   UNL     1       1.182   9.172  19.468  0.00  0.00    +0.000 C 
ATOM     22  O   UNL     1       2.041   9.888  17.340  0.00  0.00    +0.000 OA
ENDBRANCH  19  20
ENDBRANCH   4  19
TORSDOF 4
ENDMDL
MODEL 2
REMARK VINA RESULT:      -6.7      0.235      4.950
REMARK  Name = 
REMARK  8 active torsions:
REMARK  status: ('A' for Active; 'I' for Inactive)
REMARK    1  A    between atoms: C_1  and  C_2
REMARK    2  A    between atoms: C_2  and  O_4
REMARK    3  A    between atoms: O_4  and  C_5
REMARK    4  A    between atoms: C_8  and  O_9
REMARK    5  A    between atoms: O_9  and  C_10
REMARK    6  A    between atoms: C_10  and  C_11
REMARK    7  A    between atoms: C_17  and  C_18
REMARK    8  A    between atoms: C_19  and  C_20
REMARK                            x       y       z     vdW  Elec       q    Type
REMARK                         _______ _______ _______ _____ _____    ______ ____
ROOT
ATOM      1  C   UNL     1       3.265   7.090  18.702  0.00  0.00    +0.000 C 
ATOM      2  C   UNL     1       4.509   7.426  17.867  0.00  0.00    +0.000 C 
ATOM      3  C   UNL     1       4.484   6.648  16.548  0.00  0.00    +0.000 C 
ATOM      4  C   UNL     1       4.582   5.137  16.811  0.00  0.00    +0.000 C 
ATOM      5  C   UNL     1       3.608   4.700  17.875  0.00  0.00    +0.000 A 
ATOM      6  C   UNL     1       3.060   5.602  18.810  0.00  0.00    +0.000 A 
ATOM      7  N   UNL     1       2.205   5.154  19.812  0.00  0.00    +0.000 N 
ATOM      8  O   UNL     1       1.740   5.972  20.664  0.00  0.00    +0.000 OA
ATOM      9  C   UNL     1       1.864   3.803  19.863  0.00  0.00    +0.000 A 
ATOM     10  C   UNL     1       0.894   3.367  20.922  0.00  0.00    +0.000 C 
ATOM     11  C   UNL     1       2.408   2.900  18.924  0.00  0.00    +0.000 A 
ATOM     12  C   UNL     1       2.103   1.432  18.917  0.00  0.00    +0.000 C 
ATOM     13  N   UNL     1       3.287   3.352  17.936  0.00  0.00    +0.000 N 
ATOM     14  O   UNL     1       3.769   2.535  17.090  0.00  0.00    +0.000 OA
ENDROOT
BRANCH   1  15
ATOM     15  O   UNL     1       2.098   7.579  18.009  0.00  0.00    +0.000 OA
BRANCH  15  17
ATOM     16  C   UNL     1       1.201   9.134  19.515  0.00  0.00    +0.000 C 
ATOM     17  C   UNL     1       1.824   8.900  18.171  0.00  0.00    +0.000 C 
ATOM     18  O   UNL     1       1.972   9.768  17.320  0.00  0.00    +0.000 OA
ENDBRANCH  15  17
ENDBRANCH   1  15
BRANCH   4  19
ATOM     19  O   UNL     1       5.901   4.823  17.308  0.00  0.00    +0.000 OA
BRANCH  19  20
ATOM     20  C   UNL     1       6.799   4.434  16.360  0.00  0.00    +0.000 C 
ATOM     21  C   UNL     1       6.101   4.012  15.104  0.00  0.00    +0.000 C 
ATOM     22  O   UNL     1       8.015   4.428  16.497  0.00  0.00    +0.000 OA
ENDBRANCH  19  20
ENDBRANCH   4  19
TORSDOF 4
ENDMDL
MODEL 3
REMARK VINA RESULT:      -6.2      0.790      4.775
REMARK  Name = 
REMARK  8 active torsions:
REMARK  status: ('A' for Active; 'I' for Inactive)
REMARK    1  A    between atoms: C_1  and  C_2
REMARK    2  A    between atoms: C_2  and  O_4
REMARK    3  A    between atoms: O_4  and  C_5
REMARK    4  A    between atoms: C_8  and  O_9
REMARK    5  A    between atoms: O_9  and  C_10
REMARK    6  A    between atoms: C_10  and  C_11
REMARK    7  A    between atoms: C_17  and  C_18
REMARK    8  A    between atoms: C_19  and  C_20
REMARK                            x       y       z     vdW  Elec       q    Type
REMARK                         _______ _______ _______ _____ _____    ______ ____
ROOT
ATOM      1  C   UNL     1       3.189   7.220  18.773  0.00  0.00    +0.000 C 
ATOM      2  C   UNL     1       4.428   7.670  17.987  0.00  0.00    +0.000 C 
ATOM      3  C   UNL     1       4.500   6.933  16.647  0.00  0.00    +0.000 C 
ATOM      4  C   UNL     1       4.702   5.425  16.871  0.00  0.00    +0.000 C 
ATOM      5  C   UNL     1       3.731   4.887  17.891  0.00  0.00    +0.000 A 
ATOM      6  C   UNL     1       3.091   5.717  18.833  0.00  0.00    +0.000 A 
ATOM      7  N   UNL     1       2.243   5.178  19.795  0.00  0.00    +0.000 N 
ATOM      8  O   UNL     1       1.693   5.934  20.654  0.00  0.00    +0.000 OA
ATOM      9  C   UNL     1       2.001   3.805  19.797  0.00  0.00    +0.000 A 
ATOM     10  C   UNL     1       1.036   3.268  20.813  0.00  0.00    +0.000 C 
ATOM     11  C   UNL     1       2.638   2.973  18.851  0.00  0.00    +0.000 A 
ATOM     12  C   UNL     1       2.443   1.488  18.793  0.00  0.00    +0.000 C 
ATOM     13  N   UNL     1       3.509   3.517  17.904  0.00  0.00    +0.000 N 
ATOM     14  O   UNL     1       4.075   2.764  17.052  0.00  0.00    +0.000 OA
ENDROOT
BRANCH   1  15
ATOM     15  O   UNL     1       2.010   7.642  18.058  0.00  0.00    +0.000 OA
BRANCH  15  17
ATOM     16  C   UNL     1       1.034   9.209  19.501  0.00  0.00    +0.000 C 
ATOM     17  C   UNL     1       1.687   8.958  18.175  0.00  0.00    +0.000 C 
ATOM     18  O   UNL     1       1.818   9.804  17.299  0.00  0.00    +0.000 OA
ENDBRANCH  15  17
ENDBRANCH   1  15
BRANCH   4  19
ATOM     19  O   UNL     1       6.025   5.194  17.400  0.00  0.00    +0.000 OA
BRANCH  19  20
ATOM     20  C   UNL     1       7.034   5.818  16.730  0.00  0.00    +0.000 C 
ATOM     21  C   UNL     1       7.733   6.804  17.616  0.00  0.00    +0.000 C 
ATOM     22  O   UNL     1       7.346   5.612  15.566  0.00  0.00    +0.000 OA
ENDBRANCH  19  20
ENDBRANCH   4  19
TORSDOF 4
ENDMDL
MODEL 4
REMARK VINA RESULT:      -5.9      1.028      1.253
REMARK  Name = 
REMARK  8 active torsions:
REMARK  status: ('A' for Active; 'I' for Inactive)
REMARK    1  A    between atoms: C_1  and  C_2
REMARK    2  A    between atoms: C_2  and  O_4
REMARK    3  A    between atoms: O_4  and  C_5
REMARK    4  A    between atoms: C_8  and  O_9
REMARK    5  A    between atoms: O_9  and  C_10
REMARK    6  A    between atoms: C_10  and  C_11
REMARK    7  A    between atoms: C_17  and  C_18
REMARK    8  A    between atoms: C_19  and  C_20
REMARK                            x       y       z     vdW  Elec       q    Type
REMARK                         _______ _______ _______ _____ _____    ______ ____
ROOT
ATOM      1  C   UNL     1       4.651   5.499  16.908  0.00  0.00    +0.000 C 
ATOM      2  C   UNL     1       4.432   7.009  16.737  0.00  0.00    +0.000 C 
ATOM      3  C   UNL     1       4.362   7.690  18.106  0.00  0.00    +0.000 C 
ATOM      4  C   UNL     1       3.134   7.200  18.891  0.00  0.00    +0.000 C 
ATOM      5  C   UNL     1       3.037   5.696  18.876  0.00  0.00    +0.000 A 
ATOM      6  C   UNL     1       3.678   4.910  17.897  0.00  0.00    +0.000 A 
ATOM      7  N   UNL     1       3.522   3.528  17.882  0.00  0.00    +0.000 N 
ATOM      8  O   UNL     1       4.084   2.834  16.979  0.00  0.00    +0.000 OA
ATOM      9  C   UNL     1       2.751   2.918  18.871  0.00  0.00    +0.000 A 
ATOM     10  C   UNL     1       2.652   1.421  18.856  0.00  0.00    +0.000 C 
ATOM     11  C   UNL     1       2.112   3.704  19.854  0.00  0.00    +0.000 A 
ATOM     12  C   UNL     1       1.255   3.130  20.943  0.00  0.00    +0.000 C 
ATOM     13  N   UNL     1       2.251   5.095  19.848  0.00  0.00    +0.000 N 
ATOM     14  O   UNL     1       1.678   5.796  20.739  0.00  0.00    +0.000 OA
ENDROOT
BRANCH   1  15
ATOM     15  O   UNL     1       5.952   5.284  17.492  0.00  0.00    +0.000 OA
BRANCH  15  17
ATOM     16  C   UNL     1       7.717   6.811  17.698  0.00  0.00    +0.000 C 
ATOM     17  C   UNL     1       6.999   5.831  16.819  0.00  0.00    +0.000 C 
ATOM     18  O   UNL     1       7.271   5.634  15.642  0.00  0.00    +0.000 OA
ENDBRANCH  15  17
ENDBRANCH   1  15
BRANCH   4  19
ATOM     19  O   UNL     1       1.935   7.696  18.259  0.00  0.00    +0.000 OA
BRANCH  19  20
ATOM     20  C   UNL     1       1.437   8.850  18.785  0.00  0.00    +0.000 C 
ATOM     21  C   UNL     1       1.490   9.961  17.781  0.00  0.00    +0.000 C 
ATOM     22  O   UNL     1       0.998   8.980  19.919  0.00  0.00    +0.000 OA
ENDBRANCH  19  20
ENDBRANCH   4  19
TORSDOF 4
ENDMDL
MODEL 5
REMARK VINA RESULT:      -5.6      1.962      4.193
REMARK  Name = 
REMARK  8 active torsions:
REMARK  status: ('A' for Active; 'I' for Inactive)
REMARK    1  A    between atoms: C_1  and  C_2
REMARK    2  A    between atoms: C_2  and  O_4
REMARK    3  A    between atoms: O_4  and  C_5
REMARK    4  A    between atoms: C_8  and  O_9
REMARK    5  A    between atoms: O_9  and  C_10
REMARK    6  A    between atoms: C_10  and  C_11
REMARK    7  A    between atoms: C_17  and  C_18
REMARK    8  A    between atoms: C_19  and  C_20
REMARK                            x       y       z     vdW  Elec       q    Type
REMARK                         _______ _______ _______ _____ _____    ______ ____
ROOT
ATOM      1  C   UNL     1       3.138   4.145  19.145  0.00  0.00    +0.000 C 
ATOM      2  C   UNL     1       1.817   4.917  19.269  0.00  0.00    +0.000 C 
ATOM      3  C   UNL     1       1.573   5.751  18.008  0.00  0.00    +0.000 C 
ATOM      4  C   UNL     1       2.651   6.836  17.861  0.00  0.00    +0.000 C 
ATOM      5  C   UNL     1       4.035   6.264  18.039  0.00  0.00    +0.000 A 
ATOM      6  C   UNL     1       4.265   5.048  18.714  0.00  0.00    +0.000 A 
ATOM      7  N   UNL     1       5.560   4.577  18.908  0.00  0.00    +0.000 N 
ATOM      8  O   UNL     1       5.755   3.494  19.540  0.00  0.00    +0.000 OA
ATOM      9  C   UNL     1       6.633   5.303  18.393  0.00  0.00    +0.000 A 
ATOM     10  C   UNL     1       8.010   4.735  18.571  0.00  0.00    +0.000 C 
ATOM     11  C   UNL     1       6.403   6.518  17.713  0.00  0.00    +0.000 A 
ATOM     12  C   UNL     1       7.500   7.366  17.141  0.00  0.00    +0.000 C 
ATOM     13  N   UNL     1       5.102   7.000  17.544  0.00  0.00    +0.000 N 
ATOM     14  O   UNL     1       4.901   8.092  16.926  0.00  0.00    +0.000 OA
ENDROOT
BRANCH   1  15
ATOM     15  O   UNL     1       3.009   3.177  18.085  0.00  0.00    +0.000 OA
BRANCH  15  17
ATOM     16  C   UNL     1       1.440   1.665  18.947  0.00  0.00    +0.000 C 
ATOM     17  C   UNL     1       2.847   1.886  18.479  0.00  0.00    +0.000 C 
ATOM     18  O   UNL     1       3.733   1.042  18.538  0.00  0.00    +0.000 OA
ENDBRANCH  15  17
ENDBRANCH   1  15
BRANCH   4  19
ATOM     19  O   UNL     1       2.478   7.824  18.899  0.00  0.00    +0.000 OA
BRANCH  19  20
ATOM     20  C   UNL     1       1.832   8.961  18.515  0.00  0.00    +0.000 C 
ATOM     21  C   UNL     1       0.933   9.457  19.606  0.00  0.00    +0.000 C 
ATOM     22  O   UNL     1       1.960   9.518  17.434  0.00  0.00    +0.000 OA
ENDBRANCH  19  20
ENDBRANCH   4  19
TORSDOF 4
ENDMDL
MODEL 6
REMARK VINA RESULT:      -5.6      1.999      5.585
REMARK  Name = 
REMARK  8 active torsions:
REMARK  status: ('A' for Active; 'I' for Inactive)
REMARK    1  A    between atoms: C_1  and  C_2
REMARK    2  A    between atoms: C_2  and  O_4
REMARK    3  A    between atoms: O_4  and  C_5
REMARK    4  A    between atoms: C_8  and  O_9
REMARK    5  A    between atoms: O_9  and  C_10
REMARK    6  A    between atoms: C_10  and  C_11
REMARK    7  A    between atoms: C_17  and  C_18
REMARK    8  A    between atoms: C_19  and  C_20
REMARK                            x       y       z     vdW  Elec       q    Type
REMARK                         _______ _______ _______ _____ _____    ______ ____
ROOT
ATOM      1  C   UNL     1       2.474   6.694  18.062  0.00  0.00    +0.000 C 
ATOM      2  C   UNL     1       1.432   5.785  18.729  0.00  0.00    +0.000 C 
ATOM      3  C   UNL     1       1.956   5.284  20.078  0.00  0.00    +0.000 C 
ATOM      4  C   UNL     1       3.189   4.389  19.879  0.00  0.00    +0.000 C 
ATOM      5  C   UNL     1       4.194   5.034  18.958  0.00  0.00    +0.000 A 
ATOM      6  C   UNL     1       3.838   6.053  18.052  0.00  0.00    +0.000 A 
ATOM      7  N   UNL     1       4.780   6.589  17.179  0.00  0.00    +0.000 N 
ATOM      8  O   UNL     1       4.440   7.487  16.349  0.00  0.00    +0.000 OA
ATOM      9  C   UNL     1       6.096   6.133  17.235  0.00  0.00    +0.000 A 
ATOM     10  C   UNL     1       7.097   6.774  16.318  0.00  0.00    +0.000 C 
ATOM     11  C   UNL     1       6.455   5.116  18.146  0.00  0.00    +0.000 A 
ATOM     12  C   UNL     1       7.843   4.561  18.261  0.00  0.00    +0.000 C 
ATOM     13  N   UNL     1       5.498   4.563  19.002  0.00  0.00    +0.000 N 
ATOM     14  O   UNL     1       5.828   3.652  19.824  0.00  0.00    +0.000 OA
ENDROOT
BRANCH   1  15
ATOM     15  O   UNL     1       2.628   7.884  18.862  0.00  0.00    +0.000 OA
BRANCH  15  17
ATOM     16  C   UNL     1       1.006   9.434  19.540  0.00  0.00    +0.000 C 
ATOM     17  C   UNL     1       1.923   8.970  18.448  0.00  0.00    +0.000 C 
ATOM     18  O   UNL     1       1.952   9.452  17.323  0.00  0.00    +0.000 OA
ENDBRANCH  15  17
ENDBRANCH   1  15
BRANCH   4  19
ATOM     19  O   UNL     1       2.787   3.155  19.247  0.00  0.00    +0.000 OA
BRANCH  19  20
ATOM     20  C   UNL     1       1.767   2.494  19.862  0.00  0.00    +0.000 C 
ATOM     21  C   UNL     1       0.691   2.140  18.881  0.00  0.00    +0.000 C 
ATOM     22  O   UNL     1       1.719   2.214  21.052  0.00  0.00    +0.000 OA
ENDBRANCH  19  20
ENDBRANCH   4  19
TORSDOF 4
ENDMDL
MODEL 7
REMARK VINA RESULT:      -5.6      1.976      4.444
REMARK  Name = 
REMARK  8 active torsions:
REMARK  status: ('A' for Active; 'I' for Inactive)
REMARK    1  A    between atoms: C_1  and  C_2
REMARK    2  A    between atoms: C_2  and  O_4
REMARK    3  A    between atoms: O_4  and  C_5
REMARK    4  A    between atoms: C_8  and  O_9
REMARK    5  A    between atoms: O_9  and  C_10
REMARK    6  A    between atoms: C_10  and  C_11
REMARK    7  A    between atoms: C_17  and  C_18
REMARK    8  A    between atoms: C_19  and  C_20
REMARK                            x       y       z     vdW  Elec       q    Type
REMARK                         _______ _______ _______ _____ _____    ______ ____
ROOT
ATOM      1  C   UNL     1       3.218   4.434  19.932  0.00  0.00    +0.000 C 
ATOM      2  C   UNL     1       1.994   5.328  20.176  0.00  0.00    +0.000 C 
ATOM      3  C   UNL     1       1.443   5.842  18.843  0.00  0.00    +0.000 C 
ATOM      4  C   UNL     1       2.467   6.756  18.151  0.00  0.00    +0.000 C 
ATOM      5  C   UNL     1       3.836   6.124  18.122  0.00  0.00    +0.000 A 
ATOM      6  C   UNL     1       4.210   5.097  19.012  0.00  0.00    +0.000 A 
ATOM      7  N   UNL     1       5.499   4.575  18.992  0.00  0.00    +0.000 N 
ATOM      8  O   UNL     1       5.831   3.669  19.817  0.00  0.00    +0.000 OA
ATOM      9  C   UNL     1       6.413   5.052  18.053  0.00  0.00    +0.000 A 
ATOM     10  C   UNL     1       7.776   4.424  18.023  0.00  0.00    +0.000 C 
ATOM     11  C   UNL     1       6.038   6.076  17.158  0.00  0.00    +0.000 A 
ATOM     12  C   UNL     1       6.962   6.655  16.128  0.00  0.00    +0.000 C 
ATOM     13  N   UNL     1       4.749   6.616  17.201  0.00  0.00    +0.000 N 
ATOM     14  O   UNL     1       4.415   7.535  16.388  0.00  0.00    +0.000 OA
ENDROOT
BRANCH   1  15
ATOM     15  O   UNL     1       2.792   3.249  19.230  0.00  0.00    +0.000 OA
BRANCH  15  17
ATOM     16  C   UNL     1       0.736   2.180  18.884  0.00  0.00    +0.000 C 
ATOM     17  C   UNL     1       1.836   2.507  19.849  0.00  0.00    +0.000 C 
ATOM     18  O   UNL     1       1.817   2.219  21.039  0.00  0.00    +0.000 OA
ENDBRANCH  15  17
ENDBRANCH   1  15
BRANCH   4  19
ATOM     19  O   UNL     1       2.597   7.982  18.903  0.00  0.00    +0.000 OA
BRANCH  19  20
ATOM     20  C   UNL     1       1.848   9.024  18.446  0.00  0.00    +0.000 C 
ATOM     21  C   UNL     1       0.909   9.513  19.507  0.00  0.00    +0.000 C 
ATOM     22  O   UNL     1       1.920   9.511  17.326  0.00  0.00    +0.000 OA
ENDBRANCH  19  20
ENDBRANCH   4  19
TORSDOF 4
ENDMDL
MODEL 8
REMARK VINA RESULT:      -5.6      6.659      9.513
REMARK  Name = 
REMARK  8 active torsions:
REMARK  status: ('A' for Active; 'I' for Inactive)
REMARK    1  A    between atoms: C_1  and  C_2
REMARK    2  A    between atoms: C_2  and  O_4
REMARK    3  A    between atoms: O_4  and  C_5
REMARK    4  A    between atoms: C_8  and  O_9
REMARK    5  A    between atoms: O_9  and  C_10
REMARK    6  A    between atoms: C_10  and  C_11
REMARK    7  A    between atoms: C_17  and  C_18
REMARK    8  A    between atoms: C_19  and  C_20
REMARK                            x       y       z     vdW  Elec       q    Type
REMARK                         _______ _______ _______ _____ _____    ______ ____
ROOT
ATOM      1  C   UNL     1      -0.442  11.421  21.186  0.00  0.00    +0.000 C 
ATOM      2  C   UNL     1      -0.542  12.550  22.223  0.00  0.00    +0.000 C 
ATOM      3  C   UNL     1      -1.984  12.683  22.719  0.00  0.00    +0.000 C 
ATOM      4  C   UNL     1      -2.911  13.119  21.573  0.00  0.00    +0.000 C 
ATOM      5  C   UNL     1      -2.693  12.278  20.341  0.00  0.00    +0.000 A 
ATOM      6  C   UNL     1      -1.503  11.553  20.125  0.00  0.00    +0.000 A 
ATOM      7  N   UNL     1      -1.314  10.832  18.951  0.00  0.00    +0.000 N 
ATOM      8  O   UNL     1      -0.227  10.205  18.757  0.00  0.00    +0.000 OA
ATOM      9  C   UNL     1      -2.333  10.800  17.999  0.00  0.00    +0.000 A 
ATOM     10  C   UNL     1      -2.116   9.964  16.771  0.00  0.00    +0.000 C 
ATOM     11  C   UNL     1      -3.526  11.521  18.217  0.00  0.00    +0.000 A 
ATOM     12  C   UNL     1      -4.664  11.551  17.240  0.00  0.00    +0.000 C 
ATOM     13  N   UNL     1      -3.700  12.266  19.386  0.00  0.00    +0.000 N 
ATOM     14  O   UNL     1      -4.779  12.908  19.579  0.00  0.00    +0.000 OA
ENDROOT
BRANCH   1  15
ATOM     15  O   UNL     1      -0.723  10.167  21.841  0.00  0.00    +0.000 OA
BRANCH  15  17
ATOM     16  C   UNL     1       1.219   8.866  21.688  0.00  0.00    +0.000 C 
ATOM     17  C   UNL     1       0.293   9.642  22.575  0.00  0.00    +0.000 C 
ATOM     18  O   UNL     1       0.399   9.707  23.794  0.00  0.00    +0.000 OA
ENDBRANCH  15  17
ENDBRANCH   1  15
BRANCH   4  19
ATOM     19  O   UNL     1      -2.605  14.480  21.202  0.00  0.00    +0.000 OA
BRANCH  19  20
ATOM     20  C   UNL     1      -3.043  15.431  22.073  0.00  0.00    +0.000 C 
ATOM     21  C   UNL     1      -4.538  15.411  22.177  0.00  0.00    +0.000 C 
ATOM     22  O   UNL     1      -2.329  16.201  22.699  0.00  0.00    +0.000 OA
ENDBRANCH  19  20
ENDBRANCH   4  19
TORSDOF 4
ENDMDL
MODEL 9
REMARK VINA RESULT:      -5.5      1.969      5.777
REMARK  Name = 
REMARK  8 active torsions:
REMARK  status: ('A' for Active; 'I' for Inactive)
REMARK    1  A    between atoms: C_1  and  C_2
REMARK    2  A    between atoms: C_2  and  O_4
REMARK    3  A    between atoms: O_4  and  C_5
REMARK    4  A    between atoms: C_8  and  O_9
REMARK    5  A    between atoms: O_9  and  C_10
REMARK    6  A    between atoms: C_10  and  C_11
REMARK    7  A    between atoms: C_17  and  C_18
REMARK    8  A    between atoms: C_19  and  C_20
REMARK                            x       y       z     vdW  Elec       q    Type
REMARK                         _______ _______ _______ _____ _____    ______ ____
ROOT
ATOM      1  C   UNL     1       2.673   6.824  17.763  0.00  0.00    +0.000 C 
ATOM      2  C   UNL     1       1.602   5.733  17.899  0.00  0.00    +0.000 C 
ATOM      3  C   UNL     1       1.840   4.915  19.171  0.00  0.00    +0.000 C 
ATOM      4  C   UNL     1       3.171   4.151  19.080  0.00  0.00    +0.000 C 
ATOM      5  C   UNL     1       4.293   5.054  18.633  0.00  0.00    +0.000 A 
ATOM      6  C   UNL     1       4.059   6.261  17.943  0.00  0.00    +0.000 A 
ATOM      7  N   UNL     1       5.120   7.042  17.498  0.00  0.00    +0.000 N 
ATOM      8  O   UNL     1       4.896   8.113  16.855  0.00  0.00    +0.000 OA
ATOM      9  C   UNL     1       6.426   6.638  17.774  0.00  0.00    +0.000 A 
ATOM     10  C   UNL     1       7.544   7.535  17.328  0.00  0.00    +0.000 C 
ATOM     11  C   UNL     1       6.661   5.432  18.469  0.00  0.00    +0.000 A 
ATOM     12  C   UNL     1       8.033   4.919  18.793  0.00  0.00    +0.000 C 
ATOM     13  N   UNL     1       5.591   4.638  18.890  0.00  0.00    +0.000 N 
ATOM     14  O   UNL     1       5.810   3.556  19.520  0.00  0.00    +0.000 OA
ENDROOT
BRANCH   1  15
ATOM     15  O   UNL     1       2.510   7.767  18.842  0.00  0.00    +0.000 OA
BRANCH  15  17
ATOM     16  C   UNL     1       0.997   9.358  19.660  0.00  0.00    +0.000 C 
ATOM     17  C   UNL     1       1.875   8.926  18.524  0.00  0.00    +0.000 C 
ATOM     18  O   UNL     1       1.929   9.494  17.440  0.00  0.00    +0.000 OA
ENDBRANCH  15  17
ENDBRANCH   1  15
BRANCH   4  19
ATOM     19  O   UNL     1       3.058   3.112  18.085  0.00  0.00    +0.000 OA
BRANCH  19  20
ATOM     20  C   UNL     1       2.900   1.852  18.578  0.00  0.00    +0.000 C 
ATOM     21  C   UNL     1       1.502   1.644  19.074  0.00  0.00    +0.000 C 
ATOM     22  O   UNL     1       3.769   0.991  18.614  0.00  0.00    +0.000 OA
ENDBRANCH  19  20
ENDBRANCH   4  19
TORSDOF 4
ENDMDL
