MODEL 1
REMARK VINA RESULT:      -8.1      0.000      0.000
REMARK  Name = 
REMARK  11 active torsions:
REMARK  status: ('A' for Active; 'I' for Inactive)
REMARK    1  A    between atoms: C_1  and  C_2
REMARK    2  A    between atoms: C_5  and  O_6
REMARK    3  A    between atoms: O_6  and  C_7
REMARK    4  A    between atoms: C_7  and  C_8
REMARK    5  A    between atoms: N_10  and  C_11
REMARK    6  A    between atoms: N_10  and  C_27
REMARK    7  A    between atoms: C_11  and  C_12
REMARK    8  A    between atoms: C_14  and  C_15
REMARK    9  A    between atoms: C_18  and  C_19
REMARK   10  A    between atoms: C_27  and  C_28
REMARK   11  A    between atoms: C_27  and  C_29
REMARK                            x       y       z     vdW  Elec       q    Type
REMARK                         _______ _______ _______ _____ _____    ______ ____
ROOT
ATOM      1  C   UNL     1       3.774   4.693  19.782  0.00  0.00    +0.000 C 
ENDROOT
BRANCH   1   2
ATOM      2  C   UNL     1       3.230   6.017  19.374  0.00  0.00    +0.000 A 
ATOM      3  N   UNL     1       2.319   6.831  19.876  0.00  0.00    +0.000 NA
ATOM      4  C   UNL     1       2.331   7.904  18.990  0.00  0.00    +0.000 A 
ATOM      5  N   UNL     1       3.219   7.762  17.998  0.00  0.00    +0.000 NA
ATOM      6  O   UNL     1       3.805   6.526  18.237  0.00  0.00    +0.000 OA
BRANCH   4   7
ATOM      7  C   UNL     1       1.347   8.984  19.031  0.00  0.00    +0.000 A 
ATOM      8  C   UNL     1       0.605   9.250  20.191  0.00  0.00    +0.000 A 
ATOM      9  C   UNL     1      -0.542  10.054  20.129  0.00  0.00    +0.000 A 
ATOM     10  C   UNL     1      -0.964  10.598  18.906  0.00  0.00    +0.000 A 
ATOM     11  C   UNL     1      -0.123  10.478  17.791  0.00  0.00    +0.000 A 
ATOM     12  C   UNL     1       1.023   9.683  17.857  0.00  0.00    +0.000 A 
BRANCH  10  13
ATOM     13  C   UNL     1      -2.335  11.208  18.741  0.00  0.00    +0.000 C 
ATOM     14  F   UNL     1      -2.382  12.186  17.795  0.00  0.00    +0.000 F 
ATOM     15  F   UNL     1      -3.291  10.303  18.403  0.00  0.00    +0.000 F 
ATOM     16  F   UNL     1      -2.768  11.796  19.895  0.00  0.00    +0.000 F 
ENDBRANCH  10  13
ENDBRANCH   4   7
ENDBRANCH   1   2
BRANCH   1  19
ATOM     17  C   UNL     1       3.396   2.886  18.058  0.00  0.00    +0.000 C 
ATOM     18  O   UNL     1       2.983   1.756  17.773  0.00  0.00    +0.000 OA
ATOM     19  N   UNL     1       3.073   3.502  19.276  0.00  0.00    +0.000 N 
BRANCH  19  20
ATOM     20  C   UNL     1       2.044   2.827  20.106  0.00  0.00    +0.000 C 
ATOM     21  C   UNL     1       2.333   2.803  21.607  0.00  0.00    +0.000 C 
ATOM     22  C   UNL     1       0.643   3.372  19.826  0.00  0.00    +0.000 C 
ENDBRANCH  19  20
BRANCH  17  23
ATOM     23  C   UNL     1       4.215   3.654  17.012  0.00  0.00    +0.000 C 
BRANCH  23  24
ATOM     24  O   UNL     1       5.625   3.465  17.081  0.00  0.00    +0.000 OA
BRANCH  24  29
ATOM     25  C   UNL     1       8.019   8.516  17.935  0.00  0.00    +0.000 C 
ATOM     26  C   UNL     1       7.594   7.116  17.619  0.00  0.00    +0.000 A 
ATOM     27  C   UNL     1       6.997   6.844  16.384  0.00  0.00    +0.000 A 
ATOM     28  C   UNL     1       6.397   5.606  16.152  0.00  0.00    +0.000 A 
ATOM     29  C   UNL     1       6.355   4.632  17.154  0.00  0.00    +0.000 A 
ATOM     30  C   UNL     1       7.059   4.853  18.339  0.00  0.00    +0.000 A 
ATOM     31  C   UNL     1       7.674   6.095  18.571  0.00  0.00    +0.000 A 
ENDBRANCH  24  29
ENDBRANCH  23  24
ENDBRANCH  17  23
ENDBRANCH   1  19
TORSDOF 8
ENDMDL
MODEL 2
REMARK VINA RESULT:      -8.1      1.756      2.227
REMARK  Name = 
REMARK  11 active torsions:
REMARK  status: ('A' for Active; 'I' for Inactive)
REMARK    1  A    between atoms: C_1  and  C_2
REMARK    2  A    between atoms: C_5  and  O_6
REMARK    3  A    between atoms: O_6  and  C_7
REMARK    4  A    between atoms: C_7  and  C_8
REMARK    5  A    between atoms: N_10  and  C_11
REMARK    6  A    between atoms: N_10  and  C_27
REMARK    7  A    between atoms: C_11  and  C_12
REMARK    8  A    between atoms: C_14  and  C_15
REMARK    9  A    between atoms: C_18  and  C_19
REMARK   10  A    between atoms: C_27  and  C_28
REMARK   11  A    between atoms: C_27  and  C_29
REMARK                            x       y       z     vdW  Elec       q    Type
REMARK                         _______ _______ _______ _____ _____    ______ ____
ROOT
ATOM      1  C   UNL     1       2.406   4.793  17.863  0.00  0.00    +0.000 C 
ENDROOT
BRANCH   1   2
ATOM      2  C   UNL     1       2.260   6.178  18.387  0.00  0.00    +0.000 A 
ATOM      3  N   UNL     1       1.771   6.693  19.502  0.00  0.00    +0.000 NA
ATOM      4  C   UNL     1       1.973   8.059  19.333  0.00  0.00    +0.000 A 
ATOM      5  N   UNL     1       2.571   8.369  18.175  0.00  0.00    +0.000 NA
ATOM      6  O   UNL     1       2.754   7.143  17.547  0.00  0.00    +0.000 OA
BRANCH   4   7
ATOM      7  C   UNL     1       1.420   9.065  20.238  0.00  0.00    +0.000 A 
ATOM      8  C   UNL     1       1.347   8.841  21.620  0.00  0.00    +0.000 A 
ATOM      9  C   UNL     1       0.538   9.652  22.428  0.00  0.00    +0.000 A 
ATOM     10  C   UNL     1      -0.211  10.695  21.863  0.00  0.00    +0.000 A 
ATOM     11  C   UNL     1       0.005  11.027  20.520  0.00  0.00    +0.000 A 
ATOM     12  C   UNL     1       0.817  10.222  19.718  0.00  0.00    +0.000 A 
BRANCH  10  13
ATOM     13  C   UNL     1      -1.309  11.389  22.634  0.00  0.00    +0.000 C 
ATOM     14  F   UNL     1      -2.300  11.880  21.840  0.00  0.00    +0.000 F 
ATOM     15  F   UNL     1      -1.915  10.588  23.550  0.00  0.00    +0.000 F 
ATOM     16  F   UNL     1      -0.835  12.463  23.331  0.00  0.00    +0.000 F 
ENDBRANCH  10  13
ENDBRANCH   4   7
ENDBRANCH   1   2
BRANCH   1  19
ATOM     17  C   UNL     1       4.319   3.560  18.960  0.00  0.00    +0.000 C 
ATOM     18  O   UNL     1       4.757   2.907  19.914  0.00  0.00    +0.000 OA
ATOM     19  N   UNL     1       2.945   3.785  18.792  0.00  0.00    +0.000 N 
BRANCH  19  20
ATOM     20  C   UNL     1       2.036   3.028  19.688  0.00  0.00    +0.000 C 
ATOM     21  C   UNL     1       1.497   3.814  20.883  0.00  0.00    +0.000 C 
ATOM     22  C   UNL     1       0.899   2.363  18.911  0.00  0.00    +0.000 C 
ENDBRANCH  19  20
BRANCH  17  23
ATOM     23  C   UNL     1       5.307   4.061  17.898  0.00  0.00    +0.000 C 
BRANCH  23  24
ATOM     24  O   UNL     1       6.658   4.187  18.331  0.00  0.00    +0.000 OA
BRANCH  24  29
ATOM     25  C   UNL     1       8.356   9.577  18.131  0.00  0.00    +0.000 C 
ATOM     26  C   UNL     1       8.108   8.101  18.072  0.00  0.00    +0.000 A 
ATOM     27  C   UNL     1       7.403   7.568  16.990  0.00  0.00    +0.000 A 
ATOM     28  C   UNL     1       6.971   6.241  17.018  0.00  0.00    +0.000 A 
ATOM     29  C   UNL     1       7.207   5.436  18.136  0.00  0.00    +0.000 A 
ATOM     30  C   UNL     1       8.018   5.926  19.161  0.00  0.00    +0.000 A 
ATOM     31  C   UNL     1       8.464   7.258  19.129  0.00  0.00    +0.000 A 
ENDBRANCH  24  29
ENDBRANCH  23  24
ENDBRANCH  17  23
ENDBRANCH   1  19
TORSDOF 8
ENDMDL
MODEL 3
REMARK VINA RESULT:      -8.1      1.041      1.556
REMARK  Name = 
REMARK  11 active torsions:
REMARK  status: ('A' for Active; 'I' for Inactive)
REMARK    1  A    between atoms: C_1  and  C_2
REMARK    2  A    between atoms: C_5  and  O_6
REMARK    3  A    between atoms: O_6  and  C_7
REMARK    4  A    between atoms: C_7  and  C_8
REMARK    5  A    between atoms: N_10  and  C_11
REMARK    6  A    between atoms: N_10  and  C_27
REMARK    7  A    between atoms: C_11  and  C_12
REMARK    8  A    between atoms: C_14  and  C_15
REMARK    9  A    between atoms: C_18  and  C_19
REMARK   10  A    between atoms: C_27  and  C_28
REMARK   11  A    between atoms: C_27  and  C_29
REMARK                            x       y       z     vdW  Elec       q    Type
REMARK                         _______ _______ _______ _____ _____    ______ ____
ROOT
ATOM      1  C   UNL     1       3.707   4.945  19.653  0.00  0.00    +0.000 C 
ENDROOT
BRANCH   1   2
ATOM      2  C   UNL     1       3.033   6.245  19.388  0.00  0.00    +0.000 A 
ATOM      3  N   UNL     1       2.139   6.968  20.041  0.00  0.00    +0.000 NA
ATOM      4  C   UNL     1       1.973   8.080  19.221  0.00  0.00    +0.000 A 
ATOM      5  N   UNL     1       2.739   8.050  18.123  0.00  0.00    +0.000 NA
ATOM      6  O   UNL     1       3.429   6.848  18.221  0.00  0.00    +0.000 OA
BRANCH   4   7
ATOM      7  C   UNL     1       0.934   9.084  19.441  0.00  0.00    +0.000 A 
ATOM      8  C   UNL     1       0.530   9.951  18.415  0.00  0.00    +0.000 A 
ATOM      9  C   UNL     1      -0.215  11.100  18.711  0.00  0.00    +0.000 A 
ATOM     10  C   UNL     1      -0.562  11.400  20.038  0.00  0.00    +0.000 A 
ATOM     11  C   UNL     1      -0.313  10.444  21.031  0.00  0.00    +0.000 A 
ATOM     12  C   UNL     1       0.423   9.295  20.732  0.00  0.00    +0.000 A 
BRANCH  10  13
ATOM     13  C   UNL     1      -1.093  12.759  20.430  0.00  0.00    +0.000 C 
ATOM     14  F   UNL     1      -2.246  13.095  19.788  0.00  0.00    +0.000 F 
ATOM     15  F   UNL     1      -1.348  12.875  21.760  0.00  0.00    +0.000 F 
ATOM     16  F   UNL     1      -0.206  13.753  20.130  0.00  0.00    +0.000 F 
ENDBRANCH  10  13
ENDBRANCH   4   7
ENDBRANCH   1   2
BRANCH   1  19
ATOM     17  C   UNL     1       3.197   3.047  18.066  0.00  0.00    +0.000 C 
ATOM     18  O   UNL     1       2.769   1.902  17.878  0.00  0.00    +0.000 OA
ATOM     19  N   UNL     1       2.973   3.727  19.272  0.00  0.00    +0.000 N 
BRANCH  19  20
ATOM     20  C   UNL     1       2.023   3.095  20.221  0.00  0.00    +0.000 C 
ATOM     21  C   UNL     1       2.403   3.214  21.697  0.00  0.00    +0.000 C 
ATOM     22  C   UNL     1       0.588   3.568  19.985  0.00  0.00    +0.000 C 
ENDBRANCH  19  20
BRANCH  17  23
ATOM     23  C   UNL     1       3.919   3.759  16.914  0.00  0.00    +0.000 C 
BRANCH  23  24
ATOM     24  O   UNL     1       5.325   3.543  16.849  0.00  0.00    +0.000 OA
BRANCH  24  29
ATOM     25  C   UNL     1       7.977   8.412  17.963  0.00  0.00    +0.000 C 
ATOM     26  C   UNL     1       7.458   7.076  17.527  0.00  0.00    +0.000 A 
ATOM     27  C   UNL     1       6.611   7.000  16.418  0.00  0.00    +0.000 A 
ATOM     28  C   UNL     1       5.943   5.810  16.125  0.00  0.00    +0.000 A 
ATOM     29  C   UNL     1       6.085   4.689  16.949  0.00  0.00    +0.000 A 
ATOM     30  C   UNL     1       7.025   4.725  17.980  0.00  0.00    +0.000 A 
ATOM     31  C   UNL     1       7.708   5.918  18.269  0.00  0.00    +0.000 A 
ENDBRANCH  24  29
ENDBRANCH  23  24
ENDBRANCH  17  23
ENDBRANCH   1  19
TORSDOF 8
ENDMDL
MODEL 4
REMARK VINA RESULT:      -8.0      1.623      2.423
REMARK  Name = 
REMARK  11 active torsions:
REMARK  status: ('A' for Active; 'I' for Inactive)
REMARK    1  A    between atoms: C_1  and  C_2
REMARK    2  A    between atoms: C_5  and  O_6
REMARK    3  A    between atoms: O_6  and  C_7
REMARK    4  A    between atoms: C_7  and  C_8
REMARK    5  A    between atoms: N_10  and  C_11
REMARK    6  A    between atoms: N_10  and  C_27
REMARK    7  A    between atoms: C_11  and  C_12
REMARK    8  A    between atoms: C_14  and  C_15
REMARK    9  A    between atoms: C_18  and  C_19
REMARK   10  A    between atoms: C_27  and  C_28
REMARK   11  A    between atoms: C_27  and  C_29
REMARK                            x       y       z     vdW  Elec       q    Type
REMARK                         _______ _______ _______ _____ _____    ______ ____
ROOT
ATOM      1  C   UNL     1       2.653   5.192  20.545  0.00  0.00    +0.000 C 
ENDROOT
BRANCH   1   2
ATOM      2  C   UNL     1       2.221   6.548  20.109  0.00  0.00    +0.000 A 
ATOM      3  N   UNL     1       1.564   7.535  20.691  0.00  0.00    +0.000 NA
ATOM      4  C   UNL     1       1.529   8.516  19.705  0.00  0.00    +0.000 A 
ATOM      5  N   UNL     1       2.149   8.155  18.575  0.00  0.00    +0.000 NA
ATOM      6  O   UNL     1       2.598   6.864  18.828  0.00  0.00    +0.000 OA
BRANCH   4   7
ATOM      7  C   UNL     1       0.737   9.739  19.824  0.00  0.00    +0.000 A 
ATOM      8  C   UNL     1       0.476  10.320  21.073  0.00  0.00    +0.000 A 
ATOM      9  C   UNL     1      -0.532  11.285  21.209  0.00  0.00    +0.000 A 
ATOM     10  C   UNL     1      -1.294  11.678  20.098  0.00  0.00    +0.000 A 
ATOM     11  C   UNL     1      -0.911  11.230  18.827  0.00  0.00    +0.000 A 
ATOM     12  C   UNL     1       0.098  10.274  18.692  0.00  0.00    +0.000 A 
BRANCH  10  13
ATOM     13  C   UNL     1      -2.567  12.475  20.253  0.00  0.00    +0.000 C 
ATOM     14  F   UNL     1      -2.389  13.816  20.093  0.00  0.00    +0.000 F 
ATOM     15  F   UNL     1      -3.541  12.113  19.377  0.00  0.00    +0.000 F 
ATOM     16  F   UNL     1      -3.109  12.325  21.497  0.00  0.00    +0.000 F 
ENDBRANCH  10  13
ENDBRANCH   4   7
ENDBRANCH   1   2
BRANCH   1  19
ATOM     17  C   UNL     1       4.245   3.878  19.088  0.00  0.00    +0.000 C 
ATOM     18  O   UNL     1       4.475   2.883  18.391  0.00  0.00    +0.000 OA
ATOM     19  N   UNL     1       2.942   4.214  19.482  0.00  0.00    +0.000 N 
BRANCH  19  20
ATOM     20  C   UNL     1       1.840   3.448  18.849  0.00  0.00    +0.000 C 
ATOM     21  C   UNL     1       0.675   3.098  19.774  0.00  0.00    +0.000 C 
ATOM     22  C   UNL     1       1.342   4.124  17.570  0.00  0.00    +0.000 C 
ENDBRANCH  19  20
BRANCH  17  23
ATOM     23  C   UNL     1       5.413   4.801  19.458  0.00  0.00    +0.000 C 
BRANCH  23  24
ATOM     24  O   UNL     1       5.622   5.903  18.579  0.00  0.00    +0.000 OA
BRANCH  24  29
ATOM     25  C   UNL     1       6.308   3.924  13.327  0.00  0.00    +0.000 C 
ATOM     26  C   UNL     1       6.268   4.624  14.650  0.00  0.00    +0.000 A 
ATOM     27  C   UNL     1       7.197   4.278  15.635  0.00  0.00    +0.000 A 
ATOM     28  C   UNL     1       7.046   4.751  16.940  0.00  0.00    +0.000 A 
ATOM     29  C   UNL     1       5.953   5.551  17.288  0.00  0.00    +0.000 A 
ATOM     30  C   UNL     1       5.098   5.999  16.281  0.00  0.00    +0.000 A 
ATOM     31  C   UNL     1       5.255   5.533  14.965  0.00  0.00    +0.000 A 
ENDBRANCH  24  29
ENDBRANCH  23  24
ENDBRANCH  17  23
ENDBRANCH   1  19
TORSDOF 8
ENDMDL
MODEL 5
REMARK VINA RESULT:      -7.9      1.711      4.489
REMARK  Name = 
REMARK  11 active torsions:
REMARK  status: ('A' for Active; 'I' for Inactive)
REMARK    1  A    between atoms: C_1  and  C_2
REMARK    2  A    between atoms: C_5  and  O_6
REMARK    3  A    between atoms: O_6  and  C_7
REMARK    4  A    between atoms: C_7  and  C_8
REMARK    5  A    between atoms: N_10  and  C_11
REMARK    6  A    between atoms: N_10  and  C_27
REMARK    7  A    between atoms: C_11  and  C_12
REMARK    8  A    between atoms: C_14  and  C_15
REMARK    9  A    between atoms: C_18  and  C_19
REMARK   10  A    between atoms: C_27  and  C_28
REMARK   11  A    between atoms: C_27  and  C_29
REMARK                            x       y       z     vdW  Elec       q    Type
REMARK                         _______ _______ _______ _____ _____    ______ ____
ROOT
ATOM      1  C   UNL     1       4.768   6.915  16.683  0.00  0.00    +0.000 C 
ENDROOT
BRANCH   1   2
ATOM      2  C   UNL     1       3.742   7.230  17.714  0.00  0.00    +0.000 A 
ATOM      3  N   UNL     1       2.833   8.181  17.847  0.00  0.00    +0.000 NA
ATOM      4  C   UNL     1       2.206   7.852  19.044  0.00  0.00    +0.000 A 
ATOM      5  N   UNL     1       2.695   6.743  19.614  0.00  0.00    +0.000 NA
ATOM      6  O   UNL     1       3.707   6.335  18.753  0.00  0.00    +0.000 OA
BRANCH   4   7
ATOM      7  C   UNL     1       1.241   8.728  19.707  0.00  0.00    +0.000 A 
ATOM      8  C   UNL     1       0.566   9.734  19.001  0.00  0.00    +0.000 A 
ATOM      9  C   UNL     1      -0.097  10.759  19.689  0.00  0.00    +0.000 A 
ATOM     10  C   UNL     1      -0.090  10.794  21.092  0.00  0.00    +0.000 A 
ATOM     11  C   UNL     1       0.429   9.695  21.789  0.00  0.00    +0.000 A 
ATOM     12  C   UNL     1       1.083   8.670  21.102  0.00  0.00    +0.000 A 
BRANCH  10  13
ATOM     13  C   UNL     1      -0.525  12.021  21.857  0.00  0.00    +0.000 C 
ATOM     14  F   UNL     1      -1.624  12.627  21.328  0.00  0.00    +0.000 F 
ATOM     15  F   UNL     1      -0.818  11.770  23.160  0.00  0.00    +0.000 F 
ATOM     16  F   UNL     1       0.448  12.979  21.870  0.00  0.00    +0.000 F 
ENDBRANCH  10  13
ENDBRANCH   4   7
ENDBRANCH   1   2
BRANCH   1  19
ATOM     17  C   UNL     1       6.415   5.000  16.636  0.00  0.00    +0.000 C 
ATOM     18  O   UNL     1       7.556   4.573  16.843  0.00  0.00    +0.000 OA
ATOM     19  N   UNL     1       5.988   6.234  17.147  0.00  0.00    +0.000 N 
BRANCH  19  20
ATOM     20  C   UNL     1       6.893   6.897  18.119  0.00  0.00    +0.000 C 
ATOM     21  C   UNL     1       7.701   5.950  19.006  0.00  0.00    +0.000 C 
ATOM     22  C   UNL     1       7.803   7.921  17.438  0.00  0.00    +0.000 C 
ENDBRANCH  19  20
BRANCH  17  23
ATOM     23  C   UNL     1       5.426   4.112  15.868  0.00  0.00    +0.000 C 
BRANCH  23  24
ATOM     24  O   UNL     1       4.987   2.948  16.560  0.00  0.00    +0.000 OA
BRANCH  24  29
ATOM     25  C   UNL     1       0.920   3.026  20.489  0.00  0.00    +0.000 C 
ATOM     26  C   UNL     1       2.016   3.236  19.490  0.00  0.00    +0.000 A 
ATOM     27  C   UNL     1       1.686   3.519  18.162  0.00  0.00    +0.000 A 
ATOM     28  C   UNL     1       2.672   3.502  17.174  0.00  0.00    +0.000 A 
ATOM     29  C   UNL     1       3.994   3.175  17.489  0.00  0.00    +0.000 A 
ATOM     30  C   UNL     1       4.348   3.016  18.830  0.00  0.00    +0.000 A 
ATOM     31  C   UNL     1       3.359   3.044  19.827  0.00  0.00    +0.000 A 
ENDBRANCH  24  29
ENDBRANCH  23  24
ENDBRANCH  17  23
ENDBRANCH   1  19
TORSDOF 8
ENDMDL
MODEL 6
REMARK VINA RESULT:      -7.9      2.317      3.487
REMARK  Name = 
REMARK  11 active torsions:
REMARK  status: ('A' for Active; 'I' for Inactive)
REMARK    1  A    between atoms: C_1  and  C_2
REMARK    2  A    between atoms: C_5  and  O_6
REMARK    3  A    between atoms: O_6  and  C_7
REMARK    4  A    between atoms: C_7  and  C_8
REMARK    5  A    between atoms: N_10  and  C_11
REMARK    6  A    between atoms: N_10  and  C_27
REMARK    7  A    between atoms: C_11  and  C_12
REMARK    8  A    between atoms: C_14  and  C_15
REMARK    9  A    between atoms: C_18  and  C_19
REMARK   10  A    between atoms: C_27  and  C_28
REMARK   11  A    between atoms: C_27  and  C_29
REMARK                            x       y       z     vdW  Elec       q    Type
REMARK                         _______ _______ _______ _____ _____    ______ ____
ROOT
ATOM      1  C   UNL     1       3.036   5.675  18.019  0.00  0.00    +0.000 C 
ENDROOT
BRANCH   1   2
ATOM      2  C   UNL     1       2.460   6.945  18.540  0.00  0.00    +0.000 A 
ATOM      3  N   UNL     1       2.211   7.414  19.750  0.00  0.00    +0.000 NA
ATOM      4  C   UNL     1       1.687   8.678  19.498  0.00  0.00    +0.000 A 
ATOM      5  N   UNL     1       1.630   8.978  18.193  0.00  0.00    +0.000 NA
ATOM      6  O   UNL     1       2.127   7.845  17.560  0.00  0.00    +0.000 OA
BRANCH   4   7
ATOM      7  C   UNL     1       1.087   9.515  20.535  0.00  0.00    +0.000 A 
ATOM      8  C   UNL     1       0.502   8.951  21.678  0.00  0.00    +0.000 A 
ATOM      9  C   UNL     1      -0.341   9.718  22.493  0.00  0.00    +0.000 A 
ATOM     10  C   UNL     1      -0.615  11.057  22.173  0.00  0.00    +0.000 A 
ATOM     11  C   UNL     1       0.110  11.662  21.138  0.00  0.00    +0.000 A 
ATOM     12  C   UNL     1       0.956  10.899  20.332  0.00  0.00    +0.000 A 
BRANCH  10  13
ATOM     13  C   UNL     1      -1.735  11.818  22.841  0.00  0.00    +0.000 C 
ATOM     14  F   UNL     1      -1.302  12.855  23.610  0.00  0.00    +0.000 F 
ATOM     15  F   UNL     1      -2.630  12.342  21.962  0.00  0.00    +0.000 F 
ATOM     16  F   UNL     1      -2.459  11.020  23.680  0.00  0.00    +0.000 F 
ENDBRANCH  10  13
ENDBRANCH   4   7
ENDBRANCH   1   2
BRANCH   1  19
ATOM     17  C   UNL     1       5.401   5.421  18.871  0.00  0.00    +0.000 C 
ATOM     18  O   UNL     1       6.179   5.040  19.752  0.00  0.00    +0.000 OA
ATOM     19  N   UNL     1       4.057   5.019  18.852  0.00  0.00    +0.000 N 
BRANCH  19  20
ATOM     20  C   UNL     1       3.672   3.951  19.809  0.00  0.00    +0.000 C 
ATOM     21  C   UNL     1       2.396   4.221  20.605  0.00  0.00    +0.000 C 
ATOM     22  C   UNL     1       3.620   2.579  19.136  0.00  0.00    +0.000 C 
ENDBRANCH  19  20
BRANCH  17  23
ATOM     23  C   UNL     1       5.950   6.291  17.732  0.00  0.00    +0.000 C 
BRANCH  23  24
ATOM     24  O   UNL     1       7.097   5.772  17.067  0.00  0.00    +0.000 OA
BRANCH  24  29
ATOM     25  C   UNL     1       5.534   3.359  12.197  0.00  0.00    +0.000 C 
ATOM     26  C   UNL     1       6.103   3.821  13.503  0.00  0.00    +0.000 A 
ATOM     27  C   UNL     1       5.514   3.393  14.696  0.00  0.00    +0.000 A 
ATOM     28  C   UNL     1       5.881   3.977  15.910  0.00  0.00    +0.000 A 
ATOM     29  C   UNL     1       6.817   5.014  15.950  0.00  0.00    +0.000 A 
ATOM     30  C   UNL     1       7.497   5.355  14.779  0.00  0.00    +0.000 A 
ATOM     31  C   UNL     1       7.137   4.760  13.558  0.00  0.00    +0.000 A 
ENDBRANCH  24  29
ENDBRANCH  23  24
ENDBRANCH  17  23
ENDBRANCH   1  19
TORSDOF 8
ENDMDL
MODEL 7
REMARK VINA RESULT:      -7.8      2.177      3.128
REMARK  Name = 
REMARK  11 active torsions:
REMARK  status: ('A' for Active; 'I' for Inactive)
REMARK    1  A    between atoms: C_1  and  C_2
REMARK    2  A    between atoms: C_5  and  O_6
REMARK    3  A    between atoms: O_6  and  C_7
REMARK    4  A    between atoms: C_7  and  C_8
REMARK    5  A    between atoms: N_10  and  C_11
REMARK    6  A    between atoms: N_10  and  C_27
REMARK    7  A    between atoms: C_11  and  C_12
REMARK    8  A    between atoms: C_14  and  C_15
REMARK    9  A    between atoms: C_18  and  C_19
REMARK   10  A    between atoms: C_27  and  C_28
REMARK   11  A    between atoms: C_27  and  C_29
REMARK                            x       y       z     vdW  Elec       q    Type
REMARK                         _______ _______ _______ _____ _____    ______ ____
ROOT
ATOM      1  C   UNL     1       2.570   4.842  20.620  0.00  0.00    +0.000 C 
ENDROOT
BRANCH   1   2
ATOM      2  C   UNL     1       2.136   6.250  20.415  0.00  0.00    +0.000 A 
ATOM      3  N   UNL     1       1.455   7.119  21.142  0.00  0.00    +0.000 NA
ATOM      4  C   UNL     1       1.434   8.255  20.340  0.00  0.00    +0.000 A 
ATOM      5  N   UNL     1       2.086   8.099  19.180  0.00  0.00    +0.000 NA
ATOM      6  O   UNL     1       2.540   6.786  19.218  0.00  0.00    +0.000 OA
BRANCH   4   7
ATOM      7  C   UNL     1       0.628   9.435  20.648  0.00  0.00    +0.000 A 
ATOM      8  C   UNL     1       0.707  10.596  19.866  0.00  0.00    +0.000 A 
ATOM      9  C   UNL     1       0.190  11.808  20.343  0.00  0.00    +0.000 A 
ATOM     10  C   UNL     1      -0.410  11.875  21.610  0.00  0.00    +0.000 A 
ATOM     11  C   UNL     1      -0.647  10.683  22.306  0.00  0.00    +0.000 A 
ATOM     12  C   UNL     1      -0.137   9.475  21.826  0.00  0.00    +0.000 A 
BRANCH  10  13
ATOM     13  C   UNL     1      -0.703  13.197  22.279  0.00  0.00    +0.000 C 
ATOM     14  F   UNL     1      -1.728  13.882  21.698  0.00  0.00    +0.000 F 
ATOM     15  F   UNL     1      -1.022  13.077  23.595  0.00  0.00    +0.000 F 
ATOM     16  F   UNL     1       0.371  14.038  22.229  0.00  0.00    +0.000 F 
ENDBRANCH  10  13
ENDBRANCH   4   7
ENDBRANCH   1   2
BRANCH   1  19
ATOM     17  C   UNL     1       4.150   3.786  18.956  0.00  0.00    +0.000 C 
ATOM     18  O   UNL     1       4.375   2.919  18.104  0.00  0.00    +0.000 OA
ATOM     19  N   UNL     1       2.850   4.050  19.411  0.00  0.00    +0.000 N 
BRANCH  19  20
ATOM     20  C   UNL     1       1.743   3.394  18.671  0.00  0.00    +0.000 C 
ATOM     21  C   UNL     1       0.564   2.941  19.531  0.00  0.00    +0.000 C 
ATOM     22  C   UNL     1       1.267   4.246  17.492  0.00  0.00    +0.000 C 
ENDBRANCH  19  20
BRANCH  17  23
ATOM     23  C   UNL     1       5.320   4.641  19.460  0.00  0.00    +0.000 C 
BRANCH  23  24
ATOM     24  O   UNL     1       5.617   5.793  18.677  0.00  0.00    +0.000 OA
BRANCH  24  29
ATOM     25  C   UNL     1       6.391   4.135  13.326  0.00  0.00    +0.000 C 
ATOM     26  C   UNL     1       6.325   4.757  14.687  0.00  0.00    +0.000 A 
ATOM     27  C   UNL     1       7.251   4.372  15.660  0.00  0.00    +0.000 A 
ATOM     28  C   UNL     1       7.079   4.766  16.988  0.00  0.00    +0.000 A 
ATOM     29  C   UNL     1       5.968   5.523  17.371  0.00  0.00    +0.000 A 
ATOM     30  C   UNL     1       5.112   6.012  16.383  0.00  0.00    +0.000 A 
ATOM     31  C   UNL     1       5.291   5.626  15.044  0.00  0.00    +0.000 A 
ENDBRANCH  24  29
ENDBRANCH  23  24
ENDBRANCH  17  23
ENDBRANCH   1  19
TORSDOF 8
ENDMDL
MODEL 8
REMARK VINA RESULT:      -7.8      1.752      2.348
REMARK  Name = 
REMARK  11 active torsions:
REMARK  status: ('A' for Active; 'I' for Inactive)
REMARK    1  A    between atoms: C_1  and  C_2
REMARK    2  A    between atoms: C_5  and  O_6
REMARK    3  A    between atoms: O_6  and  C_7
REMARK    4  A    between atoms: C_7  and  C_8
REMARK    5  A    between atoms: N_10  and  C_11
REMARK    6  A    between atoms: N_10  and  C_27
REMARK    7  A    between atoms: C_11  and  C_12
REMARK    8  A    between atoms: C_14  and  C_15
REMARK    9  A    between atoms: C_18  and  C_19
REMARK   10  A    between atoms: C_27  and  C_28
REMARK   11  A    between atoms: C_27  and  C_29
REMARK                            x       y       z     vdW  Elec       q    Type
REMARK                         _______ _______ _______ _____ _____    ______ ____
ROOT
ATOM      1  C   UNL     1       2.073   4.625  18.428  0.00  0.00    +0.000 C 
ENDROOT
BRANCH   1   2
ATOM      2  C   UNL     1       2.001   6.036  18.897  0.00  0.00    +0.000 A 
ATOM      3  N   UNL     1       1.474   6.629  19.954  0.00  0.00    +0.000 NA
ATOM      4  C   UNL     1       1.798   7.968  19.760  0.00  0.00    +0.000 A 
ATOM      5  N   UNL     1       2.505   8.187  18.643  0.00  0.00    +0.000 NA
ATOM      6  O   UNL     1       2.634   6.928  18.068  0.00  0.00    +0.000 OA
BRANCH   4   7
ATOM      7  C   UNL     1       1.263   9.047  20.589  0.00  0.00    +0.000 A 
ATOM      8  C   UNL     1       1.030   8.866  21.959  0.00  0.00    +0.000 A 
ATOM      9  C   UNL     1       0.231   9.773  22.668  0.00  0.00    +0.000 A 
ATOM     10  C   UNL     1      -0.348  10.871  22.014  0.00  0.00    +0.000 A 
ATOM     11  C   UNL     1       0.033  11.146  20.694  0.00  0.00    +0.000 A 
ATOM     12  C   UNL     1       0.835  10.244  19.992  0.00  0.00    +0.000 A 
BRANCH  10  13
ATOM     13  C   UNL     1      -1.442  11.690  22.658  0.00  0.00    +0.000 C 
ATOM     14  F   UNL     1      -2.361  12.159  21.769  0.00  0.00    +0.000 F 
ATOM     15  F   UNL     1      -2.139  11.010  23.605  0.00  0.00    +0.000 F 
ATOM     16  F   UNL     1      -0.942  12.797  23.283  0.00  0.00    +0.000 F 
ENDBRANCH  10  13
ENDBRANCH   4   7
ENDBRANCH   1   2
BRANCH   1  19
ATOM     17  C   UNL     1       4.338   3.583  18.838  0.00  0.00    +0.000 C 
ATOM     18  O   UNL     1       5.134   3.036  19.610  0.00  0.00    +0.000 OA
ATOM     19  N   UNL     1       2.981   3.728  19.162  0.00  0.00    +0.000 N 
BRANCH  19  20
ATOM     20  C   UNL     1       2.508   3.007  20.370  0.00  0.00    +0.000 C 
ATOM     21  C   UNL     1       2.489   3.834  21.655  0.00  0.00    +0.000 C 
ATOM     22  C   UNL     1       1.157   2.329  20.133  0.00  0.00    +0.000 C 
ENDBRANCH  19  20
BRANCH  17  23
ATOM     23  C   UNL     1       4.844   4.039  17.463  0.00  0.00    +0.000 C 
BRANCH  23  24
ATOM     24  O   UNL     1       6.256   4.180  17.348  0.00  0.00    +0.000 OA
BRANCH  24  29
ATOM     25  C   UNL     1       8.689   9.213  18.202  0.00  0.00    +0.000 C 
ATOM     26  C   UNL     1       7.894   7.945  18.146  0.00  0.00    +0.000 A 
ATOM     27  C   UNL     1       8.286   6.856  18.930  0.00  0.00    +0.000 A 
ATOM     28  C   UNL     1       7.702   5.604  18.735  0.00  0.00    +0.000 A 
ATOM     29  C   UNL     1       6.743   5.409  17.737  0.00  0.00    +0.000 A 
ATOM     30  C   UNL     1       6.261   6.519  17.041  0.00  0.00    +0.000 A 
ATOM     31  C   UNL     1       6.839   7.783  17.244  0.00  0.00    +0.000 A 
ENDBRANCH  24  29
ENDBRANCH  23  24
ENDBRANCH  17  23
ENDBRANCH   1  19
TORSDOF 8
ENDMDL
MODEL 9
REMARK VINA RESULT:      -7.8      1.644      2.362
REMARK  Name = 
REMARK  11 active torsions:
REMARK  status: ('A' for Active; 'I' for Inactive)
REMARK    1  A    between atoms: C_1  and  C_2
REMARK    2  A    between atoms: C_5  and  O_6
REMARK    3  A    between atoms: O_6  and  C_7
REMARK    4  A    between atoms: C_7  and  C_8
REMARK    5  A    between atoms: N_10  and  C_11
REMARK    6  A    between atoms: N_10  and  C_27
REMARK    7  A    between atoms: C_11  and  C_12
REMARK    8  A    between atoms: C_14  and  C_15
REMARK    9  A    between atoms: C_18  and  C_19
REMARK   10  A    between atoms: C_27  and  C_28
REMARK   11  A    between atoms: C_27  and  C_29
REMARK                            x       y       z     vdW  Elec       q    Type
REMARK                         _______ _______ _______ _____ _____    ______ ____
ROOT
ATOM      1  C   UNL     1       3.407   5.525  19.635  0.00  0.00    +0.000 C 
ENDROOT
BRANCH   1   2
ATOM      2  C   UNL     1       2.592   6.769  19.674  0.00  0.00    +0.000 A 
ATOM      3  N   UNL     1       1.841   7.349  20.595  0.00  0.00    +0.000 NA
ATOM      4  C   UNL     1       1.388   8.498  19.956  0.00  0.00    +0.000 A 
ATOM      5  N   UNL     1       1.851   8.628  18.706  0.00  0.00    +0.000 NA
ATOM      6  O   UNL     1       2.632   7.496  18.511  0.00  0.00    +0.000 OA
BRANCH   4   7
ATOM      7  C   UNL     1       0.366   9.376  20.522  0.00  0.00    +0.000 A 
ATOM      8  C   UNL     1      -0.333  10.291  19.723  0.00  0.00    +0.000 A 
ATOM      9  C   UNL     1      -1.062  11.334  20.311  0.00  0.00    +0.000 A 
ATOM     10  C   UNL     1      -1.098  11.477  21.707  0.00  0.00    +0.000 A 
ATOM     11  C   UNL     1      -0.551  10.461  22.501  0.00  0.00    +0.000 A 
ATOM     12  C   UNL     1       0.169   9.418  21.913  0.00  0.00    +0.000 A 
BRANCH  10  13
ATOM     13  C   UNL     1      -1.611  12.737  22.361  0.00  0.00    +0.000 C 
ATOM     14  F   UNL     1      -1.017  13.007  23.557  0.00  0.00    +0.000 F 
ATOM     15  F   UNL     1      -1.449  13.848  21.595  0.00  0.00    +0.000 F 
ATOM     16  F   UNL     1      -2.948  12.659  22.628  0.00  0.00    +0.000 F 
ENDBRANCH  10  13
ENDBRANCH   4   7
ENDBRANCH   1   2
BRANCH   1  19
ATOM     17  C   UNL     1       2.861   3.373  18.431  0.00  0.00    +0.000 C 
ATOM     18  O   UNL     1       2.441   2.210  18.467  0.00  0.00    +0.000 OA
ATOM     19  N   UNL     1       2.675   4.254  19.506  0.00  0.00    +0.000 N 
BRANCH  19  20
ATOM     20  C   UNL     1       1.769   3.796  20.589  0.00  0.00    +0.000 C 
ATOM     21  C   UNL     1       0.430   3.228  20.121  0.00  0.00    +0.000 C 
ATOM     22  C   UNL     1       2.473   2.829  21.543  0.00  0.00    +0.000 C 
ENDBRANCH  19  20
BRANCH  17  23
ATOM     23  C   UNL     1       3.530   3.873  17.144  0.00  0.00    +0.000 C 
BRANCH  23  24
ATOM     24  O   UNL     1       4.924   3.602  17.035  0.00  0.00    +0.000 OA
BRANCH  24  29
ATOM     25  C   UNL     1       7.952   8.293  17.935  0.00  0.00    +0.000 C 
ATOM     26  C   UNL     1       7.291   7.018  17.510  0.00  0.00    +0.000 A 
ATOM     27  C   UNL     1       6.190   7.071  16.650  0.00  0.00    +0.000 A 
ATOM     28  C   UNL     1       5.426   5.928  16.416  0.00  0.00    +0.000 A 
ATOM     29  C   UNL     1       5.727   4.722  17.057  0.00  0.00    +0.000 A 
ATOM     30  C   UNL     1       6.896   4.635  17.814  0.00  0.00    +0.000 A 
ATOM     31  C   UNL     1       7.674   5.783  18.042  0.00  0.00    +0.000 A 
ENDBRANCH  24  29
ENDBRANCH  23  24
ENDBRANCH  17  23
ENDBRANCH   1  19
TORSDOF 8
ENDMDL
