MODEL 1
REMARK VINA RESULT:      -6.0      0.000      0.000
REMARK  Name = 
REMARK  10 active torsions:
REMARK  status: ('A' for Active; 'I' for Inactive)
REMARK    1  A    between atoms: C_1  and  C_2
REMARK    2  A    between atoms: C_2  and  C_3
REMARK    3  A    between atoms: C_8  and  N_9
REMARK    4  A    between atoms: C_10  and  C_12
REMARK    5  A    between atoms: C_12  and  C_13
REMARK    6  A    between atoms: C_12  and  C_14
REMARK    7  A    between atoms: C_12  and  O_15
REMARK    8  A    between atoms: C_16  and  C_17
REMARK    9  A    between atoms: C_20  and  C_21
REMARK   10  A    between atoms: C_20  and  C_22
REMARK                            x       y       z     vdW  Elec       q    Type
REMARK                         _______ _______ _______ _____ _____    ______ ____
ROOT
ATOM      1  C   UNL     1      -0.911   8.597  21.024  0.00  0.00    +0.000 C 
ATOM      2  C   UNL     1       0.503   9.106  21.337  0.00  0.00    +0.000 C 
ATOM      3  C   UNL     1       0.440   9.794  22.714  0.00  0.00    +0.000 C 
ATOM      4  C   UNL     1       1.551   7.952  21.363  0.00  0.00    +0.000 C 
ATOM      5  C   UNL     1       1.991   7.568  19.968  0.00  0.00    +0.000 A 
ATOM      6  C   UNL     1       1.769   8.466  18.937  0.00  0.00    +0.000 A 
ATOM      7  S   UNL     1       2.279   7.866  17.430  0.00  0.00    +0.000 S 
ATOM      8  C   UNL     1       2.916   6.458  18.131  0.00  0.00    +0.000 A 
ATOM      9  C   UNL     1       2.738   6.398  19.508  0.00  0.00    +0.000 A 
ATOM     10  C   UNL     1       1.157   9.844  19.051  0.00  0.00    +0.000 C 
ATOM     11  C   UNL     1      -0.133   9.981  18.234  0.00  0.00    +0.000 C 
ATOM     12  C   UNL     1       2.156  10.918  18.591  0.00  0.00    +0.000 C 
ATOM     13  O   UNL     1       0.906  10.152  20.438  0.00  0.00    +0.000 OA
ENDROOT
BRANCH   9  14
ATOM     14  C   UNL     1       3.242   5.253  20.262  0.00  0.00    +0.000 C 
ATOM     15  N   UNL     1       2.429   4.754  21.237  0.00  0.00    +0.000 N 
ATOM     16  O   UNL     1       4.309   4.702  20.010  0.00  0.00    +0.000 OA
ATOM     17  H   UNL     1       1.436   4.930  21.209  0.00  0.00    +0.000 HD
ATOM     18  H   UNL     1       2.717   3.868  21.638  0.00  0.00    +0.000 HD
ENDBRANCH   9  14
BRANCH   8  19
ATOM     19  N   UNL     1       3.617   5.624  17.267  0.00  0.00    +0.000 N 
ATOM     20  C   UNL     1       4.979   5.830  17.088  0.00  0.00    +0.000 C 
ATOM     21  O   UNL     1       5.602   6.808  17.509  0.00  0.00    +0.000 OA
ATOM     22  H   UNL     1       3.091   5.247  16.485  0.00  0.00    +0.000 HD
BRANCH  20  23
ATOM     23  C   UNL     1       5.762   4.725  16.333  0.00  0.00    +0.000 C 
ATOM     24  C   UNL     1       5.637   4.926  14.826  0.00  0.00    +0.000 C 
ATOM     25  C   UNL     1       7.216   4.624  16.770  0.00  0.00    +0.000 C 
BRANCH  23  26
ATOM     26  O   UNL     1       5.153   3.455  16.632  0.00  0.00    +0.000 OA
ATOM     27  H   UNL     1       4.308   3.665  17.084  0.00  0.00    +0.000 HD
ENDBRANCH  23  26
ENDBRANCH  20  23
ENDBRANCH   8  19
TORSDOF 4
ENDMDL
MODEL 2
REMARK VINA RESULT:      -5.9      7.486     11.642
REMARK  Name = 
REMARK  10 active torsions:
REMARK  status: ('A' for Active; 'I' for Inactive)
REMARK    1  A    between atoms: C_1  and  C_2
REMARK    2  A    between atoms: C_2  and  C_3
REMARK    3  A    between atoms: C_8  and  N_9
REMARK    4  A    between atoms: C_10  and  C_12
REMARK    5  A    between atoms: C_12  and  C_13
REMARK    6  A    between atoms: C_12  and  C_14
REMARK    7  A    between atoms: C_12  and  O_15
REMARK    8  A    between atoms: C_16  and  C_17
REMARK    9  A    between atoms: C_20  and  C_21
REMARK   10  A    between atoms: C_20  and  C_22
REMARK                            x       y       z     vdW  Elec       q    Type
REMARK                         _______ _______ _______ _____ _____    ______ ____
ROOT
ATOM      1  C   UNL     1      -3.044   9.494  17.451  0.00  0.00    +0.000 C 
ATOM      2  C   UNL     1      -3.172  10.957  17.001  0.00  0.00    +0.000 C 
ATOM      3  C   UNL     1      -3.110  10.961  15.461  0.00  0.00    +0.000 C 
ATOM      4  C   UNL     1      -4.505  11.606  17.484  0.00  0.00    +0.000 C 
ATOM      5  C   UNL     1      -4.416  12.051  18.927  0.00  0.00    +0.000 A 
ATOM      6  C   UNL     1      -3.161  12.212  19.490  0.00  0.00    +0.000 A 
ATOM      7  S   UNL     1      -3.235  12.671  21.126  0.00  0.00    +0.000 S 
ATOM      8  C   UNL     1      -4.927  12.786  21.086  0.00  0.00    +0.000 A 
ATOM      9  C   UNL     1      -5.474  12.459  19.850  0.00  0.00    +0.000 A 
ATOM     10  C   UNL     1      -1.827  12.029  18.801  0.00  0.00    +0.000 C 
ATOM     11  C   UNL     1      -0.980  10.928  19.448  0.00  0.00    +0.000 C 
ATOM     12  C   UNL     1      -1.030  13.343  18.809  0.00  0.00    +0.000 C 
ATOM     13  O   UNL     1      -2.037  11.741  17.403  0.00  0.00    +0.000 OA
ENDROOT
BRANCH   9  14
ATOM     14  C   UNL     1      -6.919  12.521  19.650  0.00  0.00    +0.000 C 
ATOM     15  N   UNL     1      -7.566  11.332  19.477  0.00  0.00    +0.000 N 
ATOM     16  O   UNL     1      -7.558  13.567  19.697  0.00  0.00    +0.000 OA
ATOM     17  H   UNL     1      -7.148  10.474  19.805  0.00  0.00    +0.000 HD
ATOM     18  H   UNL     1      -8.579  11.376  19.503  0.00  0.00    +0.000 HD
ENDBRANCH   9  14
BRANCH   8  19
ATOM     19  N   UNL     1      -5.521  13.291  22.237  0.00  0.00    +0.000 N 
ATOM     20  C   UNL     1      -5.776  14.655  22.322  0.00  0.00    +0.000 C 
ATOM     21  O   UNL     1      -5.367  15.496  21.519  0.00  0.00    +0.000 OA
ATOM     22  H   UNL     1      -5.316  12.796  23.100  0.00  0.00    +0.000 HD
BRANCH  20  23
ATOM     23  C   UNL     1      -6.669  15.128  23.497  0.00  0.00    +0.000 C 
ATOM     24  C   UNL     1      -7.553  16.290  23.054  0.00  0.00    +0.000 C 
ATOM     25  C   UNL     1      -7.486  14.001  24.113  0.00  0.00    +0.000 C 
BRANCH  23  26
ATOM     26  O   UNL     1      -5.814  15.635  24.539  0.00  0.00    +0.000 OA
ATOM     27  H   UNL     1      -6.363  16.269  25.048  0.00  0.00    +0.000 HD
ENDBRANCH  23  26
ENDBRANCH  20  23
ENDBRANCH   8  19
TORSDOF 4
ENDMDL
MODEL 3
REMARK VINA RESULT:      -5.9      0.774      1.040
REMARK  Name = 
REMARK  10 active torsions:
REMARK  status: ('A' for Active; 'I' for Inactive)
REMARK    1  A    between atoms: C_1  and  C_2
REMARK    2  A    between atoms: C_2  and  C_3
REMARK    3  A    between atoms: C_8  and  N_9
REMARK    4  A    between atoms: C_10  and  C_12
REMARK    5  A    between atoms: C_12  and  C_13
REMARK    6  A    between atoms: C_12  and  C_14
REMARK    7  A    between atoms: C_12  and  O_15
REMARK    8  A    between atoms: C_16  and  C_17
REMARK    9  A    between atoms: C_20  and  C_21
REMARK   10  A    between atoms: C_20  and  C_22
REMARK                            x       y       z     vdW  Elec       q    Type
REMARK                         _______ _______ _______ _____ _____    ______ ____
ROOT
ATOM      1  C   UNL     1      -0.966   8.539  21.021  0.00  0.00    +0.000 C 
ATOM      2  C   UNL     1       0.416   9.110  21.371  0.00  0.00    +0.000 C 
ATOM      3  C   UNL     1       0.302   9.739  22.773  0.00  0.00    +0.000 C 
ATOM      4  C   UNL     1       1.524   8.012  21.368  0.00  0.00    +0.000 C 
ATOM      5  C   UNL     1       1.999   7.705  19.964  0.00  0.00    +0.000 A 
ATOM      6  C   UNL     1       1.741   8.630  18.966  0.00  0.00    +0.000 A 
ATOM      7  S   UNL     1       2.299   8.117  17.443  0.00  0.00    +0.000 S 
ATOM      8  C   UNL     1       3.001   6.718  18.098  0.00  0.00    +0.000 A 
ATOM      9  C   UNL     1       2.812   6.595  19.470  0.00  0.00    +0.000 A 
ATOM     10  C   UNL     1       1.056   9.968  19.124  0.00  0.00    +0.000 C 
ATOM     11  C   UNL     1      -0.231  10.069  18.296  0.00  0.00    +0.000 C 
ATOM     12  C   UNL     1       2.001  11.110  18.718  0.00  0.00    +0.000 C 
ATOM     13  O   UNL     1       0.773  10.209  20.518  0.00  0.00    +0.000 OA
ENDROOT
BRANCH   9  14
ATOM     14  C   UNL     1       3.367   5.450  20.186  0.00  0.00    +0.000 C 
ATOM     15  N   UNL     1       2.535   4.807  21.055  0.00  0.00    +0.000 N 
ATOM     16  O   UNL     1       4.499   5.021  19.988  0.00  0.00    +0.000 OA
ATOM     17  H   UNL     1       1.534   4.891  20.956  0.00  0.00    +0.000 HD
ATOM     18  H   UNL     1       2.878   3.924  21.419  0.00  0.00    +0.000 HD
ENDBRANCH   9  14
BRANCH   8  19
ATOM     19  N   UNL     1       3.755   5.955  17.213  0.00  0.00    +0.000 N 
ATOM     20  C   UNL     1       5.092   6.277  17.015  0.00  0.00    +0.000 C 
ATOM     21  O   UNL     1       5.638   7.299  17.439  0.00  0.00    +0.000 OA
ATOM     22  H   UNL     1       3.249   5.545  16.434  0.00  0.00    +0.000 HD
BRANCH  20  23
ATOM     23  C   UNL     1       5.951   5.251  16.233  0.00  0.00    +0.000 C 
ATOM     24  C   UNL     1       7.142   4.808  17.077  0.00  0.00    +0.000 C 
ATOM     25  C   UNL     1       5.144   4.063  15.729  0.00  0.00    +0.000 C 
BRANCH  23  26
ATOM     26  O   UNL     1       6.490   5.906  15.069  0.00  0.00    +0.000 OA
ATOM     27  H   UNL     1       5.892   6.661  14.888  0.00  0.00    +0.000 HD
ENDBRANCH  23  26
ENDBRANCH  20  23
ENDBRANCH   8  19
TORSDOF 4
ENDMDL
MODEL 4
REMARK VINA RESULT:      -5.9      7.017     10.669
REMARK  Name = 
REMARK  10 active torsions:
REMARK  status: ('A' for Active; 'I' for Inactive)
REMARK    1  A    between atoms: C_1  and  C_2
REMARK    2  A    between atoms: C_2  and  C_3
REMARK    3  A    between atoms: C_8  and  N_9
REMARK    4  A    between atoms: C_10  and  C_12
REMARK    5  A    between atoms: C_12  and  C_13
REMARK    6  A    between atoms: C_12  and  C_14
REMARK    7  A    between atoms: C_12  and  O_15
REMARK    8  A    between atoms: C_16  and  C_17
REMARK    9  A    between atoms: C_20  and  C_21
REMARK   10  A    between atoms: C_20  and  C_22
REMARK                            x       y       z     vdW  Elec       q    Type
REMARK                         _______ _______ _______ _____ _____    ______ ____
ROOT
ATOM      1  C   UNL     1      -3.126   9.659  17.812  0.00  0.00    +0.000 C 
ATOM      2  C   UNL     1      -3.293  11.149  17.484  0.00  0.00    +0.000 C 
ATOM      3  C   UNL     1      -3.910  11.233  16.075  0.00  0.00    +0.000 C 
ATOM      4  C   UNL     1      -4.208  11.879  18.513  0.00  0.00    +0.000 C 
ATOM      5  C   UNL     1      -3.454  12.236  19.775  0.00  0.00    +0.000 A 
ATOM      6  C   UNL     1      -2.070  12.260  19.729  0.00  0.00    +0.000 A 
ATOM      7  S   UNL     1      -1.375  12.633  21.236  0.00  0.00    +0.000 S 
ATOM      8  C   UNL     1      -2.894  12.890  21.947  0.00  0.00    +0.000 A 
ATOM      9  C   UNL     1      -3.955  12.679  21.075  0.00  0.00    +0.000 A 
ATOM     10  C   UNL     1      -1.198  12.005  18.520  0.00  0.00    +0.000 C 
ATOM     11  C   UNL     1      -0.265  10.803  18.714  0.00  0.00    +0.000 C 
ATOM     12  C   UNL     1      -0.351  13.246  18.194  0.00  0.00    +0.000 C 
ATOM     13  O   UNL     1      -2.025  11.813  17.354  0.00  0.00    +0.000 OA
ENDROOT
BRANCH   9  14
ATOM     14  C   UNL     1      -5.328  12.871  21.533  0.00  0.00    +0.000 C 
ATOM     15  N   UNL     1      -6.086  13.770  20.841  0.00  0.00    +0.000 N 
ATOM     16  O   UNL     1      -5.826  12.224  22.448  0.00  0.00    +0.000 OA
ATOM     17  H   UNL     1      -5.841  14.018  19.894  0.00  0.00    +0.000 HD
ATOM     18  H   UNL     1      -7.076  13.774  21.064  0.00  0.00    +0.000 HD
ENDBRANCH   9  14
BRANCH   8  19
ATOM     19  N   UNL     1      -2.870  13.379  23.249  0.00  0.00    +0.000 N 
ATOM     20  C   UNL     1      -2.820  14.753  23.453  0.00  0.00    +0.000 C 
ATOM     21  O   UNL     1      -2.626  15.587  22.565  0.00  0.00    +0.000 OA
ATOM     22  H   UNL     1      -2.427  12.784  23.942  0.00  0.00    +0.000 HD
BRANCH  20  23
ATOM     23  C   UNL     1      -3.062  15.255  24.898  0.00  0.00    +0.000 C 
ATOM     24  C   UNL     1      -1.733  15.575  25.576  0.00  0.00    +0.000 C 
ATOM     25  C   UNL     1      -4.026  16.431  24.965  0.00  0.00    +0.000 C 
BRANCH  23  26
ATOM     26  O   UNL     1      -3.663  14.187  25.655  0.00  0.00    +0.000 OA
ATOM     27  H   UNL     1      -3.935  13.514  24.995  0.00  0.00    +0.000 HD
ENDBRANCH  23  26
ENDBRANCH  20  23
ENDBRANCH   8  19
TORSDOF 4
ENDMDL
MODEL 5
REMARK VINA RESULT:      -5.8      7.494     11.522
REMARK  Name = 
REMARK  10 active torsions:
REMARK  status: ('A' for Active; 'I' for Inactive)
REMARK    1  A    between atoms: C_1  and  C_2
REMARK    2  A    between atoms: C_2  and  C_3
REMARK    3  A    between atoms: C_8  and  N_9
REMARK    4  A    between atoms: C_10  and  C_12
REMARK    5  A    between atoms: C_12  and  C_13
REMARK    6  A    between atoms: C_12  and  C_14
REMARK    7  A    between atoms: C_12  and  O_15
REMARK    8  A    between atoms: C_16  and  C_17
REMARK    9  A    between atoms: C_20  and  C_21
REMARK   10  A    between atoms: C_20  and  C_22
REMARK                            x       y       z     vdW  Elec       q    Type
REMARK                         _______ _______ _______ _____ _____    ______ ____
ROOT
ATOM      1  C   UNL     1      -3.167   9.262  17.490  0.00  0.00    +0.000 C 
ATOM      2  C   UNL     1      -3.082  10.633  16.803  0.00  0.00    +0.000 C 
ATOM      3  C   UNL     1      -2.879  10.371  15.298  0.00  0.00    +0.000 C 
ATOM      4  C   UNL     1      -4.368  11.484  17.028  0.00  0.00    +0.000 C 
ATOM      5  C   UNL     1      -4.360  12.156  18.384  0.00  0.00    +0.000 A 
ATOM      6  C   UNL     1      -3.152  12.283  19.049  0.00  0.00    +0.000 A 
ATOM      7  S   UNL     1      -3.321  13.017  20.573  0.00  0.00    +0.000 S 
ATOM      8  C   UNL     1      -4.978  13.292  20.331  0.00  0.00    +0.000 A 
ATOM      9  C   UNL     1      -5.444  12.818  19.110  0.00  0.00    +0.000 A 
ATOM     10  C   UNL     1      -1.791  11.854  18.547  0.00  0.00    +0.000 C 
ATOM     11  C   UNL     1      -1.141  10.798  19.449  0.00  0.00    +0.000 C 
ATOM     12  C   UNL     1      -0.850  13.064  18.435  0.00  0.00    +0.000 C 
ATOM     13  O   UNL     1      -1.904  11.357  17.197  0.00  0.00    +0.000 OA
ENDROOT
BRANCH   9  14
ATOM     14  C   UNL     1      -6.847  12.989  18.746  0.00  0.00    +0.000 C 
ATOM     15  N   UNL     1      -7.594  11.853  18.628  0.00  0.00    +0.000 N 
ATOM     16  O   UNL     1      -7.375  14.088  18.612  0.00  0.00    +0.000 OA
ATOM     17  H   UNL     1      -7.302  11.004  19.089  0.00  0.00    +0.000 HD
ATOM     18  H   UNL     1      -8.594  11.993  18.537  0.00  0.00    +0.000 HD
ENDBRANCH   9  14
BRANCH   8  19
ATOM     19  N   UNL     1      -5.611  14.041  21.316  0.00  0.00    +0.000 N 
ATOM     20  C   UNL     1      -6.150  13.388  22.418  0.00  0.00    +0.000 C 
ATOM     21  O   UNL     1      -6.263  12.164  22.522  0.00  0.00    +0.000 OA
ATOM     22  H   UNL     1      -6.065  14.895  21.007  0.00  0.00    +0.000 HD
BRANCH  20  23
ATOM     23  C   UNL     1      -6.604  14.275  23.605  0.00  0.00    +0.000 C 
ATOM     24  C   UNL     1      -5.493  15.243  23.997  0.00  0.00    +0.000 C 
ATOM     25  C   UNL     1      -7.915  15.000  23.336  0.00  0.00    +0.000 C 
BRANCH  23  26
ATOM     26  O   UNL     1      -6.831  13.424  24.745  0.00  0.00    +0.000 OA
ATOM     27  H   UNL     1      -7.732  13.644  25.065  0.00  0.00    +0.000 HD
ENDBRANCH  23  26
ENDBRANCH  20  23
ENDBRANCH   8  19
TORSDOF 4
ENDMDL
MODEL 6
REMARK VINA RESULT:      -5.7      2.568      6.445
REMARK  Name = 
REMARK  10 active torsions:
REMARK  status: ('A' for Active; 'I' for Inactive)
REMARK    1  A    between atoms: C_1  and  C_2
REMARK    2  A    between atoms: C_2  and  C_3
REMARK    3  A    between atoms: C_8  and  N_9
REMARK    4  A    between atoms: C_10  and  C_12
REMARK    5  A    between atoms: C_12  and  C_13
REMARK    6  A    between atoms: C_12  and  C_14
REMARK    7  A    between atoms: C_12  and  O_15
REMARK    8  A    between atoms: C_16  and  C_17
REMARK    9  A    between atoms: C_20  and  C_21
REMARK   10  A    between atoms: C_20  and  C_22
REMARK                            x       y       z     vdW  Elec       q    Type
REMARK                         _______ _______ _______ _____ _____    ______ ____
ROOT
ATOM      1  C   UNL     1       2.212   2.017  17.591  0.00  0.00    +0.000 C 
ATOM      2  C   UNL     1       3.353   2.315  18.575  0.00  0.00    +0.000 C 
ATOM      3  C   UNL     1       4.318   1.115  18.524  0.00  0.00    +0.000 C 
ATOM      4  C   UNL     1       4.113   3.628  18.212  0.00  0.00    +0.000 C 
ATOM      5  C   UNL     1       3.369   4.853  18.694  0.00  0.00    +0.000 A 
ATOM      6  C   UNL     1       2.406   4.695  19.677  0.00  0.00    +0.000 A 
ATOM      7  S   UNL     1       1.632   6.156  20.073  0.00  0.00    +0.000 S 
ATOM      8  C   UNL     1       2.642   7.047  19.041  0.00  0.00    +0.000 A 
ATOM      9  C   UNL     1       3.566   6.263  18.359  0.00  0.00    +0.000 A 
ATOM     10  C   UNL     1       2.028   3.408  20.376  0.00  0.00    +0.000 C 
ATOM     11  C   UNL     1       0.559   3.029  20.150  0.00  0.00    +0.000 C 
ATOM     12  C   UNL     1       2.288   3.518  21.887  0.00  0.00    +0.000 C 
ATOM     13  O   UNL     1       2.893   2.341  19.936  0.00  0.00    +0.000 OA
ENDROOT
BRANCH   9  14
ATOM     14  C   UNL     1       4.516   6.883  17.440  0.00  0.00    +0.000 C 
ATOM     15  N   UNL     1       5.838   6.636  17.665  0.00  0.00    +0.000 N 
ATOM     16  O   UNL     1       4.171   7.543  16.465  0.00  0.00    +0.000 OA
ATOM     17  H   UNL     1       6.120   5.825  18.195  0.00  0.00    +0.000 HD
ATOM     18  H   UNL     1       6.472   6.935  16.931  0.00  0.00    +0.000 HD
ENDBRANCH   9  14
BRANCH   8  19
ATOM     19  N   UNL     1       2.490   8.428  19.099  0.00  0.00    +0.000 N 
ATOM     20  C   UNL     1       1.556   9.039  18.271  0.00  0.00    +0.000 C 
ATOM     21  O   UNL     1       0.954   8.474  17.355  0.00  0.00    +0.000 OA
ATOM     22  H   UNL     1       3.319   8.960  19.346  0.00  0.00    +0.000 HD
BRANCH  20  23
ATOM     23  C   UNL     1       1.236  10.528  18.556  0.00  0.00    +0.000 C 
ATOM     24  C   UNL     1       0.918  10.727  20.036  0.00  0.00    +0.000 C 
ATOM     25  C   UNL     1       2.331  11.473  18.084  0.00  0.00    +0.000 C 
BRANCH  23  26
ATOM     26  O   UNL     1       0.045  10.883  17.828  0.00  0.00    +0.000 OA
ATOM     27  H   UNL     1       0.298  10.867  16.881  0.00  0.00    +0.000 HD
ENDBRANCH  23  26
ENDBRANCH  20  23
ENDBRANCH   8  19
TORSDOF 4
ENDMDL
MODEL 7
REMARK VINA RESULT:      -5.6      7.257     11.329
REMARK  Name = 
REMARK  10 active torsions:
REMARK  status: ('A' for Active; 'I' for Inactive)
REMARK    1  A    between atoms: C_1  and  C_2
REMARK    2  A    between atoms: C_2  and  C_3
REMARK    3  A    between atoms: C_8  and  N_9
REMARK    4  A    between atoms: C_10  and  C_12
REMARK    5  A    between atoms: C_12  and  C_13
REMARK    6  A    between atoms: C_12  and  C_14
REMARK    7  A    between atoms: C_12  and  O_15
REMARK    8  A    between atoms: C_16  and  C_17
REMARK    9  A    between atoms: C_20  and  C_21
REMARK   10  A    between atoms: C_20  and  C_22
REMARK                            x       y       z     vdW  Elec       q    Type
REMARK                         _______ _______ _______ _____ _____    ______ ____
ROOT
ATOM      1  C   UNL     1      -3.282   9.400  17.504  0.00  0.00    +0.000 C 
ATOM      2  C   UNL     1      -3.323  10.849  16.997  0.00  0.00    +0.000 C 
ATOM      3  C   UNL     1      -3.501  10.786  15.468  0.00  0.00    +0.000 C 
ATOM      4  C   UNL     1      -4.488  11.663  17.638  0.00  0.00    +0.000 C 
ATOM      5  C   UNL     1      -4.129  12.151  19.025  0.00  0.00    +0.000 A 
ATOM      6  C   UNL     1      -2.791  12.190  19.382  0.00  0.00    +0.000 A 
ATOM      7  S   UNL     1      -2.560  12.718  20.983  0.00  0.00    +0.000 S 
ATOM      8  C   UNL     1      -4.217  13.022  21.191  0.00  0.00    +0.000 A 
ATOM      9  C   UNL     1      -4.981  12.712  20.072  0.00  0.00    +0.000 A 
ATOM     10  C   UNL     1      -1.608  11.831  18.512  0.00  0.00    +0.000 C 
ATOM     11  C   UNL     1      -0.792  10.666  19.085  0.00  0.00    +0.000 C 
ATOM     12  C   UNL     1      -0.685  13.045  18.327  0.00  0.00    +0.000 C 
ATOM     13  O   UNL     1      -2.062  11.515  17.179  0.00  0.00    +0.000 OA
ENDROOT
BRANCH   9  14
ATOM     14  C   UNL     1      -6.424  12.929  20.089  0.00  0.00    +0.000 C 
ATOM     15  N   UNL     1      -7.213  11.822  19.977  0.00  0.00    +0.000 N 
ATOM     16  O   UNL     1      -6.934  14.031  20.261  0.00  0.00    +0.000 OA
ATOM     17  H   UNL     1      -6.847  10.912  20.213  0.00  0.00    +0.000 HD
ATOM     18  H   UNL     1      -8.201  11.967  20.152  0.00  0.00    +0.000 HD
ENDBRANCH   9  14
BRANCH   8  19
ATOM     19  N   UNL     1      -4.566  13.636  22.389  0.00  0.00    +0.000 N 
ATOM     20  C   UNL     1      -4.589  15.024  22.454  0.00  0.00    +0.000 C 
ATOM     21  O   UNL     1      -4.162  15.775  21.574  0.00  0.00    +0.000 OA
ATOM     22  H   UNL     1      -4.331  13.129  23.237  0.00  0.00    +0.000 HD
BRANCH  20  23
ATOM     23  C   UNL     1      -5.235  15.655  23.714  0.00  0.00    +0.000 C 
ATOM     24  C   UNL     1      -5.034  17.167  23.709  0.00  0.00    +0.000 C 
ATOM     25  C   UNL     1      -6.701  15.281  23.881  0.00  0.00    +0.000 C 
BRANCH  23  26
ATOM     26  O   UNL     1      -4.547  15.152  24.875  0.00  0.00    +0.000 OA
ATOM     27  H   UNL     1      -5.240  14.748  25.441  0.00  0.00    +0.000 HD
ENDBRANCH  23  26
ENDBRANCH  20  23
ENDBRANCH   8  19
TORSDOF 4
ENDMDL
MODEL 8
REMARK VINA RESULT:      -5.5      5.886      8.448
REMARK  Name = 
REMARK  10 active torsions:
REMARK  status: ('A' for Active; 'I' for Inactive)
REMARK    1  A    between atoms: C_1  and  C_2
REMARK    2  A    between atoms: C_2  and  C_3
REMARK    3  A    between atoms: C_8  and  N_9
REMARK    4  A    between atoms: C_10  and  C_12
REMARK    5  A    between atoms: C_12  and  C_13
REMARK    6  A    between atoms: C_12  and  C_14
REMARK    7  A    between atoms: C_12  and  O_15
REMARK    8  A    between atoms: C_16  and  C_17
REMARK    9  A    between atoms: C_20  and  C_21
REMARK   10  A    between atoms: C_20  and  C_22
REMARK                            x       y       z     vdW  Elec       q    Type
REMARK                         _______ _______ _______ _____ _____    ______ ____
ROOT
ATOM      1  C   UNL     1       2.901  15.464  22.177  0.00  0.00    +0.000 C 
ATOM      2  C   UNL     1       3.482  15.493  20.755  0.00  0.00    +0.000 C 
ATOM      3  C   UNL     1       4.994  15.758  20.891  0.00  0.00    +0.000 C 
ATOM      4  C   UNL     1       3.241  14.154  19.995  0.00  0.00    +0.000 C 
ATOM      5  C   UNL     1       1.840  14.080  19.428  0.00  0.00    +0.000 A 
ATOM      6  C   UNL     1       1.125  15.257  19.286  0.00  0.00    +0.000 A 
ATOM      7  S   UNL     1      -0.443  14.998  18.679  0.00  0.00    +0.000 S 
ATOM      8  C   UNL     1      -0.162  13.337  18.477  0.00  0.00    +0.000 A 
ATOM      9  C   UNL     1       1.107  12.938  18.882  0.00  0.00    +0.000 A 
ATOM     10  C   UNL     1       1.607  16.655  19.601  0.00  0.00    +0.000 C 
ATOM     11  C   UNL     1       0.762  17.336  20.685  0.00  0.00    +0.000 C 
ATOM     12  C   UNL     1       1.595  17.529  18.337  0.00  0.00    +0.000 C 
ATOM     13  O   UNL     1       2.993  16.614  20.000  0.00  0.00    +0.000 OA
ENDROOT
BRANCH   9  14
ATOM     14  C   UNL     1       1.508  11.539  18.761  0.00  0.00    +0.000 C 
ATOM     15  N   UNL     1       2.324  11.223  17.715  0.00  0.00    +0.000 N 
ATOM     16  O   UNL     1       1.199  10.681  19.581  0.00  0.00    +0.000 OA
ATOM     17  H   UNL     1       2.882  11.938  17.272  0.00  0.00    +0.000 HD
ATOM     18  H   UNL     1       2.723  10.291  17.736  0.00  0.00    +0.000 HD
ENDBRANCH   9  14
BRANCH   8  19
ATOM     19  N   UNL     1      -1.176  12.631  17.840  0.00  0.00    +0.000 N 
ATOM     20  C   UNL     1      -2.096  11.929  18.610  0.00  0.00    +0.000 C 
ATOM     21  O   UNL     1      -1.994  11.739  19.825  0.00  0.00    +0.000 OA
ATOM     22  H   UNL     1      -0.956  12.264  16.920  0.00  0.00    +0.000 HD
BRANCH  20  23
ATOM     23  C   UNL     1      -3.349  11.384  17.880  0.00  0.00    +0.000 C 
ATOM     24  C   UNL     1      -3.235   9.874  17.690  0.00  0.00    +0.000 C 
ATOM     25  C   UNL     1      -4.651  11.768  18.568  0.00  0.00    +0.000 C 
BRANCH  23  26
ATOM     26  O   UNL     1      -3.393  11.963  16.563  0.00  0.00    +0.000 OA
ATOM     27  H   UNL     1      -4.314  11.838  16.248  0.00  0.00    +0.000 HD
ENDBRANCH  23  26
ENDBRANCH  20  23
ENDBRANCH   8  19
TORSDOF 4
ENDMDL
MODEL 9
REMARK VINA RESULT:      -5.5      7.074      8.602
REMARK  Name = 
REMARK  10 active torsions:
REMARK  status: ('A' for Active; 'I' for Inactive)
REMARK    1  A    between atoms: C_1  and  C_2
REMARK    2  A    between atoms: C_2  and  C_3
REMARK    3  A    between atoms: C_8  and  N_9
REMARK    4  A    between atoms: C_10  and  C_12
REMARK    5  A    between atoms: C_12  and  C_13
REMARK    6  A    between atoms: C_12  and  C_14
REMARK    7  A    between atoms: C_12  and  O_15
REMARK    8  A    between atoms: C_16  and  C_17
REMARK    9  A    between atoms: C_20  and  C_21
REMARK   10  A    between atoms: C_20  and  C_22
REMARK                            x       y       z     vdW  Elec       q    Type
REMARK                         _______ _______ _______ _____ _____    ______ ____
ROOT
ATOM      1  C   UNL     1      -6.479  13.625  18.990  0.00  0.00    +0.000 C 
ATOM      2  C   UNL     1      -6.114  12.317  19.707  0.00  0.00    +0.000 C 
ATOM      3  C   UNL     1      -7.370  11.424  19.683  0.00  0.00    +0.000 C 
ATOM      4  C   UNL     1      -4.924  11.581  19.019  0.00  0.00    +0.000 C 
ATOM      5  C   UNL     1      -3.593  12.180  19.420  0.00  0.00    +0.000 A 
ATOM      6  C   UNL     1      -3.540  12.959  20.564  0.00  0.00    +0.000 A 
ATOM      7  S   UNL     1      -1.988  13.591  20.851  0.00  0.00    +0.000 S 
ATOM      8  C   UNL     1      -1.329  12.746  19.535  0.00  0.00    +0.000 A 
ATOM      9  C   UNL     1      -2.265  11.989  18.839  0.00  0.00    +0.000 A 
ATOM     10  C   UNL     1      -4.681  13.258  21.511  0.00  0.00    +0.000 C 
ATOM     11  C   UNL     1      -4.991  14.757  21.599  0.00  0.00    +0.000 C 
ATOM     12  C   UNL     1      -4.366  12.730  22.920  0.00  0.00    +0.000 C 
ATOM     13  O   UNL     1      -5.856  12.527  21.105  0.00  0.00    +0.000 OA
ENDROOT
BRANCH   9  14
ATOM     14  C   UNL     1      -1.852  11.194  17.687  0.00  0.00    +0.000 C 
ATOM     15  N   UNL     1      -2.226  11.653  16.458  0.00  0.00    +0.000 N 
ATOM     16  O   UNL     1      -1.147  10.195  17.781  0.00  0.00    +0.000 OA
ATOM     17  H   UNL     1      -2.460  12.626  16.329  0.00  0.00    +0.000 HD
ATOM     18  H   UNL     1      -1.799  11.185  15.666  0.00  0.00    +0.000 HD
ENDBRANCH   9  14
BRANCH   8  19
ATOM     19  N   UNL     1       0.053  12.831  19.401  0.00  0.00    +0.000 N 
ATOM     20  C   UNL     1       0.603  13.950  18.788  0.00  0.00    +0.000 C 
ATOM     21  O   UNL     1      -0.046  14.816  18.196  0.00  0.00    +0.000 OA
ATOM     22  H   UNL     1       0.547  11.950  19.302  0.00  0.00    +0.000 HD
BRANCH  20  23
ATOM     23  C   UNL     1       2.139  14.124  18.898  0.00  0.00    +0.000 C 
ATOM     24  C   UNL     1       2.524  15.581  18.659  0.00  0.00    +0.000 C 
ATOM     25  C   UNL     1       2.704  13.599  20.210  0.00  0.00    +0.000 C 
BRANCH  23  26
ATOM     26  O   UNL     1       2.757  13.357  17.847  0.00  0.00    +0.000 OA
ATOM     27  H   UNL     1       2.953  13.997  17.131  0.00  0.00    +0.000 HD
ENDBRANCH  23  26
ENDBRANCH  20  23
ENDBRANCH   8  19
TORSDOF 4
ENDMDL
