MODEL 1
REMARK VINA RESULT:      -7.5      0.000      0.000
REMARK  Name = 
REMARK  8 active torsions:
REMARK  status: ('A' for Active; 'I' for Inactive)
REMARK    1  A    between atoms: C_1  and  C_2
REMARK    2  A    between atoms: C_2  and  N_3
REMARK    3  A    between atoms: C_2  and  C_23
REMARK    4  A    between atoms: C_4  and  C_6
REMARK    5  A    between atoms: C_6  and  S_7
REMARK    6  A    between atoms: S_7  and  C_8
REMARK    7  A    between atoms: C_11  and  S_12
REMARK    8  A    between atoms: S_12  and  N_15
REMARK                            x       y       z     vdW  Elec       q    Type
REMARK                         _______ _______ _______ _____ _____    ______ ____
ROOT
ATOM      1  S   UNL     1       0.830  10.391  19.962  0.00  0.00    +0.000 S 
ENDROOT
BRANCH   1   2
ATOM      2  C   UNL     1       1.577   8.858  19.400  0.00  0.00    +0.000 A 
ATOM      3  C   UNL     1       1.651   7.788  20.291  0.00  0.00    +0.000 A 
ATOM      4  C   UNL     1       2.314   6.613  19.908  0.00  0.00    +0.000 A 
ATOM      5  C   UNL     1       2.883   6.534  18.637  0.00  0.00    +0.000 A 
ATOM      6  C   UNL     1       2.764   7.641  17.813  0.00  0.00    +0.000 A 
ATOM      7  N   UNL     1       2.107   8.788  18.157  0.00  0.00    +0.000 NA
BRANCH   5   8
ATOM      8  S   UNL     1       4.035   5.246  18.225  0.00  0.00    +0.000 S 
ATOM      9  O   UNL     1       4.532   4.727  19.486  0.00  0.00    +0.000 OA
ATOM     10  O   UNL     1       3.349   4.374  17.297  0.00  0.00    +0.000 OA
BRANCH   8  11
ATOM     11  N   UNL     1       5.340   5.919  17.413  0.00  0.00    +0.000 NA
ATOM     12  C   UNL     1       5.482   5.784  15.942  0.00  0.00    +0.000 C 
ATOM     13  C   UNL     1       6.380   4.590  15.614  0.00  0.00    +0.000 C 
ATOM     14  O   UNL     1       7.655   4.689  16.271  0.00  0.00    +0.000 OA
ATOM     15  C   UNL     1       7.518   4.816  17.696  0.00  0.00    +0.000 C 
ATOM     16  C   UNL     1       6.666   6.030  18.066  0.00  0.00    +0.000 C 
ENDBRANCH   8  11
ENDBRANCH   5   8
ENDBRANCH   1   2
BRANCH   1  17
ATOM     17  C   UNL     1       0.746  10.110  21.758  0.00  0.00    +0.000 C 
BRANCH  17  19
ATOM     18  N   UNL     1      -1.150  11.709  21.628  0.00  0.00    +0.000 N 
ATOM     19  C   UNL     1      -0.483  10.763  22.391  0.00  0.00    +0.000 C 
ATOM     20  O   UNL     1      -0.907  10.390  23.481  0.00  0.00    +0.000 OA
ATOM     21  H   UNL     1      -0.703  12.057  20.789  0.00  0.00    +0.000 HD
BRANCH  18  23
ATOM     22  C   UNL     1      -3.203  12.902  20.930  0.00  0.00    +0.000 C 
ATOM     23  C   UNL     1      -2.395  12.312  22.097  0.00  0.00    +0.000 C 
BRANCH  23  24
ATOM     24  C   UNL     1      -2.172  13.384  23.160  0.00  0.00    +0.000 A 
ATOM     25  C   UNL     1      -1.110  14.304  23.015  0.00  0.00    +0.000 A 
ATOM     26  C   UNL     1      -0.967  15.382  23.892  0.00  0.00    +0.000 A 
ATOM     27  C   UNL     1      -1.869  15.553  24.937  0.00  0.00    +0.000 A 
ATOM     28 CL   UNL     1      -1.720  16.905  25.990  0.00  0.00    +0.000 Cl
ATOM     29  C   UNL     1      -2.902  14.642  25.125  0.00  0.00    +0.000 A 
ATOM     30  C   UNL     1      -3.052  13.564  24.242  0.00  0.00    +0.000 A 
ATOM     31 CL   UNL     1      -4.387  12.507  24.546  0.00  0.00    +0.000 Cl
ENDBRANCH  23  24
ENDBRANCH  18  23
ENDBRANCH  17  19
ENDBRANCH   1  17
TORSDOF 7
ENDMDL
MODEL 2
REMARK VINA RESULT:      -7.4      3.807      4.515
REMARK  Name = 
REMARK  8 active torsions:
REMARK  status: ('A' for Active; 'I' for Inactive)
REMARK    1  A    between atoms: C_1  and  C_2
REMARK    2  A    between atoms: C_2  and  N_3
REMARK    3  A    between atoms: C_2  and  C_23
REMARK    4  A    between atoms: C_4  and  C_6
REMARK    5  A    between atoms: C_6  and  S_7
REMARK    6  A    between atoms: S_7  and  C_8
REMARK    7  A    between atoms: C_11  and  S_12
REMARK    8  A    between atoms: S_12  and  N_15
REMARK                            x       y       z     vdW  Elec       q    Type
REMARK                         _______ _______ _______ _____ _____    ______ ____
ROOT
ATOM      1  S   UNL     1       0.825   8.661  21.343  0.00  0.00    +0.000 S 
ENDROOT
BRANCH   1   2
ATOM      2  C   UNL     1       1.641   7.392  20.369  0.00  0.00    +0.000 A 
ATOM      3  C   UNL     1       1.678   6.091  20.868  0.00  0.00    +0.000 A 
ATOM      4  C   UNL     1       2.390   5.103  20.172  0.00  0.00    +0.000 A 
ATOM      5  C   UNL     1       3.047   5.440  18.988  0.00  0.00    +0.000 A 
ATOM      6  C   UNL     1       2.960   6.756  18.562  0.00  0.00    +0.000 A 
ATOM      7  N   UNL     1       2.256   7.730  19.212  0.00  0.00    +0.000 NA
BRANCH   5   8
ATOM      8  S   UNL     1       4.251   4.355  18.263  0.00  0.00    +0.000 S 
ATOM      9  O   UNL     1       4.929   3.705  19.370  0.00  0.00    +0.000 OA
ATOM     10  O   UNL     1       3.543   3.568  17.278  0.00  0.00    +0.000 OA
BRANCH   8  11
ATOM     11  N   UNL     1       5.395   5.273  17.448  0.00  0.00    +0.000 NA
ATOM     12  C   UNL     1       5.513   5.216  15.970  0.00  0.00    +0.000 C 
ATOM     13  C   UNL     1       6.595   4.209  15.575  0.00  0.00    +0.000 C 
ATOM     14  O   UNL     1       7.853   4.507  16.205  0.00  0.00    +0.000 OA
ATOM     15  C   UNL     1       7.739   4.559  17.637  0.00  0.00    +0.000 C 
ATOM     16  C   UNL     1       6.700   5.592  18.073  0.00  0.00    +0.000 C 
ENDBRANCH   8  11
ENDBRANCH   5   8
ENDBRANCH   1   2
BRANCH   1  17
ATOM     17  C   UNL     1       0.343   9.848  20.050  0.00  0.00    +0.000 C 
BRANCH  17  19
ATOM     18  N   UNL     1       0.718  12.218  19.409  0.00  0.00    +0.000 N 
ATOM     19  C   UNL     1       0.666  11.291  20.438  0.00  0.00    +0.000 C 
ATOM     20  O   UNL     1       0.774  11.620  21.616  0.00  0.00    +0.000 OA
ATOM     21  H   UNL     1       0.729  11.881  18.454  0.00  0.00    +0.000 HD
BRANCH  18  23
ATOM     22  C   UNL     1      -0.012  14.508  18.817  0.00  0.00    +0.000 C 
ATOM     23  C   UNL     1       0.912  13.639  19.686  0.00  0.00    +0.000 C 
BRANCH  23  24
ATOM     24  C   UNL     1       2.359  14.088  19.502  0.00  0.00    +0.000 A 
ATOM     25  C   UNL     1       2.993  13.913  18.251  0.00  0.00    +0.000 A 
ATOM     26  C   UNL     1       4.263  14.441  18.009  0.00  0.00    +0.000 A 
ATOM     27  C   UNL     1       4.930  15.138  19.011  0.00  0.00    +0.000 A 
ATOM     28 CL   UNL     1       6.474  15.827  18.698  0.00  0.00    +0.000 Cl
ATOM     29  C   UNL     1       4.345  15.293  20.262  0.00  0.00    +0.000 A 
ATOM     30  C   UNL     1       3.068  14.771  20.506  0.00  0.00    +0.000 A 
ATOM     31 CL   UNL     1       2.418  15.045  22.086  0.00  0.00    +0.000 Cl
ENDBRANCH  23  24
ENDBRANCH  18  23
ENDBRANCH  17  19
ENDBRANCH   1  17
TORSDOF 7
ENDMDL
MODEL 3
REMARK VINA RESULT:      -7.3      0.741      1.078
REMARK  Name = 
REMARK  8 active torsions:
REMARK  status: ('A' for Active; 'I' for Inactive)
REMARK    1  A    between atoms: C_1  and  C_2
REMARK    2  A    between atoms: C_2  and  N_3
REMARK    3  A    between atoms: C_2  and  C_23
REMARK    4  A    between atoms: C_4  and  C_6
REMARK    5  A    between atoms: C_6  and  S_7
REMARK    6  A    between atoms: S_7  and  C_8
REMARK    7  A    between atoms: C_11  and  S_12
REMARK    8  A    between atoms: S_12  and  N_15
REMARK                            x       y       z     vdW  Elec       q    Type
REMARK                         _______ _______ _______ _____ _____    ______ ____
ROOT
ATOM      1  S   UNL     1       0.302  10.298  19.829  0.00  0.00    +0.000 S 
ENDROOT
BRANCH   1   2
ATOM      2  C   UNL     1       1.428   8.983  19.353  0.00  0.00    +0.000 A 
ATOM      3  C   UNL     1       1.978   9.009  18.071  0.00  0.00    +0.000 A 
ATOM      4  C   UNL     1       2.784   7.944  17.643  0.00  0.00    +0.000 A 
ATOM      5  C   UNL     1       3.026   6.879  18.511  0.00  0.00    +0.000 A 
ATOM      6  C   UNL     1       2.443   6.932  19.766  0.00  0.00    +0.000 A 
ATOM      7  N   UNL     1       1.671   7.966  20.212  0.00  0.00    +0.000 NA
BRANCH   5   8
ATOM      8  S   UNL     1       3.718   5.352  17.921  0.00  0.00    +0.000 S 
ATOM      9  O   UNL     1       4.531   4.830  19.004  0.00  0.00    +0.000 OA
ATOM     10  O   UNL     1       2.609   4.581  17.404  0.00  0.00    +0.000 OA
BRANCH   8  11
ATOM     11  N   UNL     1       4.747   5.678  16.637  0.00  0.00    +0.000 NA
ATOM     12  C   UNL     1       5.206   4.599  15.727  0.00  0.00    +0.000 C 
ATOM     13  C   UNL     1       6.566   4.074  16.191  0.00  0.00    +0.000 C 
ATOM     14  O   UNL     1       7.533   5.132  16.302  0.00  0.00    +0.000 OA
ATOM     15  C   UNL     1       7.091   6.175  17.186  0.00  0.00    +0.000 C 
ATOM     16  C   UNL     1       5.755   6.761  16.727  0.00  0.00    +0.000 C 
ENDBRANCH   8  11
ENDBRANCH   5   8
ENDBRANCH   1   2
BRANCH   1  17
ATOM     17  C   UNL     1       0.565  10.358  21.629  0.00  0.00    +0.000 C 
BRANCH  17  19
ATOM     18  N   UNL     1      -1.438  11.826  21.664  0.00  0.00    +0.000 N 
ATOM     19  C   UNL     1      -0.636  10.944  22.371  0.00  0.00    +0.000 C 
ATOM     20  O   UNL     1      -0.924  10.569  23.505  0.00  0.00    +0.000 OA
ATOM     21  H   UNL     1      -1.101  12.184  20.779  0.00  0.00    +0.000 HD
BRANCH  18  23
ATOM     22  C   UNL     1      -3.634  12.849  21.156  0.00  0.00    +0.000 C 
ATOM     23  C   UNL     1      -2.668  12.356  22.246  0.00  0.00    +0.000 C 
BRANCH  23  24
ATOM     24  C   UNL     1      -2.416  13.477  23.251  0.00  0.00    +0.000 A 
ATOM     25  C   UNL     1      -1.411  14.436  22.992  0.00  0.00    +0.000 A 
ATOM     26  C   UNL     1      -1.251  15.551  23.818  0.00  0.00    +0.000 A 
ATOM     27  C   UNL     1      -2.079  15.723  24.923  0.00  0.00    +0.000 A 
ATOM     28 CL   UNL     1      -1.913  17.119  25.913  0.00  0.00    +0.000 Cl
ATOM     29  C   UNL     1      -3.052  14.776  25.222  0.00  0.00    +0.000 A 
ATOM     30  C   UNL     1      -3.219  13.660  24.391  0.00  0.00    +0.000 A 
ATOM     31 CL   UNL     1      -4.476  12.559  24.834  0.00  0.00    +0.000 Cl
ENDBRANCH  23  24
ENDBRANCH  18  23
ENDBRANCH  17  19
ENDBRANCH   1  17
TORSDOF 7
ENDMDL
MODEL 4
REMARK VINA RESULT:      -7.3      1.790      2.436
REMARK  Name = 
REMARK  8 active torsions:
REMARK  status: ('A' for Active; 'I' for Inactive)
REMARK    1  A    between atoms: C_1  and  C_2
REMARK    2  A    between atoms: C_2  and  N_3
REMARK    3  A    between atoms: C_2  and  C_23
REMARK    4  A    between atoms: C_4  and  C_6
REMARK    5  A    between atoms: C_6  and  S_7
REMARK    6  A    between atoms: S_7  and  C_8
REMARK    7  A    between atoms: C_11  and  S_12
REMARK    8  A    between atoms: S_12  and  N_15
REMARK                            x       y       z     vdW  Elec       q    Type
REMARK                         _______ _______ _______ _____ _____    ______ ____
ROOT
ATOM      1  S   UNL     1       0.466  11.104  19.180  0.00  0.00    +0.000 S 
ENDROOT
BRANCH   1   2
ATOM      2  C   UNL     1       1.273   9.525  18.896  0.00  0.00    +0.000 A 
ATOM      3  C   UNL     1       1.378   8.630  19.961  0.00  0.00    +0.000 A 
ATOM      4  C   UNL     1       2.087   7.432  19.789  0.00  0.00    +0.000 A 
ATOM      5  C   UNL     1       2.670   7.154  18.553  0.00  0.00    +0.000 A 
ATOM      6  C   UNL     1       2.518   8.096  17.549  0.00  0.00    +0.000 A 
ATOM      7  N   UNL     1       1.816   9.260  17.686  0.00  0.00    +0.000 NA
BRANCH   5   8
ATOM      8  S   UNL     1       3.872   5.858  18.374  0.00  0.00    +0.000 S 
ATOM      9  O   UNL     1       4.878   6.362  17.457  0.00  0.00    +0.000 OA
ATOM     10  O   UNL     1       4.240   5.463  19.716  0.00  0.00    +0.000 OA
BRANCH   8  11
ATOM     11  N   UNL     1       3.144   4.536  17.641  0.00  0.00    +0.000 NA
ATOM     12  C   UNL     1       1.677   4.325  17.719  0.00  0.00    +0.000 C 
ATOM     13  C   UNL     1       1.350   3.383  18.879  0.00  0.00    +0.000 C 
ATOM     14  O   UNL     1       2.067   2.141  18.772  0.00  0.00    +0.000 OA
ATOM     15  C   UNL     1       3.488   2.345  18.700  0.00  0.00    +0.000 C 
ATOM     16  C   UNL     1       3.860   3.244  17.520  0.00  0.00    +0.000 C 
ENDBRANCH   8  11
ENDBRANCH   5   8
ENDBRANCH   1   2
BRANCH   1  17
ATOM     17  C   UNL     1       0.979  11.464  20.889  0.00  0.00    +0.000 C 
BRANCH  17  19
ATOM     18  N   UNL     1      -1.263  12.428  21.349  0.00  0.00    +0.000 N 
ATOM     19  C   UNL     1      -0.214  11.657  21.825  0.00  0.00    +0.000 C 
ATOM     20  O   UNL     1      -0.273  11.073  22.904  0.00  0.00    +0.000 OA
ATOM     21  H   UNL     1      -1.121  12.972  20.507  0.00  0.00    +0.000 HD
BRANCH  18  23
ATOM     22  C   UNL     1      -3.716  12.720  21.200  0.00  0.00    +0.000 C 
ATOM     23  C   UNL     1      -2.493  12.584  22.121  0.00  0.00    +0.000 C 
BRANCH  23  24
ATOM     24  C   UNL     1      -2.444  13.766  23.085  0.00  0.00    +0.000 A 
ATOM     25  C   UNL     1      -1.645  14.889  22.775  0.00  0.00    +0.000 A 
ATOM     26  C   UNL     1      -1.689  16.042  23.563  0.00  0.00    +0.000 A 
ATOM     27  C   UNL     1      -2.518  16.090  24.680  0.00  0.00    +0.000 A 
ATOM     28 CL   UNL     1      -2.607  17.526  25.623  0.00  0.00    +0.000 Cl
ATOM     29  C   UNL     1      -3.287  14.986  25.028  0.00  0.00    +0.000 A 
ATOM     30  C   UNL     1      -3.250  13.831  24.236  0.00  0.00    +0.000 A 
ATOM     31 CL   UNL     1      -4.267  12.526  24.739  0.00  0.00    +0.000 Cl
ENDBRANCH  23  24
ENDBRANCH  18  23
ENDBRANCH  17  19
ENDBRANCH   1  17
TORSDOF 7
ENDMDL
MODEL 5
REMARK VINA RESULT:      -7.2      4.098      5.125
REMARK  Name = 
REMARK  8 active torsions:
REMARK  status: ('A' for Active; 'I' for Inactive)
REMARK    1  A    between atoms: C_1  and  C_2
REMARK    2  A    between atoms: C_2  and  N_3
REMARK    3  A    between atoms: C_2  and  C_23
REMARK    4  A    between atoms: C_4  and  C_6
REMARK    5  A    between atoms: C_6  and  S_7
REMARK    6  A    between atoms: S_7  and  C_8
REMARK    7  A    between atoms: C_11  and  S_12
REMARK    8  A    between atoms: S_12  and  N_15
REMARK                            x       y       z     vdW  Elec       q    Type
REMARK                         _______ _______ _______ _____ _____    ______ ____
ROOT
ATOM      1  S   UNL     1       1.278   9.345  18.349  0.00  0.00    +0.000 S 
ENDROOT
BRANCH   1   2
ATOM      2  C   UNL     1       2.442   7.981  18.445  0.00  0.00    +0.000 A 
ATOM      3  C   UNL     1       3.371   7.825  17.417  0.00  0.00    +0.000 A 
ATOM      4  C   UNL     1       4.228   6.714  17.421  0.00  0.00    +0.000 A 
ATOM      5  C   UNL     1       4.138   5.786  18.459  0.00  0.00    +0.000 A 
ATOM      6  C   UNL     1       3.188   6.016  19.441  0.00  0.00    +0.000 A 
ATOM      7  N   UNL     1       2.357   7.100  19.469  0.00  0.00    +0.000 NA
BRANCH   5   8
ATOM      8  S   UNL     1       4.917   4.194  18.339  0.00  0.00    +0.000 S 
ATOM      9  O   UNL     1       5.798   4.260  17.187  0.00  0.00    +0.000 OA
ATOM     10  O   UNL     1       5.452   3.908  19.651  0.00  0.00    +0.000 OA
BRANCH   8  11
ATOM     11  N   UNL     1       3.748   3.037  18.008  0.00  0.00    +0.000 NA
ATOM     12  C   UNL     1       2.646   3.311  17.051  0.00  0.00    +0.000 C 
ATOM     13  C   UNL     1       1.409   3.796  17.810  0.00  0.00    +0.000 C 
ATOM     14  O   UNL     1       1.016   2.865  18.833  0.00  0.00    +0.000 OA
ATOM     15  C   UNL     1       2.082   2.603  19.761  0.00  0.00    +0.000 C 
ATOM     16  C   UNL     1       3.322   2.068  19.045  0.00  0.00    +0.000 C 
ENDBRANCH   8  11
ENDBRANCH   5   8
ENDBRANCH   1   2
BRANCH   1  17
ATOM     17  C   UNL     1       0.913   9.627  20.110  0.00  0.00    +0.000 C 
BRANCH  17  19
ATOM     18  N   UNL     1       0.989  12.009  19.412  0.00  0.00    +0.000 N 
ATOM     19  C   UNL     1       0.880  11.114  20.464  0.00  0.00    +0.000 C 
ATOM     20  O   UNL     1       0.668  11.486  21.615  0.00  0.00    +0.000 OA
ATOM     21  H   UNL     1       1.269  11.658  18.504  0.00  0.00    +0.000 HD
BRANCH  18  23
ATOM     22  C   UNL     1      -0.205  14.060  18.707  0.00  0.00    +0.000 C 
ATOM     23  C   UNL     1       0.860  13.447  19.632  0.00  0.00    +0.000 C 
BRANCH  23  24
ATOM     24  C   UNL     1       2.179  14.196  19.459  0.00  0.00    +0.000 A 
ATOM     25  C   UNL     1       2.884  14.099  18.238  0.00  0.00    +0.000 A 
ATOM     26  C   UNL     1       4.016  14.881  17.999  0.00  0.00    +0.000 A 
ATOM     27  C   UNL     1       4.474  15.761  18.974  0.00  0.00    +0.000 A 
ATOM     28 CL   UNL     1       5.840  16.758  18.661  0.00  0.00    +0.000 Cl
ATOM     29  C   UNL     1       3.820  15.850  20.198  0.00  0.00    +0.000 A 
ATOM     30  C   UNL     1       2.680  15.071  20.439  0.00  0.00    +0.000 A 
ATOM     31 CL   UNL     1       1.925  15.279  21.981  0.00  0.00    +0.000 Cl
ENDBRANCH  23  24
ENDBRANCH  18  23
ENDBRANCH  17  19
ENDBRANCH   1  17
TORSDOF 7
ENDMDL
MODEL 6
REMARK VINA RESULT:      -7.2      7.567     11.257
REMARK  Name = 
REMARK  8 active torsions:
REMARK  status: ('A' for Active; 'I' for Inactive)
REMARK    1  A    between atoms: C_1  and  C_2
REMARK    2  A    between atoms: C_2  and  N_3
REMARK    3  A    between atoms: C_2  and  C_23
REMARK    4  A    between atoms: C_4  and  C_6
REMARK    5  A    between atoms: C_6  and  S_7
REMARK    6  A    between atoms: S_7  and  C_8
REMARK    7  A    between atoms: C_11  and  S_12
REMARK    8  A    between atoms: S_12  and  N_15
REMARK                            x       y       z     vdW  Elec       q    Type
REMARK                         _______ _______ _______ _____ _____    ______ ____
ROOT
ATOM      1  S   UNL     1       7.664   8.399  17.433  0.00  0.00    +0.000 S 
ENDROOT
BRANCH   1   2
ATOM      2  C   UNL     1       8.525   9.780  18.192  0.00  0.00    +0.000 A 
ATOM      3  C   UNL     1       9.162   9.576  19.415  0.00  0.00    +0.000 A 
ATOM      4  C   UNL     1       9.760  10.661  20.073  0.00  0.00    +0.000 A 
ATOM      5  C   UNL     1       9.711  11.927  19.487  0.00  0.00    +0.000 A 
ATOM      6  C   UNL     1       9.059  12.042  18.270  0.00  0.00    +0.000 A 
ATOM      7  N   UNL     1       8.487  10.997  17.602  0.00  0.00    +0.000 NA
BRANCH   5   8
ATOM      8  S   UNL     1      10.112  13.386  20.417  0.00  0.00    +0.000 S 
ATOM      9  O   UNL     1       9.741  13.106  21.791  0.00  0.00    +0.000 OA
ATOM     10  O   UNL     1      11.481  13.713  20.083  0.00  0.00    +0.000 OA
BRANCH   8  11
ATOM     11  N   UNL     1       9.148  14.654  19.888  0.00  0.00    +0.000 NA
ATOM     12  C   UNL     1       9.709  15.753  19.064  0.00  0.00    +0.000 C 
ATOM     13  C   UNL     1      10.101  16.927  19.963  0.00  0.00    +0.000 C 
ATOM     14  O   UNL     1       8.996  17.369  20.770  0.00  0.00    +0.000 OA
ATOM     15  C   UNL     1       8.455  16.305  21.571  0.00  0.00    +0.000 C 
ATOM     16  C   UNL     1       8.005  15.131  20.702  0.00  0.00    +0.000 C 
ENDBRANCH   8  11
ENDBRANCH   5   8
ENDBRANCH   1   2
BRANCH   1  17
ATOM     17  C   UNL     1       8.097   7.043  18.568  0.00  0.00    +0.000 C 
BRANCH  17  19
ATOM     18  N   UNL     1       6.361   5.805  17.295  0.00  0.00    +0.000 N 
ATOM     19  C   UNL     1       7.423   5.726  18.182  0.00  0.00    +0.000 C 
ATOM     20  O   UNL     1       7.870   4.649  18.568  0.00  0.00    +0.000 OA
ATOM     21  H   UNL     1       5.965   6.714  17.093  0.00  0.00    +0.000 HD
BRANCH  18  23
ATOM     22  C   UNL     1       5.518   4.678  15.259  0.00  0.00    +0.000 C 
ATOM     23  C   UNL     1       5.719   4.598  16.781  0.00  0.00    +0.000 C 
BRANCH  23  24
ATOM     24  C   UNL     1       4.385   4.299  17.459  0.00  0.00    +0.000 A 
ATOM     25  C   UNL     1       4.062   2.970  17.814  0.00  0.00    +0.000 A 
ATOM     26  C   UNL     1       2.917   2.683  18.560  0.00  0.00    +0.000 A 
ATOM     27  C   UNL     1       2.066   3.712  18.952  0.00  0.00    +0.000 A 
ATOM     28 CL   UNL     1       0.681   3.364  19.910  0.00  0.00    +0.000 Cl
ATOM     29  C   UNL     1       2.340   5.024  18.585  0.00  0.00    +0.000 A 
ATOM     30  C   UNL     1       3.493   5.315  17.842  0.00  0.00    +0.000 A 
ATOM     31 CL   UNL     1       3.757   6.982  17.464  0.00  0.00    +0.000 Cl
ENDBRANCH  23  24
ENDBRANCH  18  23
ENDBRANCH  17  19
ENDBRANCH   1  17
TORSDOF 7
ENDMDL
MODEL 7
REMARK VINA RESULT:      -7.2      3.672      4.226
REMARK  Name = 
REMARK  8 active torsions:
REMARK  status: ('A' for Active; 'I' for Inactive)
REMARK    1  A    between atoms: C_1  and  C_2
REMARK    2  A    between atoms: C_2  and  N_3
REMARK    3  A    between atoms: C_2  and  C_23
REMARK    4  A    between atoms: C_4  and  C_6
REMARK    5  A    between atoms: C_6  and  S_7
REMARK    6  A    between atoms: S_7  and  C_8
REMARK    7  A    between atoms: C_11  and  S_12
REMARK    8  A    between atoms: S_12  and  N_15
REMARK                            x       y       z     vdW  Elec       q    Type
REMARK                         _______ _______ _______ _____ _____    ______ ____
ROOT
ATOM      1  S   UNL     1       0.169   8.152  21.451  0.00  0.00    +0.000 S 
ENDROOT
BRANCH   1   2
ATOM      2  C   UNL     1       1.415   7.173  20.606  0.00  0.00    +0.000 A 
ATOM      3  C   UNL     1       2.112   7.753  19.547  0.00  0.00    +0.000 A 
ATOM      4  C   UNL     1       3.022   6.980  18.811  0.00  0.00    +0.000 A 
ATOM      5  C   UNL     1       3.217   5.642  19.156  0.00  0.00    +0.000 A 
ATOM      6  C   UNL     1       2.485   5.144  20.222  0.00  0.00    +0.000 A 
ATOM      7  N   UNL     1       1.609   5.883  20.965  0.00  0.00    +0.000 NA
BRANCH   5   8
ATOM      8  S   UNL     1       4.057   4.523  18.062  0.00  0.00    +0.000 S 
ATOM      9  O   UNL     1       4.716   3.546  18.909  0.00  0.00    +0.000 OA
ATOM     10  O   UNL     1       3.076   4.102  17.087  0.00  0.00    +0.000 OA
BRANCH   8  11
ATOM     11  N   UNL     1       5.257   5.361  17.240  0.00  0.00    +0.000 NA
ATOM     12  C   UNL     1       5.485   5.148  15.789  0.00  0.00    +0.000 C 
ATOM     13  C   UNL     1       6.595   4.114  15.585  0.00  0.00    +0.000 C 
ATOM     14  O   UNL     1       7.801   4.489  16.271  0.00  0.00    +0.000 OA
ATOM     15  C   UNL     1       7.581   4.691  17.676  0.00  0.00    +0.000 C 
ATOM     16  C   UNL     1       6.512   5.756  17.923  0.00  0.00    +0.000 C 
ENDBRANCH   8  11
ENDBRANCH   5   8
ENDBRANCH   1   2
BRANCH   1  17
ATOM     17  C   UNL     1       1.124   9.637  21.896  0.00  0.00    +0.000 C 
BRANCH  17  19
ATOM     18  N   UNL     1       0.301  10.974  19.972  0.00  0.00    +0.000 N 
ATOM     19  C   UNL     1       0.498  10.916  21.343  0.00  0.00    +0.000 C 
ATOM     20  O   UNL     1       0.101  11.803  22.095  0.00  0.00    +0.000 OA
ATOM     21  H   UNL     1       0.739  10.271  19.390  0.00  0.00    +0.000 HD
BRANCH  18  23
ATOM     22  C   UNL     1      -1.229  11.658  18.151  0.00  0.00    +0.000 C 
ATOM     23  C   UNL     1      -0.388  12.106  19.358  0.00  0.00    +0.000 C 
BRANCH  23  24
ATOM     24  C   UNL     1       0.563  13.222  18.934  0.00  0.00    +0.000 A 
ATOM     25  C   UNL     1       0.229  14.567  19.204  0.00  0.00    +0.000 A 
ATOM     26  C   UNL     1       1.139  15.597  18.958  0.00  0.00    +0.000 A 
ATOM     27  C   UNL     1       2.391  15.308  18.424  0.00  0.00    +0.000 A 
ATOM     28 CL   UNL     1       3.529  16.571  18.164  0.00  0.00    +0.000 Cl
ATOM     29  C   UNL     1       2.732  13.996  18.114  0.00  0.00    +0.000 A 
ATOM     30  C   UNL     1       1.823  12.959  18.367  0.00  0.00    +0.000 A 
ATOM     31 CL   UNL     1       2.357  11.362  17.974  0.00  0.00    +0.000 Cl
ENDBRANCH  23  24
ENDBRANCH  18  23
ENDBRANCH  17  19
ENDBRANCH   1  17
TORSDOF 7
ENDMDL
MODEL 8
REMARK VINA RESULT:      -7.1      2.358      3.525
REMARK  Name = 
REMARK  8 active torsions:
REMARK  status: ('A' for Active; 'I' for Inactive)
REMARK    1  A    between atoms: C_1  and  C_2
REMARK    2  A    between atoms: C_2  and  N_3
REMARK    3  A    between atoms: C_2  and  C_23
REMARK    4  A    between atoms: C_4  and  C_6
REMARK    5  A    between atoms: C_6  and  S_7
REMARK    6  A    between atoms: S_7  and  C_8
REMARK    7  A    between atoms: C_11  and  S_12
REMARK    8  A    between atoms: S_12  and  N_15
REMARK                            x       y       z     vdW  Elec       q    Type
REMARK                         _______ _______ _______ _____ _____    ______ ____
ROOT
ATOM      1  S   UNL     1      -0.472  10.732  18.838  0.00  0.00    +0.000 S 
ENDROOT
BRANCH   1   2
ATOM      2  C   UNL     1       0.778   9.449  18.964  0.00  0.00    +0.000 A 
ATOM      3  C   UNL     1       1.495   9.104  17.820  0.00  0.00    +0.000 A 
ATOM      4  C   UNL     1       2.409   8.041  17.870  0.00  0.00    +0.000 A 
ATOM      5  C   UNL     1       2.587   7.350  19.069  0.00  0.00    +0.000 A 
ATOM      6  C   UNL     1       1.835   7.757  20.159  0.00  0.00    +0.000 A 
ATOM      7  N   UNL     1       0.955   8.801  20.139  0.00  0.00    +0.000 NA
BRANCH   5   8
ATOM      8  S   UNL     1       3.434   5.788  19.113  0.00  0.00    +0.000 S 
ATOM      9  O   UNL     1       4.833   6.078  18.857  0.00  0.00    +0.000 OA
ATOM     10  O   UNL     1       3.034   5.148  20.347  0.00  0.00    +0.000 OA
BRANCH   8  11
ATOM     11  N   UNL     1       2.883   4.833  17.848  0.00  0.00    +0.000 NA
ATOM     12  C   UNL     1       1.476   4.363  17.797  0.00  0.00    +0.000 C 
ATOM     13  C   UNL     1       1.375   2.961  18.400  0.00  0.00    +0.000 C 
ATOM     14  O   UNL     1       2.273   2.041  17.756  0.00  0.00    +0.000 OA
ATOM     15  C   UNL     1       3.636   2.494  17.809  0.00  0.00    +0.000 C 
ATOM     16  C   UNL     1       3.787   3.874  17.170  0.00  0.00    +0.000 C 
ENDBRANCH   8  11
ENDBRANCH   5   8
ENDBRANCH   1   2
BRANCH   1  17
ATOM     17  C   UNL     1       0.418  12.165  19.523  0.00  0.00    +0.000 C 
BRANCH  17  19
ATOM     18  N   UNL     1      -1.441  12.468  21.141  0.00  0.00    +0.000 N 
ATOM     19  C   UNL     1      -0.075  12.540  20.921  0.00  0.00    +0.000 C 
ATOM     20  O   UNL     1       0.717  12.795  21.824  0.00  0.00    +0.000 OA
ATOM     21  H   UNL     1      -2.055  12.359  20.344  0.00  0.00    +0.000 HD
BRANCH  18  23
ATOM     22  C   UNL     1      -1.898  11.443  23.347  0.00  0.00    +0.000 C 
ATOM     23  C   UNL     1      -2.002  12.701  22.469  0.00  0.00    +0.000 C 
BRANCH  23  24
ATOM     24  C   UNL     1      -3.452  13.177  22.428  0.00  0.00    +0.000 A 
ATOM     25  C   UNL     1      -4.302  12.743  21.386  0.00  0.00    +0.000 A 
ATOM     26  C   UNL     1      -5.665  13.045  21.398  0.00  0.00    +0.000 A 
ATOM     27  C   UNL     1      -6.203  13.797  22.438  0.00  0.00    +0.000 A 
ATOM     28 CL   UNL     1      -7.889  14.129  22.477  0.00  0.00    +0.000 Cl
ATOM     29  C   UNL     1      -5.383  14.267  23.457  0.00  0.00    +0.000 A 
ATOM     30  C   UNL     1      -4.015  13.960  23.451  0.00  0.00    +0.000 A 
ATOM     31 CL   UNL     1      -3.090  14.569  24.779  0.00  0.00    +0.000 Cl
ENDBRANCH  23  24
ENDBRANCH  18  23
ENDBRANCH  17  19
ENDBRANCH   1  17
TORSDOF 7
ENDMDL
MODEL 9
REMARK VINA RESULT:      -7.1      7.223      8.805
REMARK  Name = 
REMARK  8 active torsions:
REMARK  status: ('A' for Active; 'I' for Inactive)
REMARK    1  A    between atoms: C_1  and  C_2
REMARK    2  A    between atoms: C_2  and  N_3
REMARK    3  A    between atoms: C_2  and  C_23
REMARK    4  A    between atoms: C_4  and  C_6
REMARK    5  A    between atoms: C_6  and  S_7
REMARK    6  A    between atoms: S_7  and  C_8
REMARK    7  A    between atoms: C_11  and  S_12
REMARK    8  A    between atoms: S_12  and  N_15
REMARK                            x       y       z     vdW  Elec       q    Type
REMARK                         _______ _______ _______ _____ _____    ______ ____
ROOT
ATOM      1  S   UNL     1       7.167   7.799  17.160  0.00  0.00    +0.000 S 
ENDROOT
BRANCH   1   2
ATOM      2  C   UNL     1       6.499   6.230  17.724  0.00  0.00    +0.000 A 
ATOM      3  C   UNL     1       5.839   5.417  16.803  0.00  0.00    +0.000 A 
ATOM      4  C   UNL     1       5.227   4.233  17.239  0.00  0.00    +0.000 A 
ATOM      5  C   UNL     1       5.293   3.887  18.589  0.00  0.00    +0.000 A 
ATOM      6  C   UNL     1       5.967   4.750  19.437  0.00  0.00    +0.000 A 
ATOM      7  N   UNL     1       6.588   5.897  19.033  0.00  0.00    +0.000 NA
BRANCH   5   8
ATOM      8  S   UNL     1       4.247   2.621  19.265  0.00  0.00    +0.000 S 
ATOM      9  O   UNL     1       4.026   1.664  18.196  0.00  0.00    +0.000 OA
ATOM     10  O   UNL     1       4.868   2.203  20.502  0.00  0.00    +0.000 OA
BRANCH   8  11
ATOM     11  N   UNL     1       2.757   3.291  19.650  0.00  0.00    +0.000 NA
ATOM     12  C   UNL     1       1.591   2.433  19.976  0.00  0.00    +0.000 C 
ATOM     13  C   UNL     1       0.742   2.213  18.722  0.00  0.00    +0.000 C 
ATOM     14  O   UNL     1       0.344   3.460  18.126  0.00  0.00    +0.000 OA
ATOM     15  C   UNL     1       1.474   4.289  17.807  0.00  0.00    +0.000 C 
ATOM     16  C   UNL     1       2.321   4.573  19.047  0.00  0.00    +0.000 C 
ENDBRANCH   8  11
ENDBRANCH   5   8
ENDBRANCH   1   2
BRANCH   1  17
ATOM     17  C   UNL     1       8.380   8.161  18.468  0.00  0.00    +0.000 C 
BRANCH  17  19
ATOM     18  N   UNL     1       9.387  10.065  19.703  0.00  0.00    +0.000 N 
ATOM     19  C   UNL     1       8.677   9.656  18.586  0.00  0.00    +0.000 C 
ATOM     20  O   UNL     1       8.381  10.433  17.681  0.00  0.00    +0.000 OA
ATOM     21  H   UNL     1       9.512   9.411  20.465  0.00  0.00    +0.000 HD
BRANCH  18  23
ATOM     22  C   UNL     1      11.346  11.562  19.930  0.00  0.00    +0.000 C 
ATOM     23  C   UNL     1       9.814  11.454  19.855  0.00  0.00    +0.000 C 
BRANCH  23  24
ATOM     24  C   UNL     1       9.193  12.137  21.070  0.00  0.00    +0.000 A 
ATOM     25  C   UNL     1       8.671  11.353  22.123  0.00  0.00    +0.000 A 
ATOM     26  C   UNL     1       8.227  11.945  23.308  0.00  0.00    +0.000 A 
ATOM     27  C   UNL     1       8.281  13.327  23.459  0.00  0.00    +0.000 A 
ATOM     28 CL   UNL     1       7.778  14.052  24.935  0.00  0.00    +0.000 Cl
ATOM     29  C   UNL     1       8.757  14.125  22.425  0.00  0.00    +0.000 A 
ATOM     30  C   UNL     1       9.209  13.533  21.237  0.00  0.00    +0.000 A 
ATOM     31 CL   UNL     1       9.809  14.612  20.026  0.00  0.00    +0.000 Cl
ENDBRANCH  23  24
ENDBRANCH  18  23
ENDBRANCH  17  19
ENDBRANCH   1  17
TORSDOF 7
ENDMDL
