MODEL 1
REMARK VINA RESULT:      -7.9      0.000      0.000
REMARK  Name = 
REMARK  10 active torsions:
REMARK  status: ('A' for Active; 'I' for Inactive)
REMARK    1  A    between atoms: C_1  and  O_2
REMARK    2  A    between atoms: O_2  and  C_3
REMARK    3  A    between atoms: C_10  and  C_11
REMARK    4  A    between atoms: C_14  and  O_15
REMARK    5  A    between atoms: O_15  and  C_16
REMARK    6  A    between atoms: C_17  and  O_18
REMARK    7  A    between atoms: O_18  and  C_19
REMARK    8  A    between atoms: C_25  and  O_26
REMARK    9  A    between atoms: O_26  and  C_27
REMARK   10  A    between atoms: C_29  and  O_30
REMARK                            x       y       z     vdW  Elec       q    Type
REMARK                         _______ _______ _______ _____ _____    ______ ____
ROOT
ATOM      1  C   UNL     1       6.554   4.768  17.956  0.00  0.00    +0.000 C 
ATOM      2  C   UNL     1       5.619   5.360  18.717  0.00  0.00    +0.000 C 
ATOM      3  C   UNL     1       4.145   5.299  18.405  0.00  0.00    +0.000 C 
ATOM      4  O   UNL     1       3.418   5.129  19.654  0.00  0.00    +0.000 OA
ATOM      5  C   UNL     1       2.641   6.251  19.785  0.00  0.00    +0.000 A 
ATOM      6  C   UNL     1       1.796   6.487  20.847  0.00  0.00    +0.000 A 
ATOM      7  C   UNL     1       1.064   7.687  20.859  0.00  0.00    +0.000 A 
ATOM      8  C   UNL     1       1.182   8.654  19.826  0.00  0.00    +0.000 A 
ATOM      9  C   UNL     1       2.060   8.374  18.761  0.00  0.00    +0.000 A 
ATOM     10  C   UNL     1       2.753   7.180  18.774  0.00  0.00    +0.000 A 
ATOM     11  C   UNL     1       3.710   6.650  17.839  0.00  0.00    +0.000 C 
ATOM     12  O   UNL     1       4.075   7.217  16.825  0.00  0.00    +0.000 OA
ATOM     13  C   UNL     1       3.772   4.203  17.406  0.00  0.00    +0.000 C 
ATOM     14  C   UNL     1       4.719   3.613  16.650  0.00  0.00    +0.000 C 
ATOM     15  C   UNL     1       6.182   3.948  16.736  0.00  0.00    +0.000 C 
ENDROOT
BRANCH   8  16
ATOM     16  C   UNL     1       0.445   9.940  19.868  0.00  0.00    +0.000 A 
ATOM     17  C   UNL     1       0.345  10.677  21.058  0.00  0.00    +0.000 A 
ATOM     18  C   UNL     1      -0.440  11.831  21.141  0.00  0.00    +0.000 A 
ATOM     19  C   UNL     1      -1.148  12.285  20.028  0.00  0.00    +0.000 A 
ATOM     20  C   UNL     1      -1.027  11.595  18.808  0.00  0.00    +0.000 A 
ATOM     21  C   UNL     1      -0.231  10.440  18.740  0.00  0.00    +0.000 A 
BRANCH  19  22
ATOM     22  O   UNL     1      -1.979  13.378  20.037  0.00  0.00    +0.000 OA
ATOM     23  C   UNL     1      -3.121  13.322  20.880  0.00  0.00    +0.000 C 
ENDBRANCH  19  22
BRANCH  20  24
ATOM     24  O   UNL     1      -1.742  12.104  17.751  0.00  0.00    +0.000 OA
ATOM     25  C   UNL     1      -2.877  11.376  17.304  0.00  0.00    +0.000 C 
ENDBRANCH  20  24
ENDBRANCH   8  16
BRANCH   1  27
ATOM     26  C   UNL     1       8.140   5.753  19.434  0.00  0.00    +0.000 C 
ATOM     27  O   UNL     1       7.874   4.831  18.381  0.00  0.00    +0.000 OA
ENDBRANCH   1  27
BRANCH  13  28
ATOM     28  O   UNL     1       2.417   3.923  17.354  0.00  0.00    +0.000 OA
ATOM     29  C   UNL     1       1.967   2.693  17.909  0.00  0.00    +0.000 C 
ENDBRANCH  13  28
BRANCH  15  30
ATOM     30  O   UNL     1       6.507   4.669  15.554  0.00  0.00    +0.000 OA
ATOM     31  H   UNL     1       5.659   4.956  15.167  0.00  0.00    +0.000 HD
ENDBRANCH  15  30
TORSDOF 6
ENDMDL
MODEL 2
REMARK VINA RESULT:      -7.8      1.250      2.043
REMARK  Name = 
REMARK  10 active torsions:
REMARK  status: ('A' for Active; 'I' for Inactive)
REMARK    1  A    between atoms: C_1  and  O_2
REMARK    2  A    between atoms: O_2  and  C_3
REMARK    3  A    between atoms: C_10  and  C_11
REMARK    4  A    between atoms: C_14  and  O_15
REMARK    5  A    between atoms: O_15  and  C_16
REMARK    6  A    between atoms: C_17  and  O_18
REMARK    7  A    between atoms: O_18  and  C_19
REMARK    8  A    between atoms: C_25  and  O_26
REMARK    9  A    between atoms: O_26  and  C_27
REMARK   10  A    between atoms: C_29  and  O_30
REMARK                            x       y       z     vdW  Elec       q    Type
REMARK                         _______ _______ _______ _____ _____    ______ ____
ROOT
ATOM      1  C   UNL     1       5.863   4.757  18.219  0.00  0.00    +0.000 C 
ATOM      2  C   UNL     1       5.021   5.505  18.951  0.00  0.00    +0.000 C 
ATOM      3  C   UNL     1       3.539   5.576  18.685  0.00  0.00    +0.000 C 
ATOM      4  O   UNL     1       2.843   5.586  19.962  0.00  0.00    +0.000 OA
ATOM      5  C   UNL     1       2.191   6.792  20.018  0.00  0.00    +0.000 A 
ATOM      6  C   UNL     1       1.414   7.202  21.079  0.00  0.00    +0.000 A 
ATOM      7  C   UNL     1       0.811   8.470  21.008  0.00  0.00    +0.000 A 
ATOM      8  C   UNL     1       0.992   9.332  19.895  0.00  0.00    +0.000 A 
ATOM      9  C   UNL     1       1.798   8.874  18.834  0.00  0.00    +0.000 A 
ATOM     10  C   UNL     1       2.363   7.618  18.930  0.00  0.00    +0.000 A 
ATOM     11  C   UNL     1       3.227   6.915  18.018  0.00  0.00    +0.000 C 
ATOM     12  O   UNL     1       3.612   7.356  16.950  0.00  0.00    +0.000 OA
ATOM     13  C   UNL     1       3.019   4.449  17.793  0.00  0.00    +0.000 C 
ATOM     14  C   UNL     1       3.872   3.701  17.064  0.00  0.00    +0.000 C 
ATOM     15  C   UNL     1       5.364   3.884  17.083  0.00  0.00    +0.000 C 
ENDROOT
BRANCH   8  16
ATOM     16  C   UNL     1       0.394  10.687  19.847  0.00  0.00    +0.000 A 
ATOM     17  C   UNL     1      -0.084  11.224  18.641  0.00  0.00    +0.000 A 
ATOM     18  C   UNL     1      -0.545  12.541  18.557  0.00  0.00    +0.000 A 
ATOM     19  C   UNL     1      -0.547  13.362  19.685  0.00  0.00    +0.000 A 
ATOM     20  C   UNL     1      -0.121  12.835  20.918  0.00  0.00    +0.000 A 
ATOM     21  C   UNL     1       0.336  11.510  20.987  0.00  0.00    +0.000 A 
BRANCH  19  22
ATOM     22  O   UNL     1      -0.935  14.678  19.679  0.00  0.00    +0.000 OA
ATOM     23  C   UNL     1      -0.169  15.581  18.894  0.00  0.00    +0.000 C 
ENDBRANCH  19  22
BRANCH  20  24
ATOM     24  O   UNL     1      -0.160  13.696  21.989  0.00  0.00    +0.000 OA
ATOM     25  C   UNL     1      -1.066  13.405  23.043  0.00  0.00    +0.000 C 
ENDBRANCH  20  24
ENDBRANCH   8  16
BRANCH   1  27
ATOM     26  C   UNL     1       7.765   5.957  18.998  0.00  0.00    +0.000 C 
ATOM     27  O   UNL     1       7.196   4.713  18.602  0.00  0.00    +0.000 OA
ENDBRANCH   1  27
BRANCH  13  28
ATOM     28  O   UNL     1       1.641   4.310  17.800  0.00  0.00    +0.000 OA
ATOM     29  C   UNL     1       1.090   3.142  18.396  0.00  0.00    +0.000 C 
ENDBRANCH  13  28
BRANCH  15  30
ATOM     30  O   UNL     1       5.721   4.468  15.836  0.00  0.00    +0.000 OA
ATOM     31  H   UNL     1       6.418   5.122  16.030  0.00  0.00    +0.000 HD
ENDBRANCH  15  30
TORSDOF 6
ENDMDL
MODEL 3
REMARK VINA RESULT:      -7.8      2.426      9.182
REMARK  Name = 
REMARK  10 active torsions:
REMARK  status: ('A' for Active; 'I' for Inactive)
REMARK    1  A    between atoms: C_1  and  O_2
REMARK    2  A    between atoms: O_2  and  C_3
REMARK    3  A    between atoms: C_10  and  C_11
REMARK    4  A    between atoms: C_14  and  O_15
REMARK    5  A    between atoms: O_15  and  C_16
REMARK    6  A    between atoms: C_17  and  O_18
REMARK    7  A    between atoms: O_18  and  C_19
REMARK    8  A    between atoms: C_25  and  O_26
REMARK    9  A    between atoms: O_26  and  C_27
REMARK   10  A    between atoms: C_29  and  O_30
REMARK                            x       y       z     vdW  Elec       q    Type
REMARK                         _______ _______ _______ _____ _____    ______ ____
ROOT
ATOM      1  C   UNL     1       0.287  13.614  21.779  0.00  0.00    +0.000 C 
ATOM      2  C   UNL     1       0.898  12.711  20.994  0.00  0.00    +0.000 C 
ATOM      3  C   UNL     1       0.153  11.640  20.238  0.00  0.00    +0.000 C 
ATOM      4  O   UNL     1       0.759  11.499  18.924  0.00  0.00    +0.000 OA
ATOM      5  C   UNL     1       1.253  10.220  18.879  0.00  0.00    +0.000 A 
ATOM      6  C   UNL     1       1.915   9.684  17.797  0.00  0.00    +0.000 A 
ATOM      7  C   UNL     1       2.377   8.360  17.892  0.00  0.00    +0.000 A 
ATOM      8  C   UNL     1       2.195   7.577  19.063  0.00  0.00    +0.000 A 
ATOM      9  C   UNL     1       1.516   8.166  20.147  0.00  0.00    +0.000 A 
ATOM     10  C   UNL     1       1.062   9.464  20.015  0.00  0.00    +0.000 A 
ATOM     11  C   UNL     1       0.363  10.304  20.951  0.00  0.00    +0.000 C 
ATOM     12  O   UNL     1       0.044   9.970  22.078  0.00  0.00    +0.000 OA
ATOM     13  C   UNL     1      -1.349  11.902  20.118  0.00  0.00    +0.000 C 
ATOM     14  C   UNL     1      -1.952  12.814  20.907  0.00  0.00    +0.000 C 
ATOM     15  C   UNL     1      -1.223  13.646  21.925  0.00  0.00    +0.000 C 
ENDROOT
BRANCH   8  16
ATOM     16  C   UNL     1       2.727   6.198  19.176  0.00  0.00    +0.000 A 
ATOM     17  C   UNL     1       3.445   5.613  18.121  0.00  0.00    +0.000 A 
ATOM     18  C   UNL     1       3.855   4.277  18.168  0.00  0.00    +0.000 A 
ATOM     19  C   UNL     1       3.560   3.486  19.279  0.00  0.00    +0.000 A 
ATOM     20  C   UNL     1       2.886   4.060  20.371  0.00  0.00    +0.000 A 
ATOM     21  C   UNL     1       2.485   5.404  20.311  0.00  0.00    +0.000 A 
BRANCH  19  22
ATOM     22  O   UNL     1       3.881   2.155  19.383  0.00  0.00    +0.000 OA
ATOM     23  C   UNL     1       3.690   1.345  18.232  0.00  0.00    +0.000 C 
ENDBRANCH  19  22
BRANCH  20  24
ATOM     24  O   UNL     1       2.639   3.226  21.436  0.00  0.00    +0.000 OA
ATOM     25  C   UNL     1       1.338   2.671  21.557  0.00  0.00    +0.000 C 
ENDBRANCH  20  24
ENDBRANCH   8  16
BRANCH   1  27
ATOM     26  C   UNL     1       0.395  15.812  22.686  0.00  0.00    +0.000 C 
ATOM     27  O   UNL     1       1.068  14.599  22.368  0.00  0.00    +0.000 OA
ENDBRANCH   1  27
BRANCH  13  28
ATOM     28  O   UNL     1      -1.987  11.117  19.172  0.00  0.00    +0.000 OA
ATOM     29  C   UNL     1      -2.722  11.773  18.146  0.00  0.00    +0.000 C 
ENDBRANCH  13  28
BRANCH  15  30
ATOM     30  O   UNL     1      -1.592  13.145  23.204  0.00  0.00    +0.000 OA
ATOM     31  H   UNL     1      -1.750  12.189  23.088  0.00  0.00    +0.000 HD
ENDBRANCH  15  30
TORSDOF 6
ENDMDL
MODEL 4
REMARK VINA RESULT:      -7.8      2.070      9.172
REMARK  Name = 
REMARK  10 active torsions:
REMARK  status: ('A' for Active; 'I' for Inactive)
REMARK    1  A    between atoms: C_1  and  O_2
REMARK    2  A    between atoms: O_2  and  C_3
REMARK    3  A    between atoms: C_10  and  C_11
REMARK    4  A    between atoms: C_14  and  O_15
REMARK    5  A    between atoms: O_15  and  C_16
REMARK    6  A    between atoms: C_17  and  O_18
REMARK    7  A    between atoms: O_18  and  C_19
REMARK    8  A    between atoms: C_25  and  O_26
REMARK    9  A    between atoms: O_26  and  C_27
REMARK   10  A    between atoms: C_29  and  O_30
REMARK                            x       y       z     vdW  Elec       q    Type
REMARK                         _______ _______ _______ _____ _____    ______ ____
ROOT
ATOM      1  C   UNL     1       0.067  13.363  21.771  0.00  0.00    +0.000 C 
ATOM      2  C   UNL     1       0.755  12.493  21.013  0.00  0.00    +0.000 C 
ATOM      3  C   UNL     1       0.094  11.415  20.191  0.00  0.00    +0.000 C 
ATOM      4  O   UNL     1       0.789  11.317  18.917  0.00  0.00    +0.000 OA
ATOM      5  C   UNL     1       1.323  10.054  18.883  0.00  0.00    +0.000 A 
ATOM      6  C   UNL     1       2.070   9.559  17.838  0.00  0.00    +0.000 A 
ATOM      7  C   UNL     1       2.566   8.247  17.940  0.00  0.00    +0.000 A 
ATOM      8  C   UNL     1       2.332   7.438  19.083  0.00  0.00    +0.000 A 
ATOM      9  C   UNL     1       1.566   7.986  20.130  0.00  0.00    +0.000 A 
ATOM     10  C   UNL     1       1.082   9.272  19.991  0.00  0.00    +0.000 A 
ATOM     11  C   UNL     1       0.299  10.073  20.893  0.00  0.00    +0.000 C 
ATOM     12  O   UNL     1      -0.083   9.708  21.991  0.00  0.00    +0.000 OA
ATOM     13  C   UNL     1      -1.404  11.635  19.977  0.00  0.00    +0.000 C 
ATOM     14  C   UNL     1      -2.084  12.513  20.740  0.00  0.00    +0.000 C 
ATOM     15  C   UNL     1      -1.449  13.347  21.818  0.00  0.00    +0.000 C 
ENDROOT
BRANCH   8  16
ATOM     16  C   UNL     1       2.898   6.073  19.207  0.00  0.00    +0.000 A 
ATOM     17  C   UNL     1       2.141   5.024  19.752  0.00  0.00    +0.000 A 
ATOM     18  C   UNL     1       2.697   3.762  19.980  0.00  0.00    +0.000 A 
ATOM     19  C   UNL     1       4.032   3.510  19.663  0.00  0.00    +0.000 A 
ATOM     20  C   UNL     1       4.800   4.528  19.068  0.00  0.00    +0.000 A 
ATOM     21  C   UNL     1       4.226   5.789  18.842  0.00  0.00    +0.000 A 
BRANCH  19  22
ATOM     22  O   UNL     1       4.669   2.317  19.900  0.00  0.00    +0.000 OA
ATOM     23  C   UNL     1       4.234   1.187  19.157  0.00  0.00    +0.000 C 
ENDBRANCH  19  22
BRANCH  20  24
ATOM     24  O   UNL     1       6.103   4.207  18.772  0.00  0.00    +0.000 OA
ATOM     25  C   UNL     1       6.787   5.014  17.824  0.00  0.00    +0.000 C 
ENDBRANCH  20  24
ENDBRANCH   8  16
BRANCH   1  27
ATOM     26  C   UNL     1       1.040  15.533  21.666  0.00  0.00    +0.000 C 
ATOM     27  O   UNL     1       0.777  14.358  22.427  0.00  0.00    +0.000 OA
ENDBRANCH   1  27
BRANCH  13  28
ATOM     28  O   UNL     1      -1.954  10.850  18.978  0.00  0.00    +0.000 OA
ATOM     29  C   UNL     1      -2.544  11.506  17.861  0.00  0.00    +0.000 C 
ENDBRANCH  13  28
BRANCH  15  30
ATOM     30  O   UNL     1      -1.886  12.811  23.061  0.00  0.00    +0.000 OA
ATOM     31  H   UNL     1      -2.223  13.565  23.581  0.00  0.00    +0.000 HD
ENDBRANCH  15  30
TORSDOF 6
ENDMDL
MODEL 5
REMARK VINA RESULT:      -7.7      2.387      9.034
REMARK  Name = 
REMARK  10 active torsions:
REMARK  status: ('A' for Active; 'I' for Inactive)
REMARK    1  A    between atoms: C_1  and  O_2
REMARK    2  A    between atoms: O_2  and  C_3
REMARK    3  A    between atoms: C_10  and  C_11
REMARK    4  A    between atoms: C_14  and  O_15
REMARK    5  A    between atoms: O_15  and  C_16
REMARK    6  A    between atoms: C_17  and  O_18
REMARK    7  A    between atoms: O_18  and  C_19
REMARK    8  A    between atoms: C_25  and  O_26
REMARK    9  A    between atoms: O_26  and  C_27
REMARK   10  A    between atoms: C_29  and  O_30
REMARK                            x       y       z     vdW  Elec       q    Type
REMARK                         _______ _______ _______ _____ _____    ______ ____
ROOT
ATOM      1  C   UNL     1       0.256  13.539  21.718  0.00  0.00    +0.000 C 
ATOM      2  C   UNL     1       0.887  12.621  20.966  0.00  0.00    +0.000 C 
ATOM      3  C   UNL     1       0.162  11.524  20.228  0.00  0.00    +0.000 C 
ATOM      4  O   UNL     1       0.789  11.355  18.926  0.00  0.00    +0.000 OA
ATOM      5  C   UNL     1       1.293  10.079  18.922  0.00  0.00    +0.000 A 
ATOM      6  C   UNL     1       1.976   9.521  17.865  0.00  0.00    +0.000 A 
ATOM      7  C   UNL     1       2.448   8.203  18.000  0.00  0.00    +0.000 A 
ATOM      8  C   UNL     1       2.254   7.450  19.188  0.00  0.00    +0.000 A 
ATOM      9  C   UNL     1       1.554   8.061  20.246  0.00  0.00    +0.000 A 
ATOM     10  C   UNL     1       1.092   9.351  20.074  0.00  0.00    +0.000 A 
ATOM     11  C   UNL     1       0.372  10.209  20.978  0.00  0.00    +0.000 C 
ATOM     12  O   UNL     1       0.039   9.902  22.108  0.00  0.00    +0.000 OA
ATOM     13  C   UNL     1      -1.340  11.770  20.078  0.00  0.00    +0.000 C 
ATOM     14  C   UNL     1      -1.962  12.697  20.834  0.00  0.00    +0.000 C 
ATOM     15  C   UNL     1      -1.255  13.561  21.841  0.00  0.00    +0.000 C 
ENDROOT
BRANCH   8  16
ATOM     16  C   UNL     1       2.796   6.079  19.345  0.00  0.00    +0.000 A 
ATOM     17  C   UNL     1       4.165   5.821  19.179  0.00  0.00    +0.000 A 
ATOM     18  C   UNL     1       4.673   4.519  19.211  0.00  0.00    +0.000 A 
ATOM     19  C   UNL     1       3.822   3.432  19.416  0.00  0.00    +0.000 A 
ATOM     20  C   UNL     1       2.452   3.666  19.636  0.00  0.00    +0.000 A 
ATOM     21  C   UNL     1       1.958   4.979  19.605  0.00  0.00    +0.000 A 
BRANCH  19  22
ATOM     22  O   UNL     1       4.230   2.122  19.412  0.00  0.00    +0.000 OA
ATOM     23  C   UNL     1       4.869   1.634  20.584  0.00  0.00    +0.000 C 
ENDBRANCH  19  22
BRANCH  20  24
ATOM     24  O   UNL     1       1.675   2.552  19.842  0.00  0.00    +0.000 OA
ATOM     25  C   UNL     1       0.712   2.220  18.852  0.00  0.00    +0.000 C 
ENDBRANCH  20  24
ENDBRANCH   8  16
BRANCH   1  27
ATOM     26  C   UNL     1       2.231  14.865  21.613  0.00  0.00    +0.000 C 
ATOM     27  O   UNL     1       1.021  14.545  22.293  0.00  0.00    +0.000 OA
ENDBRANCH   1  27
BRANCH  13  28
ATOM     28  O   UNL     1      -1.957  10.956  19.144  0.00  0.00    +0.000 OA
ATOM     29  C   UNL     1      -2.645  11.579  18.065  0.00  0.00    +0.000 C 
ENDBRANCH  13  28
BRANCH  15  30
ATOM     30  O   UNL     1      -1.640  13.091  23.127  0.00  0.00    +0.000 OA
ATOM     31  H   UNL     1      -1.589  13.859  23.726  0.00  0.00    +0.000 HD
ENDBRANCH  15  30
TORSDOF 6
ENDMDL
MODEL 6
REMARK VINA RESULT:      -7.6      1.300      1.533
REMARK  Name = 
REMARK  10 active torsions:
REMARK  status: ('A' for Active; 'I' for Inactive)
REMARK    1  A    between atoms: C_1  and  O_2
REMARK    2  A    between atoms: O_2  and  C_3
REMARK    3  A    between atoms: C_10  and  C_11
REMARK    4  A    between atoms: C_14  and  O_15
REMARK    5  A    between atoms: O_15  and  C_16
REMARK    6  A    between atoms: C_17  and  O_18
REMARK    7  A    between atoms: O_18  and  C_19
REMARK    8  A    between atoms: C_25  and  O_26
REMARK    9  A    between atoms: O_26  and  C_27
REMARK   10  A    between atoms: C_29  and  O_30
REMARK                            x       y       z     vdW  Elec       q    Type
REMARK                         _______ _______ _______ _____ _____    ______ ____
ROOT
ATOM      1  C   UNL     1       5.961   4.697  18.169  0.00  0.00    +0.000 C 
ATOM      2  C   UNL     1       5.109   5.402  18.932  0.00  0.00    +0.000 C 
ATOM      3  C   UNL     1       3.631   5.489  18.649  0.00  0.00    +0.000 C 
ATOM      4  O   UNL     1       2.917   5.425  19.915  0.00  0.00    +0.000 OA
ATOM      5  C   UNL     1       2.264   6.626  20.032  0.00  0.00    +0.000 A 
ATOM      6  C   UNL     1       1.472   6.973  21.104  0.00  0.00    +0.000 A 
ATOM      7  C   UNL     1       0.870   8.244  21.100  0.00  0.00    +0.000 A 
ATOM      8  C   UNL     1       1.067   9.169  20.041  0.00  0.00    +0.000 A 
ATOM      9  C   UNL     1       1.888   8.774  18.967  0.00  0.00    +0.000 A 
ATOM     10  C   UNL     1       2.451   7.514  18.997  0.00  0.00    +0.000 A 
ATOM     11  C   UNL     1       3.328   6.865  18.058  0.00  0.00    +0.000 C 
ATOM     12  O   UNL     1       3.729   7.367  17.023  0.00  0.00    +0.000 OA
ATOM     13  C   UNL     1       3.124   4.416  17.685  0.00  0.00    +0.000 C 
ATOM     14  C   UNL     1       3.987   3.712  16.926  0.00  0.00    +0.000 C 
ATOM     15  C   UNL     1       5.479   3.893  16.977  0.00  0.00    +0.000 C 
ENDROOT
BRANCH   8  16
ATOM     16  C   UNL     1       0.469  10.526  20.064  0.00  0.00    +0.000 A 
ATOM     17  C   UNL     1      -0.658  10.805  20.852  0.00  0.00    +0.000 A 
ATOM     18  C   UNL     1      -1.300  12.046  20.797  0.00  0.00    +0.000 A 
ATOM     19  C   UNL     1      -0.826  13.050  19.952  0.00  0.00    +0.000 A 
ATOM     20  C   UNL     1       0.332  12.816  19.190  0.00  0.00    +0.000 A 
ATOM     21  C   UNL     1       0.968  11.566  19.258  0.00  0.00    +0.000 A 
BRANCH  19  22
ATOM     22  O   UNL     1      -1.425  14.276  19.802  0.00  0.00    +0.000 OA
ATOM     23  C   UNL     1      -1.375  15.168  20.907  0.00  0.00    +0.000 C 
ENDBRANCH  19  22
BRANCH  20  24
ATOM     24  O   UNL     1       0.749  13.852  18.389  0.00  0.00    +0.000 OA
ATOM     25  C   UNL     1       1.928  14.549  18.764  0.00  0.00    +0.000 C 
ENDBRANCH  20  24
ENDBRANCH   8  16
BRANCH   1  27
ATOM     26  C   UNL     1       7.829   5.827  19.118  0.00  0.00    +0.000 C 
ATOM     27  O   UNL     1       7.289   4.630  18.568  0.00  0.00    +0.000 OA
ENDBRANCH   1  27
BRANCH  13  28
ATOM     28  O   UNL     1       1.746   4.279  17.665  0.00  0.00    +0.000 OA
ATOM     29  C   UNL     1       1.177   3.155  18.327  0.00  0.00    +0.000 C 
ENDBRANCH  13  28
BRANCH  15  30
ATOM     30  O   UNL     1       5.853   4.549  15.771  0.00  0.00    +0.000 OA
ATOM     31  H   UNL     1       6.424   5.295  16.032  0.00  0.00    +0.000 HD
ENDBRANCH  15  30
TORSDOF 6
ENDMDL
MODEL 7
REMARK VINA RESULT:      -7.5      2.046      3.723
REMARK  Name = 
REMARK  10 active torsions:
REMARK  status: ('A' for Active; 'I' for Inactive)
REMARK    1  A    between atoms: C_1  and  O_2
REMARK    2  A    between atoms: O_2  and  C_3
REMARK    3  A    between atoms: C_10  and  C_11
REMARK    4  A    between atoms: C_14  and  O_15
REMARK    5  A    between atoms: O_15  and  C_16
REMARK    6  A    between atoms: C_17  and  O_18
REMARK    7  A    between atoms: O_18  and  C_19
REMARK    8  A    between atoms: C_25  and  O_26
REMARK    9  A    between atoms: O_26  and  C_27
REMARK   10  A    between atoms: C_29  and  O_30
REMARK                            x       y       z     vdW  Elec       q    Type
REMARK                         _______ _______ _______ _____ _____    ______ ____
ROOT
ATOM      1  C   UNL     1       2.932   3.200  17.899  0.00  0.00    +0.000 C 
ATOM      2  C   UNL     1       2.385   4.427  17.915  0.00  0.00    +0.000 C 
ATOM      3  C   UNL     1       3.161   5.668  18.277  0.00  0.00    +0.000 C 
ATOM      4  O   UNL     1       2.749   6.743  17.387  0.00  0.00    +0.000 OA
ATOM      5  C   UNL     1       2.183   7.696  18.196  0.00  0.00    +0.000 A 
ATOM      6  C   UNL     1       1.656   8.883  17.738  0.00  0.00    +0.000 A 
ATOM      7  C   UNL     1       1.096   9.766  18.678  0.00  0.00    +0.000 A 
ATOM      8  C   UNL     1       1.049   9.463  20.065  0.00  0.00    +0.000 A 
ATOM      9  C   UNL     1       1.596   8.236  20.488  0.00  0.00    +0.000 A 
ATOM     10  C   UNL     1       2.151   7.399  19.540  0.00  0.00    +0.000 A 
ATOM     11  C   UNL     1       2.757   6.102  19.686  0.00  0.00    +0.000 C 
ATOM     12  O   UNL     1       2.881   5.510  20.743  0.00  0.00    +0.000 OA
ATOM     13  C   UNL     1       4.678   5.481  18.236  0.00  0.00    +0.000 C 
ATOM     14  C   UNL     1       5.216   4.245  18.215  0.00  0.00    +0.000 C 
ATOM     15  C   UNL     1       4.401   2.982  18.206  0.00  0.00    +0.000 C 
ENDROOT
BRANCH   8  16
ATOM     16  C   UNL     1       0.414  10.375  21.046  0.00  0.00    +0.000 A 
ATOM     17  C   UNL     1      -0.297   9.871  22.146  0.00  0.00    +0.000 A 
ATOM     18  C   UNL     1      -0.996  10.714  23.015  0.00  0.00    +0.000 A 
ATOM     19  C   UNL     1      -0.998  12.094  22.810  0.00  0.00    +0.000 A 
ATOM     20  C   UNL     1      -0.252  12.632  21.746  0.00  0.00    +0.000 A 
ATOM     21  C   UNL     1       0.447  11.772  20.884  0.00  0.00    +0.000 A 
BRANCH  19  22
ATOM     22  O   UNL     1      -1.697  12.987  23.584  0.00  0.00    +0.000 OA
ATOM     23  C   UNL     1      -3.115  12.898  23.565  0.00  0.00    +0.000 C 
ENDBRANCH  19  22
BRANCH  20  24
ATOM     24  O   UNL     1      -0.291  13.999  21.610  0.00  0.00    +0.000 OA
ATOM     25  C   UNL     1       0.897  14.728  21.883  0.00  0.00    +0.000 C 
ENDBRANCH  20  24
ENDBRANCH   8  16
BRANCH   1  27
ATOM     26  C   UNL     1       1.088   1.768  18.365  0.00  0.00    +0.000 C 
ATOM     27  O   UNL     1       2.139   2.140  17.480  0.00  0.00    +0.000 OA
ENDBRANCH   1  27
BRANCH  13  28
ATOM     28  O   UNL     1       5.395   6.665  18.247  0.00  0.00    +0.000 OA
ATOM     29  C   UNL     1       6.437   6.824  17.291  0.00  0.00    +0.000 C 
ENDBRANCH  13  28
BRANCH  15  30
ATOM     30  O   UNL     1       4.541   2.394  19.494  0.00  0.00    +0.000 OA
ATOM     31  H   UNL     1       3.917   1.645  19.521  0.00  0.00    +0.000 HD
ENDBRANCH  15  30
TORSDOF 6
ENDMDL
MODEL 8
REMARK VINA RESULT:      -7.3      1.863      9.108
REMARK  Name = 
REMARK  10 active torsions:
REMARK  status: ('A' for Active; 'I' for Inactive)
REMARK    1  A    between atoms: C_1  and  O_2
REMARK    2  A    between atoms: O_2  and  C_3
REMARK    3  A    between atoms: C_10  and  C_11
REMARK    4  A    between atoms: C_14  and  O_15
REMARK    5  A    between atoms: O_15  and  C_16
REMARK    6  A    between atoms: C_17  and  O_18
REMARK    7  A    between atoms: O_18  and  C_19
REMARK    8  A    between atoms: C_25  and  O_26
REMARK    9  A    between atoms: O_26  and  C_27
REMARK   10  A    between atoms: C_29  and  O_30
REMARK                            x       y       z     vdW  Elec       q    Type
REMARK                         _______ _______ _______ _____ _____    ______ ____
ROOT
ATOM      1  C   UNL     1      -2.007  12.129  19.301  0.00  0.00    +0.000 C 
ATOM      2  C   UNL     1      -1.373  10.962  19.503  0.00  0.00    +0.000 C 
ATOM      3  C   UNL     1       0.068  10.872  19.937  0.00  0.00    +0.000 C 
ATOM      4  O   UNL     1       0.189   9.797  20.909  0.00  0.00    +0.000 OA
ATOM      5  C   UNL     1       1.024   8.872  20.334  0.00  0.00    +0.000 A 
ATOM      6  C   UNL     1       1.394   7.688  20.932  0.00  0.00    +0.000 A 
ATOM      7  C   UNL     1       2.249   6.826  20.224  0.00  0.00    +0.000 A 
ATOM      8  C   UNL     1       2.723   7.134  18.921  0.00  0.00    +0.000 A 
ATOM      9  C   UNL     1       2.316   8.353  18.346  0.00  0.00    +0.000 A 
ATOM     10  C   UNL     1       1.487   9.183  19.075  0.00  0.00    +0.000 A 
ATOM     11  C   UNL     1       0.915  10.458  18.734  0.00  0.00    +0.000 C 
ATOM     12  O   UNL     1       1.091  11.037  17.677  0.00  0.00    +0.000 OA
ATOM     13  C   UNL     1       0.623  12.180  20.503  0.00  0.00    +0.000 C 
ATOM     14  C   UNL     1      -0.022  13.345  20.298  0.00  0.00    +0.000 C 
ATOM     15  C   UNL     1      -1.317  13.458  19.542  0.00  0.00    +0.000 C 
ENDROOT
BRANCH   8  16
ATOM     16  C   UNL     1       3.585   6.199  18.158  0.00  0.00    +0.000 A 
ATOM     17  C   UNL     1       4.577   6.679  17.289  0.00  0.00    +0.000 A 
ATOM     18  C   UNL     1       5.320   5.815  16.479  0.00  0.00    +0.000 A 
ATOM     19  C   UNL     1       5.093   4.439  16.520  0.00  0.00    +0.000 A 
ATOM     20  C   UNL     1       4.140   3.926  17.418  0.00  0.00    +0.000 A 
ATOM     21  C   UNL     1       3.405   4.806  18.228  0.00  0.00    +0.000 A 
BRANCH  19  22
ATOM     22  O   UNL     1       5.742   3.528  15.724  0.00  0.00    +0.000 OA
ATOM     23  C   UNL     1       6.182   3.972  14.448  0.00  0.00    +0.000 C 
ENDBRANCH  19  22
BRANCH  20  24
ATOM     24  O   UNL     1       3.977   2.561  17.412  0.00  0.00    +0.000 OA
ATOM     25  C   UNL     1       2.871   2.021  18.122  0.00  0.00    +0.000 C 
ENDBRANCH  20  24
ENDBRANCH   8  16
BRANCH   1  27
ATOM     26  C   UNL     1      -3.677  11.402  17.768  0.00  0.00    +0.000 C 
ATOM     27  O   UNL     1      -3.355  12.089  18.973  0.00  0.00    +0.000 OA
ENDBRANCH   1  27
BRANCH  13  28
ATOM     28  O   UNL     1       1.816  12.037  21.192  0.00  0.00    +0.000 OA
ATOM     29  C   UNL     1       2.750  13.110  21.140  0.00  0.00    +0.000 C 
ENDBRANCH  13  28
BRANCH  15  30
ATOM     30  O   UNL     1      -1.011  14.074  18.296  0.00  0.00    +0.000 OA
ATOM     31  H   UNL     1      -1.867  14.306  17.889  0.00  0.00    +0.000 HD
ENDBRANCH  15  30
TORSDOF 6
ENDMDL
MODEL 9
REMARK VINA RESULT:      -7.2      1.946      9.364
REMARK  Name = 
REMARK  10 active torsions:
REMARK  status: ('A' for Active; 'I' for Inactive)
REMARK    1  A    between atoms: C_1  and  O_2
REMARK    2  A    between atoms: O_2  and  C_3
REMARK    3  A    between atoms: C_10  and  C_11
REMARK    4  A    between atoms: C_14  and  O_15
REMARK    5  A    between atoms: O_15  and  C_16
REMARK    6  A    between atoms: C_17  and  O_18
REMARK    7  A    between atoms: O_18  and  C_19
REMARK    8  A    between atoms: C_25  and  O_26
REMARK    9  A    between atoms: O_26  and  C_27
REMARK   10  A    between atoms: C_29  and  O_30
REMARK                            x       y       z     vdW  Elec       q    Type
REMARK                         _______ _______ _______ _____ _____    ______ ____
ROOT
ATOM      1  C   UNL     1      -0.697  13.737  22.209  0.00  0.00    +0.000 C 
ATOM      2  C   UNL     1       0.069  12.996  21.391  0.00  0.00    +0.000 C 
ATOM      3  C   UNL     1      -0.496  11.977  20.434  0.00  0.00    +0.000 C 
ATOM      4  O   UNL     1       0.247  12.058  19.186  0.00  0.00    +0.000 OA
ATOM      5  C   UNL     1       0.859  10.839  19.040  0.00  0.00    +0.000 A 
ATOM      6  C   UNL     1       1.670  10.504  17.980  0.00  0.00    +0.000 A 
ATOM      7  C   UNL     1       2.242   9.219  17.962  0.00  0.00    +0.000 A 
ATOM      8  C   UNL     1       2.018   8.278  19.002  0.00  0.00    +0.000 A 
ATOM      9  C   UNL     1       1.185   8.665  20.069  0.00  0.00    +0.000 A 
ATOM     10  C   UNL     1       0.628   9.929  20.047  0.00  0.00    +0.000 A 
ATOM     11  C   UNL     1      -0.234  10.581  20.997  0.00  0.00    +0.000 C 
ATOM     12  O   UNL     1      -0.630  10.078  22.033  0.00  0.00    +0.000 OA
ATOM     13  C   UNL     1      -1.996  12.133  20.183  0.00  0.00    +0.000 C 
ATOM     14  C   UNL     1      -2.756  12.883  21.007  0.00  0.00    +0.000 C 
ATOM     15  C   UNL     1      -2.211  13.630  22.192  0.00  0.00    +0.000 C 
ENDROOT
BRANCH   8  16
ATOM     16  C   UNL     1       2.662   6.943  19.003  0.00  0.00    +0.000 A 
ATOM     17  C   UNL     1       2.350   5.992  19.986  0.00  0.00    +0.000 A 
ATOM     18  C   UNL     1       3.030   4.773  20.068  0.00  0.00    +0.000 A 
ATOM     19  C   UNL     1       4.045   4.468  19.160  0.00  0.00    +0.000 A 
ATOM     20  C   UNL     1       4.345   5.381  18.133  0.00  0.00    +0.000 A 
ATOM     21  C   UNL     1       3.650   6.599  18.062  0.00  0.00    +0.000 A 
BRANCH  19  22
ATOM     22  O   UNL     1       4.794   3.319  19.201  0.00  0.00    +0.000 OA
ATOM     23  C   UNL     1       4.189   2.164  19.767  0.00  0.00    +0.000 C 
ENDBRANCH  19  22
BRANCH  20  24
ATOM     24  O   UNL     1       5.347   5.011  17.269  0.00  0.00    +0.000 OA
ATOM     25  C   UNL     1       4.976   4.581  15.967  0.00  0.00    +0.000 C 
ENDBRANCH  20  24
ENDBRANCH   8  16
BRANCH   1  27
ATOM     26  C   UNL     1      -0.738  15.951  23.085  0.00  0.00    +0.000 C 
ATOM     27  O   UNL     1      -0.072  14.695  22.995  0.00  0.00    +0.000 OA
ENDBRANCH   1  27
BRANCH  13  28
ATOM     28  O   UNL     1      -2.463  11.431  19.084  0.00  0.00    +0.000 OA
ATOM     29  C   UNL     1      -3.750  11.762  18.577  0.00  0.00    +0.000 C 
ENDBRANCH  13  28
BRANCH  15  30
ATOM     30  O   UNL     1      -2.656  12.938  23.352  0.00  0.00    +0.000 OA
ATOM     31  H   UNL     1      -2.661  13.593  24.075  0.00  0.00    +0.000 HD
ENDBRANCH  15  30
TORSDOF 6
ENDMDL
