MODEL 1
REMARK VINA RESULT:      -6.9      0.000      0.000
REMARK  Name = 
REMARK  4 active torsions:
REMARK  status: ('A' for Active; 'I' for Inactive)
REMARK    1  A    between atoms: C_2  and  C_16
REMARK    2  A    between atoms: C_7  and  C_8
REMARK    3  A    between atoms: C_9  and  C_10
REMARK    4  A    between atoms: C_10  and  N_11
REMARK                            x       y       z     vdW  Elec       q    Type
REMARK                         _______ _______ _______ _____ _____    ______ ____
ROOT
ATOM      1  O   UNL     1       2.135   5.639  17.917  0.00  0.00    +0.000 OA
ATOM      2  C   UNL     1       2.234   4.905  18.909  0.00  0.00    +0.000 C 
ATOM      3  N   UNL     1       2.758   3.617  18.783  0.00  0.00    +0.000 N 
ATOM      4  C   UNL     1       2.672   2.558  19.769  0.00  0.00    +0.000 C 
ATOM      5  C   UNL     1       3.669   1.524  19.279  0.00  0.00    +0.000 C 
ATOM      6  C   UNL     1       3.631   1.649  17.755  0.00  0.00    +0.000 C 
ATOM      7  C   UNL     1       3.134   3.068  17.480  0.00  0.00    +0.000 C 
ENDROOT
BRANCH   2   8
ATOM      8  C   UNL     1       1.838   5.447  20.305  0.00  0.00    +0.000 C 
ATOM      9  F   UNL     1       1.735   6.801  20.398  0.00  0.00    +0.000 F 
ATOM     10  F   UNL     1       0.636   4.952  20.728  0.00  0.00    +0.000 F 
ATOM     11  F   UNL     1       2.746   5.092  21.264  0.00  0.00    +0.000 F 
ENDBRANCH   2   8
BRANCH   7  12
ATOM     12  C   UNL     1       4.180   3.940  16.804  0.00  0.00    +0.000 C 
ATOM     13  C   UNL     1       5.076   4.689  16.225  0.00  0.00    +0.000 C 
BRANCH  13  14
ATOM     14  C   UNL     1       6.122   5.562  15.550  0.00  0.00    +0.000 C 
BRANCH  14  15
ATOM     15  N   UNL     1       7.168   5.884  16.526  0.00  0.00    +0.000 NA
ATOM     16  C   UNL     1       6.891   7.112  17.267  0.00  0.00    +0.000 C 
ATOM     17  C   UNL     1       7.908   7.029  18.391  0.00  0.00    +0.000 C 
ATOM     18  C   UNL     1       7.933   5.554  18.755  0.00  0.00    +0.000 C 
ATOM     19  C   UNL     1       7.366   4.835  17.535  0.00  0.00    +0.000 C 
ENDBRANCH  14  15
ENDBRANCH  13  14
ENDBRANCH   7  12
TORSDOF 4
ENDMDL
MODEL 2
REMARK VINA RESULT:      -6.9      2.814      5.574
REMARK  Name = 
REMARK  4 active torsions:
REMARK  status: ('A' for Active; 'I' for Inactive)
REMARK    1  A    between atoms: C_2  and  C_16
REMARK    2  A    between atoms: C_7  and  C_8
REMARK    3  A    between atoms: C_9  and  C_10
REMARK    4  A    between atoms: C_10  and  N_11
REMARK                            x       y       z     vdW  Elec       q    Type
REMARK                         _______ _______ _______ _____ _____    ______ ____
ROOT
ATOM      1  O   UNL     1       5.723   3.943  19.148  0.00  0.00    +0.000 OA
ATOM      2  C   UNL     1       6.442   4.617  18.399  0.00  0.00    +0.000 C 
ATOM      3  N   UNL     1       6.275   4.553  17.014  0.00  0.00    +0.000 N 
ATOM      4  C   UNL     1       7.202   5.045  16.016  0.00  0.00    +0.000 C 
ATOM      5  C   UNL     1       6.396   5.029  14.731  0.00  0.00    +0.000 C 
ATOM      6  C   UNL     1       5.441   3.846  14.894  0.00  0.00    +0.000 C 
ATOM      7  C   UNL     1       5.307   3.641  16.403  0.00  0.00    +0.000 C 
ENDROOT
BRANCH   2   8
ATOM      8  C   UNL     1       7.484   5.589  19.008  0.00  0.00    +0.000 C 
ATOM      9  F   UNL     1       7.542   6.819  18.430  0.00  0.00    +0.000 F 
ATOM     10  F   UNL     1       7.263   5.813  20.339  0.00  0.00    +0.000 F 
ATOM     11  F   UNL     1       8.754   5.093  18.920  0.00  0.00    +0.000 F 
ENDBRANCH   2   8
BRANCH   7  12
ATOM     12  C   UNL     1       3.902   3.916  16.915  0.00  0.00    +0.000 C 
ATOM     13  C   UNL     1       2.697   4.153  17.352  0.00  0.00    +0.000 C 
BRANCH  13  14
ATOM     14  C   UNL     1       1.293   4.427  17.864  0.00  0.00    +0.000 C 
BRANCH  14  15
ATOM     15  N   UNL     1       1.218   4.029  19.273  0.00  0.00    +0.000 NA
ATOM     16  C   UNL     1       1.491   2.609  19.475  0.00  0.00    +0.000 C 
ATOM     17  C   UNL     1       1.678   2.543  20.980  0.00  0.00    +0.000 C 
ATOM     18  C   UNL     1       2.423   3.823  21.315  0.00  0.00    +0.000 C 
ATOM     19  C   UNL     1       2.164   4.753  20.134  0.00  0.00    +0.000 C 
ENDBRANCH  14  15
ENDBRANCH  13  14
ENDBRANCH   7  12
TORSDOF 4
ENDMDL
MODEL 3
REMARK VINA RESULT:      -6.8      3.220      5.139
REMARK  Name = 
REMARK  4 active torsions:
REMARK  status: ('A' for Active; 'I' for Inactive)
REMARK    1  A    between atoms: C_2  and  C_16
REMARK    2  A    between atoms: C_7  and  C_8
REMARK    3  A    between atoms: C_9  and  C_10
REMARK    4  A    between atoms: C_10  and  N_11
REMARK                            x       y       z     vdW  Elec       q    Type
REMARK                         _______ _______ _______ _____ _____    ______ ____
ROOT
ATOM      1  O   UNL     1       1.247   4.455  17.395  0.00  0.00    +0.000 OA
ATOM      2  C   UNL     1       1.996   3.895  18.206  0.00  0.00    +0.000 C 
ATOM      3  N   UNL     1       3.296   4.366  18.406  0.00  0.00    +0.000 N 
ATOM      4  C   UNL     1       4.365   3.664  19.087  0.00  0.00    +0.000 C 
ATOM      5  C   UNL     1       5.417   4.735  19.310  0.00  0.00    +0.000 C 
ATOM      6  C   UNL     1       5.271   5.671  18.111  0.00  0.00    +0.000 C 
ATOM      7  C   UNL     1       3.836   5.476  17.620  0.00  0.00    +0.000 C 
ENDROOT
BRANCH   2   8
ATOM      8  C   UNL     1       1.463   2.712  19.051  0.00  0.00    +0.000 C 
ATOM      9  F   UNL     1       2.212   1.576  19.004  0.00  0.00    +0.000 F 
ATOM     10  F   UNL     1       1.356   3.032  20.376  0.00  0.00    +0.000 F 
ATOM     11  F   UNL     1       0.211   2.329  18.658  0.00  0.00    +0.000 F 
ENDBRANCH   2   8
BRANCH   7  12
ATOM     12  C   UNL     1       2.981   6.723  17.782  0.00  0.00    +0.000 C 
ATOM     13  C   UNL     1       2.247   7.791  17.919  0.00  0.00    +0.000 C 
BRANCH  13  14
ATOM     14  C   UNL     1       1.393   9.038  18.082  0.00  0.00    +0.000 C 
BRANCH  14  15
ATOM     15  N   UNL     1       1.339   9.392  19.504  0.00  0.00    +0.000 NA
ATOM     16  C   UNL     1       0.082  10.034  19.880  0.00  0.00    +0.000 C 
ATOM     17  C   UNL     1       0.153   9.983  21.395  0.00  0.00    +0.000 C 
ATOM     18  C   UNL     1       0.782   8.633  21.689  0.00  0.00    +0.000 C 
ATOM     19  C   UNL     1       1.489   8.235  20.397  0.00  0.00    +0.000 C 
ENDBRANCH  14  15
ENDBRANCH  13  14
ENDBRANCH   7  12
TORSDOF 4
ENDMDL
MODEL 4
REMARK VINA RESULT:      -6.6      3.241      5.234
REMARK  Name = 
REMARK  4 active torsions:
REMARK  status: ('A' for Active; 'I' for Inactive)
REMARK    1  A    between atoms: C_2  and  C_16
REMARK    2  A    between atoms: C_7  and  C_8
REMARK    3  A    between atoms: C_9  and  C_10
REMARK    4  A    between atoms: C_10  and  N_11
REMARK                            x       y       z     vdW  Elec       q    Type
REMARK                         _______ _______ _______ _____ _____    ______ ____
ROOT
ATOM      1  O   UNL     1       1.449   4.718  17.620  0.00  0.00    +0.000 OA
ATOM      2  C   UNL     1       2.248   4.160  18.383  0.00  0.00    +0.000 C 
ATOM      3  N   UNL     1       3.571   4.603  18.465  0.00  0.00    +0.000 N 
ATOM      4  C   UNL     1       4.674   3.891  19.076  0.00  0.00    +0.000 C 
ATOM      5  C   UNL     1       5.766   4.939  19.185  0.00  0.00    +0.000 C 
ATOM      6  C   UNL     1       5.545   5.849  17.976  0.00  0.00    +0.000 C 
ATOM      7  C   UNL     1       4.071   5.679  17.609  0.00  0.00    +0.000 C 
ENDROOT
BRANCH   2   8
ATOM      8  C   UNL     1       1.758   3.012  19.300  0.00  0.00    +0.000 C 
ATOM      9  F   UNL     1       1.999   3.183  20.629  0.00  0.00    +0.000 F 
ATOM     10  F   UNL     1       0.411   2.804  19.189  0.00  0.00    +0.000 F 
ATOM     11  F   UNL     1       2.347   1.820  18.982  0.00  0.00    +0.000 F 
ENDBRANCH   2   8
BRANCH   7  12
ATOM     12  C   UNL     1       3.262   6.951  17.805  0.00  0.00    +0.000 C 
ATOM     13  C   UNL     1       2.569   8.042  17.972  0.00  0.00    +0.000 C 
BRANCH  13  14
ATOM     14  C   UNL     1       1.760   9.313  18.168  0.00  0.00    +0.000 C 
BRANCH  14  15
ATOM     15  N   UNL     1       0.805   9.101  19.260  0.00  0.00    +0.000 NA
ATOM     16  C   UNL     1       1.425   8.524  20.450  0.00  0.00    +0.000 C 
ATOM     17  C   UNL     1       0.337   8.721  21.491  0.00  0.00    +0.000 C 
ATOM     18  C   UNL     1      -0.249  10.081  21.155  0.00  0.00    +0.000 C 
ATOM     19  C   UNL     1       0.144  10.337  19.704  0.00  0.00    +0.000 C 
ENDBRANCH  14  15
ENDBRANCH  13  14
ENDBRANCH   7  12
TORSDOF 4
ENDMDL
MODEL 5
REMARK VINA RESULT:      -6.5      4.427      5.940
REMARK  Name = 
REMARK  4 active torsions:
REMARK  status: ('A' for Active; 'I' for Inactive)
REMARK    1  A    between atoms: C_2  and  C_16
REMARK    2  A    between atoms: C_7  and  C_8
REMARK    3  A    between atoms: C_9  and  C_10
REMARK    4  A    between atoms: C_10  and  N_11
REMARK                            x       y       z     vdW  Elec       q    Type
REMARK                         _______ _______ _______ _____ _____    ______ ____
ROOT
ATOM      1  O   UNL     1       8.001   5.914  15.471  0.00  0.00    +0.000 OA
ATOM      2  C   UNL     1       6.971   5.321  15.819  0.00  0.00    +0.000 C 
ATOM      3  N   UNL     1       6.632   5.230  17.171  0.00  0.00    +0.000 N 
ATOM      4  C   UNL     1       5.639   4.345  17.746  0.00  0.00    +0.000 C 
ATOM      5  C   UNL     1       5.442   4.885  19.150  0.00  0.00    +0.000 C 
ATOM      6  C   UNL     1       6.810   5.447  19.540  0.00  0.00    +0.000 C 
ATOM      7  C   UNL     1       7.508   5.759  18.216  0.00  0.00    +0.000 C 
ENDROOT
BRANCH   2   8
ATOM      8  C   UNL     1       6.021   4.741  14.742  0.00  0.00    +0.000 C 
ATOM      9  F   UNL     1       5.764   3.409  14.847  0.00  0.00    +0.000 F 
ATOM     10  F   UNL     1       4.800   5.357  14.746  0.00  0.00    +0.000 F 
ATOM     11  F   UNL     1       6.519   4.910  13.480  0.00  0.00    +0.000 F 
ENDBRANCH   2   8
BRANCH   7  12
ATOM     12  C   UNL     1       7.758   7.245  18.016  0.00  0.00    +0.000 C 
ATOM     13  C   UNL     1       7.971   8.520  17.845  0.00  0.00    +0.000 C 
BRANCH  13  14
ATOM     14  C   UNL     1       8.222  10.006  17.645  0.00  0.00    +0.000 C 
BRANCH  14  15
ATOM     15  N   UNL     1       9.462  10.373  18.336  0.00  0.00    +0.000 NA
ATOM     16  C   UNL     1       9.998  11.657  17.892  0.00  0.00    +0.000 C 
ATOM     17  C   UNL     1      11.040  11.940  18.960  0.00  0.00    +0.000 C 
ATOM     18  C   UNL     1      10.393  11.449  20.243  0.00  0.00    +0.000 C 
ATOM     19  C   UNL     1       9.306  10.478  19.793  0.00  0.00    +0.000 C 
ENDBRANCH  14  15
ENDBRANCH  13  14
ENDBRANCH   7  12
TORSDOF 4
ENDMDL
MODEL 6
REMARK VINA RESULT:      -6.5      2.216      5.143
REMARK  Name = 
REMARK  4 active torsions:
REMARK  status: ('A' for Active; 'I' for Inactive)
REMARK    1  A    between atoms: C_2  and  C_16
REMARK    2  A    between atoms: C_7  and  C_8
REMARK    3  A    between atoms: C_9  and  C_10
REMARK    4  A    between atoms: C_10  and  N_11
REMARK                            x       y       z     vdW  Elec       q    Type
REMARK                         _______ _______ _______ _____ _____    ______ ____
ROOT
ATOM      1  O   UNL     1       3.565   6.000  19.500  0.00  0.00    +0.000 OA
ATOM      2  C   UNL     1       3.570   6.644  18.443  0.00  0.00    +0.000 C 
ATOM      3  N   UNL     1       4.402   6.263  17.389  0.00  0.00    +0.000 N 
ATOM      4  C   UNL     1       4.728   7.062  16.224  0.00  0.00    +0.000 C 
ATOM      5  C   UNL     1       5.368   6.069  15.271  0.00  0.00    +0.000 C 
ATOM      6  C   UNL     1       6.076   5.066  16.182  0.00  0.00    +0.000 C 
ATOM      7  C   UNL     1       5.341   5.149  17.520  0.00  0.00    +0.000 C 
ENDROOT
BRANCH   2   8
ATOM      8  C   UNL     1       2.595   7.835  18.269  0.00  0.00    +0.000 C 
ATOM      9  F   UNL     1       3.168   9.005  17.874  0.00  0.00    +0.000 F 
ATOM     10  F   UNL     1       1.617   7.570  17.350  0.00  0.00    +0.000 F 
ATOM     11  F   UNL     1       1.942   8.132  19.432  0.00  0.00    +0.000 F 
ENDBRANCH   2   8
BRANCH   7  12
ATOM     12  C   UNL     1       4.613   3.862  17.875  0.00  0.00    +0.000 C 
ATOM     13  C   UNL     1       3.989   2.759  18.179  0.00  0.00    +0.000 C 
BRANCH  13  14
ATOM     14  C   UNL     1       3.261   1.473  18.535  0.00  0.00    +0.000 C 
BRANCH  14  15
ATOM     15  N   UNL     1       2.205   1.782  19.505  0.00  0.00    +0.000 NA
ATOM     16  C   UNL     1       2.714   2.439  20.706  0.00  0.00    +0.000 C 
ATOM     17  C   UNL     1       1.432   2.930  21.354  0.00  0.00    +0.000 C 
ATOM     18  C   UNL     1       0.577   3.379  20.182  0.00  0.00    +0.000 C 
ATOM     19  C   UNL     1       1.162   2.666  18.968  0.00  0.00    +0.000 C 
ENDBRANCH  14  15
ENDBRANCH  13  14
ENDBRANCH   7  12
TORSDOF 4
ENDMDL
MODEL 7
REMARK VINA RESULT:      -6.5      4.514      6.277
REMARK  Name = 
REMARK  4 active torsions:
REMARK  status: ('A' for Active; 'I' for Inactive)
REMARK    1  A    between atoms: C_2  and  C_16
REMARK    2  A    between atoms: C_7  and  C_8
REMARK    3  A    between atoms: C_9  and  C_10
REMARK    4  A    between atoms: C_10  and  N_11
REMARK                            x       y       z     vdW  Elec       q    Type
REMARK                         _______ _______ _______ _____ _____    ______ ____
ROOT
ATOM      1  O   UNL     1       5.415   6.624  17.572  0.00  0.00    +0.000 OA
ATOM      2  C   UNL     1       5.062   5.558  17.051  0.00  0.00    +0.000 C 
ATOM      3  N   UNL     1       3.902   4.912  17.483  0.00  0.00    +0.000 N 
ATOM      4  C   UNL     1       3.520   3.547  17.182  0.00  0.00    +0.000 C 
ATOM      5  C   UNL     1       2.063   3.477  17.599  0.00  0.00    +0.000 C 
ATOM      6  C   UNL     1       1.957   4.441  18.781  0.00  0.00    +0.000 C 
ATOM      7  C   UNL     1       3.113   5.425  18.603  0.00  0.00    +0.000 C 
ENDROOT
BRANCH   2   8
ATOM      8  C   UNL     1       5.876   4.979  15.867  0.00  0.00    +0.000 C 
ATOM      9  F   UNL     1       6.277   3.686  16.011  0.00  0.00    +0.000 F 
ATOM     10  F   UNL     1       5.178   5.023  14.691  0.00  0.00    +0.000 F 
ATOM     11  F   UNL     1       7.024   5.686  15.645  0.00  0.00    +0.000 F 
ENDBRANCH   2   8
BRANCH   7  12
ATOM     12  C   UNL     1       2.644   6.846  18.332  0.00  0.00    +0.000 C 
ATOM     13  C   UNL     1       2.241   8.064  18.100  0.00  0.00    +0.000 C 
BRANCH  13  14
ATOM     14  C   UNL     1       1.773   9.484  17.830  0.00  0.00    +0.000 C 
BRANCH  14  15
ATOM     15  N   UNL     1       0.669   9.800  18.742  0.00  0.00    +0.000 NA
ATOM     16  C   UNL     1       0.969  10.924  19.625  0.00  0.00    +0.000 C 
ATOM     17  C   UNL     1      -0.401  11.240  20.197  0.00  0.00    +0.000 C 
ATOM     18  C   UNL     1      -1.344  11.036  19.024  0.00  0.00    +0.000 C 
ATOM     19  C   UNL     1      -0.578  10.148  18.049  0.00  0.00    +0.000 C 
ENDBRANCH  14  15
ENDBRANCH  13  14
ENDBRANCH   7  12
TORSDOF 4
ENDMDL
MODEL 8
REMARK VINA RESULT:      -6.5      4.382      6.149
REMARK  Name = 
REMARK  4 active torsions:
REMARK  status: ('A' for Active; 'I' for Inactive)
REMARK    1  A    between atoms: C_2  and  C_16
REMARK    2  A    between atoms: C_7  and  C_8
REMARK    3  A    between atoms: C_9  and  C_10
REMARK    4  A    between atoms: C_10  and  N_11
REMARK                            x       y       z     vdW  Elec       q    Type
REMARK                         _______ _______ _______ _____ _____    ______ ____
ROOT
ATOM      1  O   UNL     1       5.439   6.466  17.427  0.00  0.00    +0.000 OA
ATOM      2  C   UNL     1       5.008   5.419  16.926  0.00  0.00    +0.000 C 
ATOM      3  N   UNL     1       3.841   4.831  17.418  0.00  0.00    +0.000 N 
ATOM      4  C   UNL     1       3.378   3.487  17.139  0.00  0.00    +0.000 C 
ATOM      5  C   UNL     1       1.942   3.489  17.630  0.00  0.00    +0.000 C 
ATOM      6  C   UNL     1       1.943   4.456  18.814  0.00  0.00    +0.000 C 
ATOM      7  C   UNL     1       3.136   5.382  18.576  0.00  0.00    +0.000 C 
ENDROOT
BRANCH   2   8
ATOM      8  C   UNL     1       5.731   4.801  15.703  0.00  0.00    +0.000 C 
ATOM      9  F   UNL     1       4.960   4.630  14.595  0.00  0.00    +0.000 F 
ATOM     10  F   UNL     1       6.800   5.554  15.302  0.00  0.00    +0.000 F 
ATOM     11  F   UNL     1       6.233   3.561  15.983  0.00  0.00    +0.000 F 
ENDBRANCH   2   8
BRANCH   7  12
ATOM     12  C   UNL     1       2.725   6.824  18.326  0.00  0.00    +0.000 C 
ATOM     13  C   UNL     1       2.371   8.060  18.111  0.00  0.00    +0.000 C 
BRANCH  13  14
ATOM     14  C   UNL     1       1.959   9.502  17.862  0.00  0.00    +0.000 C 
BRANCH  14  15
ATOM     15  N   UNL     1       0.773   9.801  18.671  0.00  0.00    +0.000 NA
ATOM     16  C   UNL     1       0.910   9.363  20.058  0.00  0.00    +0.000 C 
ATOM     17  C   UNL     1      -0.260  10.069  20.720  0.00  0.00    +0.000 C 
ATOM     18  C   UNL     1      -0.306  11.424  20.036  0.00  0.00    +0.000 C 
ATOM     19  C   UNL     1       0.452  11.234  18.726  0.00  0.00    +0.000 C 
ENDBRANCH  14  15
ENDBRANCH  13  14
ENDBRANCH   7  12
TORSDOF 4
ENDMDL
MODEL 9
REMARK VINA RESULT:      -6.4      3.031      5.766
REMARK  Name = 
REMARK  4 active torsions:
REMARK  status: ('A' for Active; 'I' for Inactive)
REMARK    1  A    between atoms: C_2  and  C_16
REMARK    2  A    between atoms: C_7  and  C_8
REMARK    3  A    between atoms: C_9  and  C_10
REMARK    4  A    between atoms: C_10  and  N_11
REMARK                            x       y       z     vdW  Elec       q    Type
REMARK                         _______ _______ _______ _____ _____    ______ ____
ROOT
ATOM      1  O   UNL     1       6.001   5.655  18.882  0.00  0.00    +0.000 OA
ATOM      2  C   UNL     1       6.573   5.939  17.821  0.00  0.00    +0.000 C 
ATOM      3  N   UNL     1       6.386   5.148  16.685  0.00  0.00    +0.000 N 
ATOM      4  C   UNL     1       7.190   5.179  15.480  0.00  0.00    +0.000 C 
ATOM      5  C   UNL     1       6.367   4.393  14.476  0.00  0.00    +0.000 C 
ATOM      6  C   UNL     1       5.636   3.345  15.315  0.00  0.00    +0.000 C 
ATOM      7  C   UNL     1       5.577   3.930  16.726  0.00  0.00    +0.000 C 
ENDROOT
BRANCH   2   8
ATOM      8  C   UNL     1       7.445   7.217  17.740  0.00  0.00    +0.000 C 
ATOM      9  F   UNL     1       8.154   7.367  16.588  0.00  0.00    +0.000 F 
ATOM     10  F   UNL     1       6.701   8.357  17.872  0.00  0.00    +0.000 F 
ATOM     11  F   UNL     1       8.375   7.262  18.740  0.00  0.00    +0.000 F 
ENDBRANCH   2   8
BRANCH   7  12
ATOM     12  C   UNL     1       4.158   4.235  17.180  0.00  0.00    +0.000 C 
ATOM     13  C   UNL     1       2.942   4.497  17.569  0.00  0.00    +0.000 C 
BRANCH  13  14
ATOM     14  C   UNL     1       1.523   4.801  18.023  0.00  0.00    +0.000 C 
BRANCH  14  15
ATOM     15  N   UNL     1       1.316   4.213  19.350  0.00  0.00    +0.000 NA
ATOM     16  C   UNL     1       1.619   2.784  19.389  0.00  0.00    +0.000 C 
ATOM     17  C   UNL     1       1.649   2.517  20.883  0.00  0.00    +0.000 C 
ATOM     18  C   UNL     1       2.308   3.756  21.464  0.00  0.00    +0.000 C 
ATOM     19  C   UNL     1       2.141   4.832  20.396  0.00  0.00    +0.000 C 
ENDBRANCH  14  15
ENDBRANCH  13  14
ENDBRANCH   7  12
TORSDOF 4
ENDMDL
