MODEL 1
REMARK VINA RESULT:      -8.1      0.000      0.000
REMARK  Name = 
REMARK  10 active torsions:
REMARK  status: ('A' for Active; 'I' for Inactive)
REMARK    1  A    between atoms: C_1  and  C_2
REMARK    2  A    between atoms: C_5  and  S_6
REMARK    3  A    between atoms: S_6  and  N_9
REMARK    4  A    between atoms: N_9  and  C_10
REMARK    5  A    between atoms: N_9  and  C_11
REMARK    6  A    between atoms: C_14  and  N_15
REMARK    7  A    between atoms: C_16  and  C_18
REMARK    8  A    between atoms: C_18  and  C_19
REMARK    9  A    between atoms: C_18  and  O_20
REMARK   10  A    between atoms: C_18  and  C_21
REMARK                            x       y       z     vdW  Elec       q    Type
REMARK                         _______ _______ _______ _____ _____    ______ ____
ROOT
ATOM      1  C   UNL     1       2.905   6.193  18.908  0.00  0.00    +0.000 A 
ATOM      2  C   UNL     1       3.084   7.039  17.821  0.00  0.00    +0.000 A 
ATOM      3  C   UNL     1       2.584   8.337  17.863  0.00  0.00    +0.000 A 
ATOM      4  C   UNL     1       1.857   8.802  18.965  0.00  0.00    +0.000 A 
ATOM      5  C   UNL     1       1.746   7.965  20.087  0.00  0.00    +0.000 A 
ATOM      6 CL   UNL     1       0.891   8.468  21.502  0.00  0.00    +0.000 Cl
ATOM      7  C   UNL     1       2.273   6.667  20.060  0.00  0.00    +0.000 A 
ENDROOT
BRANCH   4   8
ATOM      8  N   UNL     1       1.207  10.063  18.944  0.00  0.00    +0.000 N 
ATOM      9  C   UNL     1      -0.030  10.323  18.374  0.00  0.00    +0.000 C 
ATOM     10  O   UNL     1      -0.724   9.485  17.789  0.00  0.00    +0.000 OA
ATOM     11  H   UNL     1       1.642  10.811  19.488  0.00  0.00    +0.000 HD
BRANCH   9  12
ATOM     12  C   UNL     1      -0.573  11.736  18.578  0.00  0.00    +0.000 C 
ATOM     13  C   UNL     1      -1.857  11.879  17.747  0.00  0.00    +0.000 C 
BRANCH  12  14
ATOM     14  C   UNL     1      -0.864  11.887  20.086  0.00  0.00    +0.000 C 
ATOM     15  F   UNL     1      -1.175  10.731  20.708  0.00  0.00    +0.000 F 
ATOM     16  F   UNL     1       0.230  12.388  20.720  0.00  0.00    +0.000 F 
ATOM     17  F   UNL     1      -1.870  12.761  20.328  0.00  0.00    +0.000 F 
ENDBRANCH  12  14
BRANCH  12  18
ATOM     18  O   UNL     1       0.369  12.711  18.082  0.00  0.00    +0.000 OA
ATOM     19  H   UNL     1       1.194  12.233  17.872  0.00  0.00    +0.000 HD
ENDBRANCH  12  18
ENDBRANCH   9  12
ENDBRANCH   4   8
BRANCH   1  20
ATOM     20  N   UNL     1       3.259   4.812  18.813  0.00  0.00    +0.000 N 
ATOM     21  C   UNL     1       2.217   3.796  19.019  0.00  0.00    +0.000 C 
BRANCH  20  22
ATOM     22  S   UNL     1       4.895   4.402  19.032  0.00  0.00    +0.000 S 
ATOM     23  O   UNL     1       4.965   3.069  19.594  0.00  0.00    +0.000 OA
ATOM     24  O   UNL     1       5.544   5.512  19.708  0.00  0.00    +0.000 OA
BRANCH  22  29
ATOM     25  C   UNL     1       7.195   4.873  13.413  0.00  0.00    +0.000 C 
ATOM     26  C   UNL     1       6.652   4.631  14.795  0.00  0.00    +0.000 A 
ATOM     27  C   UNL     1       5.311   4.273  14.989  0.00  0.00    +0.000 A 
ATOM     28  C   UNL     1       4.794   4.110  16.281  0.00  0.00    +0.000 A 
ATOM     29  C   UNL     1       5.623   4.298  17.393  0.00  0.00    +0.000 A 
ATOM     30  C   UNL     1       6.964   4.654  17.207  0.00  0.00    +0.000 A 
ATOM     31  C   UNL     1       7.474   4.816  15.913  0.00  0.00    +0.000 A 
ENDBRANCH  22  29
ENDBRANCH  20  22
ENDBRANCH   1  20
TORSDOF 7
ENDMDL
MODEL 2
REMARK VINA RESULT:      -7.9      0.977      1.316
REMARK  Name = 
REMARK  10 active torsions:
REMARK  status: ('A' for Active; 'I' for Inactive)
REMARK    1  A    between atoms: C_1  and  C_2
REMARK    2  A    between atoms: C_5  and  S_6
REMARK    3  A    between atoms: S_6  and  N_9
REMARK    4  A    between atoms: N_9  and  C_10
REMARK    5  A    between atoms: N_9  and  C_11
REMARK    6  A    between atoms: C_14  and  N_15
REMARK    7  A    between atoms: C_16  and  C_18
REMARK    8  A    between atoms: C_18  and  C_19
REMARK    9  A    between atoms: C_18  and  O_20
REMARK   10  A    between atoms: C_18  and  C_21
REMARK                            x       y       z     vdW  Elec       q    Type
REMARK                         _______ _______ _______ _____ _____    ______ ____
ROOT
ATOM      1  C   UNL     1       2.799   6.296  18.924  0.00  0.00    +0.000 A 
ATOM      2  C   UNL     1       2.981   7.172  17.862  0.00  0.00    +0.000 A 
ATOM      3  C   UNL     1       2.485   8.470  17.942  0.00  0.00    +0.000 A 
ATOM      4  C   UNL     1       1.760   8.905  19.058  0.00  0.00    +0.000 A 
ATOM      5  C   UNL     1       1.647   8.037  20.155  0.00  0.00    +0.000 A 
ATOM      6 CL   UNL     1       0.794   8.501  21.585  0.00  0.00    +0.000 Cl
ATOM      7  C   UNL     1       2.169   6.738  20.090  0.00  0.00    +0.000 A 
ENDROOT
BRANCH   4   8
ATOM      8  N   UNL     1       1.115  10.169  19.075  0.00  0.00    +0.000 N 
ATOM      9  C   UNL     1      -0.008  10.510  18.337  0.00  0.00    +0.000 C 
ATOM     10  O   UNL     1      -0.587   9.755  17.548  0.00  0.00    +0.000 OA
ATOM     11  H   UNL     1       1.446  10.842  19.768  0.00  0.00    +0.000 HD
BRANCH   9  12
ATOM     12  C   UNL     1      -0.587  11.897  18.609  0.00  0.00    +0.000 C 
ATOM     13  C   UNL     1      -1.401  11.828  19.910  0.00  0.00    +0.000 C 
BRANCH  12  14
ATOM     14  C   UNL     1       0.612  12.859  18.750  0.00  0.00    +0.000 C 
ATOM     15  F   UNL     1       1.669  12.543  17.975  0.00  0.00    +0.000 F 
ATOM     16  F   UNL     1       0.237  14.119  18.401  0.00  0.00    +0.000 F 
ATOM     17  F   UNL     1       1.056  12.939  20.027  0.00  0.00    +0.000 F 
ENDBRANCH  12  14
BRANCH  12  18
ATOM     18  O   UNL     1      -1.497  12.277  17.554  0.00  0.00    +0.000 OA
ATOM     19  H   UNL     1      -2.080  12.972  17.915  0.00  0.00    +0.000 HD
ENDBRANCH  12  18
ENDBRANCH   9  12
ENDBRANCH   4   8
BRANCH   1  20
ATOM     20  N   UNL     1       3.148   4.916  18.789  0.00  0.00    +0.000 N 
ATOM     21  C   UNL     1       2.091   3.901  18.916  0.00  0.00    +0.000 C 
BRANCH  20  22
ATOM     22  S   UNL     1       4.771   4.486  19.053  0.00  0.00    +0.000 S 
ATOM     23  O   UNL     1       4.808   3.158  19.632  0.00  0.00    +0.000 OA
ATOM     24  O   UNL     1       5.420   5.593  19.733  0.00  0.00    +0.000 OA
BRANCH  22  29
ATOM     25  C   UNL     1       7.226   4.863  13.494  0.00  0.00    +0.000 C 
ATOM     26  C   UNL     1       6.642   4.644  14.862  0.00  0.00    +0.000 A 
ATOM     27  C   UNL     1       5.288   4.321  15.024  0.00  0.00    +0.000 A 
ATOM     28  C   UNL     1       4.734   4.179  16.303  0.00  0.00    +0.000 A 
ATOM     29  C   UNL     1       5.539   4.353  17.434  0.00  0.00    +0.000 A 
ATOM     30  C   UNL     1       6.893   4.673  17.282  0.00  0.00    +0.000 A 
ATOM     31  C   UNL     1       7.439   4.815  16.000  0.00  0.00    +0.000 A 
ENDBRANCH  22  29
ENDBRANCH  20  22
ENDBRANCH   1  20
TORSDOF 7
ENDMDL
MODEL 3
REMARK VINA RESULT:      -7.8      0.249      1.151
REMARK  Name = 
REMARK  10 active torsions:
REMARK  status: ('A' for Active; 'I' for Inactive)
REMARK    1  A    between atoms: C_1  and  C_2
REMARK    2  A    between atoms: C_5  and  S_6
REMARK    3  A    between atoms: S_6  and  N_9
REMARK    4  A    between atoms: N_9  and  C_10
REMARK    5  A    between atoms: N_9  and  C_11
REMARK    6  A    between atoms: C_14  and  N_15
REMARK    7  A    between atoms: C_16  and  C_18
REMARK    8  A    between atoms: C_18  and  C_19
REMARK    9  A    between atoms: C_18  and  O_20
REMARK   10  A    between atoms: C_18  and  C_21
REMARK                            x       y       z     vdW  Elec       q    Type
REMARK                         _______ _______ _______ _____ _____    ______ ____
ROOT
ATOM      1  C   UNL     1       2.865   6.252  19.084  0.00  0.00    +0.000 A 
ATOM      2  C   UNL     1       3.027   7.064  17.969  0.00  0.00    +0.000 A 
ATOM      3  C   UNL     1       2.516   8.359  17.974  0.00  0.00    +0.000 A 
ATOM      4  C   UNL     1       1.795   8.853  19.068  0.00  0.00    +0.000 A 
ATOM      5  C   UNL     1       1.702   8.052  20.217  0.00  0.00    +0.000 A 
ATOM      6 CL   UNL     1       0.856   8.593  21.624  0.00  0.00    +0.000 Cl
ATOM      7  C   UNL     1       2.240   6.758  20.226  0.00  0.00    +0.000 A 
ENDROOT
BRANCH   4   8
ATOM      8  N   UNL     1       1.135  10.107  19.014  0.00  0.00    +0.000 N 
ATOM      9  C   UNL     1      -0.077  10.354  18.386  0.00  0.00    +0.000 C 
ATOM     10  O   UNL     1      -0.735   9.507  17.772  0.00  0.00    +0.000 OA
ATOM     11  H   UNL     1       1.537  10.861  19.574  0.00  0.00    +0.000 HD
BRANCH   9  12
ATOM     12  C   UNL     1      -0.642  11.761  18.560  0.00  0.00    +0.000 C 
ATOM     13  C   UNL     1      -1.953  11.852  17.763  0.00  0.00    +0.000 C 
BRANCH  12  14
ATOM     14  C   UNL     1      -0.894  11.957  20.070  0.00  0.00    +0.000 C 
ATOM     15  F   UNL     1       0.171  12.429  20.751  0.00  0.00    +0.000 F 
ATOM     16  F   UNL     1      -1.903  12.849  20.260  0.00  0.00    +0.000 F 
ATOM     17  F   UNL     1      -1.287  10.811  20.677  0.00  0.00    +0.000 F 
ENDBRANCH  12  14
BRANCH  12  18
ATOM     18  O   UNL     1       0.265  12.738  18.005  0.00  0.00    +0.000 OA
ATOM     19  H   UNL     1      -0.251  13.289  17.386  0.00  0.00    +0.000 HD
ENDBRANCH  12  18
ENDBRANCH   9  12
ENDBRANCH   4   8
BRANCH   1  20
ATOM     20  N   UNL     1       3.230   4.872  19.030  0.00  0.00    +0.000 N 
ATOM     21  C   UNL     1       2.259   3.863  19.482  0.00  0.00    +0.000 C 
BRANCH  20  22
ATOM     22  S   UNL     1       4.887   4.497  18.999  0.00  0.00    +0.000 S 
ATOM     23  O   UNL     1       5.049   3.094  19.322  0.00  0.00    +0.000 OA
ATOM     24  O   UNL     1       5.586   5.506  19.775  0.00  0.00    +0.000 OA
BRANCH  22  29
ATOM     25  C   UNL     1       7.068   4.382  13.315  0.00  0.00    +0.000 C 
ATOM     26  C   UNL     1       6.487   4.528  14.694  0.00  0.00    +0.000 A 
ATOM     27  C   UNL     1       7.233   5.100  15.734  0.00  0.00    +0.000 A 
ATOM     28  C   UNL     1       6.711   5.177  17.031  0.00  0.00    +0.000 A 
ATOM     29  C   UNL     1       5.427   4.688  17.296  0.00  0.00    +0.000 A 
ATOM     30  C   UNL     1       4.674   4.117  16.263  0.00  0.00    +0.000 A 
ATOM     31  C   UNL     1       5.203   4.041  14.969  0.00  0.00    +0.000 A 
ENDBRANCH  22  29
ENDBRANCH  20  22
ENDBRANCH   1  20
TORSDOF 7
ENDMDL
MODEL 4
REMARK VINA RESULT:      -7.8      1.572      2.113
REMARK  Name = 
REMARK  10 active torsions:
REMARK  status: ('A' for Active; 'I' for Inactive)
REMARK    1  A    between atoms: C_1  and  C_2
REMARK    2  A    between atoms: C_5  and  S_6
REMARK    3  A    between atoms: S_6  and  N_9
REMARK    4  A    between atoms: N_9  and  C_10
REMARK    5  A    between atoms: N_9  and  C_11
REMARK    6  A    between atoms: C_14  and  N_15
REMARK    7  A    between atoms: C_16  and  C_18
REMARK    8  A    between atoms: C_18  and  C_19
REMARK    9  A    between atoms: C_18  and  O_20
REMARK   10  A    between atoms: C_18  and  C_21
REMARK                            x       y       z     vdW  Elec       q    Type
REMARK                         _______ _______ _______ _____ _____    ______ ____
ROOT
ATOM      1  C   UNL     1       2.407   5.764  19.305  0.00  0.00    +0.000 A 
ATOM      2  C   UNL     1       1.864   5.949  20.569  0.00  0.00    +0.000 A 
ATOM      3  C   UNL     1       1.435   7.214  20.961  0.00  0.00    +0.000 A 
ATOM      4  C   UNL     1       1.580   8.325  20.121  0.00  0.00    +0.000 A 
ATOM      5  C   UNL     1       2.061   8.114  18.819  0.00  0.00    +0.000 A 
ATOM      6 CL   UNL     1       2.246   9.422  17.705  0.00  0.00    +0.000 Cl
ATOM      7  C   UNL     1       2.468   6.836  18.411  0.00  0.00    +0.000 A 
ENDROOT
BRANCH   4   8
ATOM      8  N   UNL     1       1.296   9.638  20.575  0.00  0.00    +0.000 N 
ATOM      9  C   UNL     1       0.110  10.326  20.365  0.00  0.00    +0.000 C 
ATOM     10  O   UNL     1      -0.855   9.884  19.732  0.00  0.00    +0.000 OA
ATOM     11  H   UNL     1       1.984  10.066  21.198  0.00  0.00    +0.000 HD
BRANCH   9  12
ATOM     12  C   UNL     1      -0.001  11.686  21.049  0.00  0.00    +0.000 C 
ATOM     13  C   UNL     1      -0.610  12.677  20.046  0.00  0.00    +0.000 C 
BRANCH  12  14
ATOM     14  C   UNL     1      -0.922  11.495  22.273  0.00  0.00    +0.000 C 
ATOM     15  F   UNL     1      -0.724  10.339  22.939  0.00  0.00    +0.000 F 
ATOM     16  F   UNL     1      -0.718  12.499  23.168  0.00  0.00    +0.000 F 
ATOM     17  F   UNL     1      -2.234  11.550  21.940  0.00  0.00    +0.000 F 
ENDBRANCH  12  14
BRANCH  12  18
ATOM     18  O   UNL     1       1.310  12.181  21.399  0.00  0.00    +0.000 OA
ATOM     19  H   UNL     1       1.255  13.156  21.409  0.00  0.00    +0.000 HD
ENDBRANCH  12  18
ENDBRANCH   9  12
ENDBRANCH   4   8
BRANCH   1  20
ATOM     20  N   UNL     1       3.008   4.516  18.953  0.00  0.00    +0.000 N 
ATOM     21  C   UNL     1       2.186   3.297  18.990  0.00  0.00    +0.000 C 
BRANCH  20  22
ATOM     22  S   UNL     1       4.700   4.398  19.063  0.00  0.00    +0.000 S 
ATOM     23  O   UNL     1       5.044   3.047  19.457  0.00  0.00    +0.000 OA
ATOM     24  O   UNL     1       5.175   5.527  19.845  0.00  0.00    +0.000 OA
BRANCH  22  29
ATOM     25  C   UNL     1       6.992   4.304  13.422  0.00  0.00    +0.000 C 
ATOM     26  C   UNL     1       6.420   4.455  14.805  0.00  0.00    +0.000 A 
ATOM     27  C   UNL     1       7.253   4.672  15.910  0.00  0.00    +0.000 A 
ATOM     28  C   UNL     1       6.720   4.750  17.203  0.00  0.00    +0.000 A 
ATOM     29  C   UNL     1       5.341   4.617  17.399  0.00  0.00    +0.000 A 
ATOM     30  C   UNL     1       4.501   4.402  16.300  0.00  0.00    +0.000 A 
ATOM     31  C   UNL     1       5.041   4.324  15.010  0.00  0.00    +0.000 A 
ENDBRANCH  22  29
ENDBRANCH  20  22
ENDBRANCH   1  20
TORSDOF 7
ENDMDL
MODEL 5
REMARK VINA RESULT:      -7.6      1.576      1.975
REMARK  Name = 
REMARK  10 active torsions:
REMARK  status: ('A' for Active; 'I' for Inactive)
REMARK    1  A    between atoms: C_1  and  C_2
REMARK    2  A    between atoms: C_5  and  S_6
REMARK    3  A    between atoms: S_6  and  N_9
REMARK    4  A    between atoms: N_9  and  C_10
REMARK    5  A    between atoms: N_9  and  C_11
REMARK    6  A    between atoms: C_14  and  N_15
REMARK    7  A    between atoms: C_16  and  C_18
REMARK    8  A    between atoms: C_18  and  C_19
REMARK    9  A    between atoms: C_18  and  O_20
REMARK   10  A    between atoms: C_18  and  C_21
REMARK                            x       y       z     vdW  Elec       q    Type
REMARK                         _______ _______ _______ _____ _____    ______ ____
ROOT
ATOM      1  C   UNL     1       2.465   5.784  19.100  0.00  0.00    +0.000 A 
ATOM      2  C   UNL     1       1.954   5.924  20.383  0.00  0.00    +0.000 A 
ATOM      3  C   UNL     1       1.512   7.169  20.822  0.00  0.00    +0.000 A 
ATOM      4  C   UNL     1       1.613   8.305  20.009  0.00  0.00    +0.000 A 
ATOM      5  C   UNL     1       2.061   8.139  18.689  0.00  0.00    +0.000 A 
ATOM      6 CL   UNL     1       2.190   9.481  17.608  0.00  0.00    +0.000 Cl
ATOM      7  C   UNL     1       2.480   6.881  18.235  0.00  0.00    +0.000 A 
ENDROOT
BRANCH   4   8
ATOM      8  N   UNL     1       1.317   9.600  20.508  0.00  0.00    +0.000 N 
ATOM      9  C   UNL     1       0.119  10.276  20.335  0.00  0.00    +0.000 C 
ATOM     10  O   UNL     1      -0.849   9.840  19.703  0.00  0.00    +0.000 OA
ATOM     11  H   UNL     1       2.008  10.018  21.134  0.00  0.00    +0.000 HD
BRANCH   9  12
ATOM     12  C   UNL     1      -0.001  11.613  21.063  0.00  0.00    +0.000 C 
ATOM     13  C   UNL     1      -0.561  12.647  20.073  0.00  0.00    +0.000 C 
BRANCH  12  14
ATOM     14  C   UNL     1      -0.969  11.391  22.244  0.00  0.00    +0.000 C 
ATOM     15  F   UNL     1      -2.274  11.497  21.918  0.00  0.00    +0.000 F 
ATOM     16  F   UNL     1      -0.797  10.143  22.756  0.00  0.00    +0.000 F 
ATOM     17  F   UNL     1      -0.737  12.250  23.265  0.00  0.00    +0.000 F 
ENDBRANCH  12  14
BRANCH  12  18
ATOM     18  O   UNL     1       1.301  12.078  21.477  0.00  0.00    +0.000 OA
ATOM     19  H   UNL     1       1.575  12.767  20.842  0.00  0.00    +0.000 HD
ENDBRANCH  12  18
ENDBRANCH   9  12
ENDBRANCH   4   8
BRANCH   1  20
ATOM     20  N   UNL     1       3.079   4.558  18.697  0.00  0.00    +0.000 N 
ATOM     21  C   UNL     1       2.229   3.379  18.470  0.00  0.00    +0.000 C 
BRANCH  20  22
ATOM     22  S   UNL     1       4.731   4.356  19.040  0.00  0.00    +0.000 S 
ATOM     23  O   UNL     1       4.923   3.047  19.631  0.00  0.00    +0.000 OA
ATOM     24  O   UNL     1       5.189   5.543  19.740  0.00  0.00    +0.000 OA
BRANCH  22  29
ATOM     25  C   UNL     1       7.193   4.955  13.503  0.00  0.00    +0.000 C 
ATOM     26  C   UNL     1       6.652   4.698  14.882  0.00  0.00    +0.000 A 
ATOM     27  C   UNL     1       5.501   3.921  15.071  0.00  0.00    +0.000 A 
ATOM     28  C   UNL     1       4.965   3.736  16.352  0.00  0.00    +0.000 A 
ATOM     29  C   UNL     1       5.586   4.325  17.460  0.00  0.00    +0.000 A 
ATOM     30  C   UNL     1       6.736   5.103  17.280  0.00  0.00    +0.000 A 
ATOM     31  C   UNL     1       7.265   5.284  15.996  0.00  0.00    +0.000 A 
ENDBRANCH  22  29
ENDBRANCH  20  22
ENDBRANCH   1  20
TORSDOF 7
ENDMDL
MODEL 6
REMARK VINA RESULT:      -7.5      4.370      9.623
REMARK  Name = 
REMARK  10 active torsions:
REMARK  status: ('A' for Active; 'I' for Inactive)
REMARK    1  A    between atoms: C_1  and  C_2
REMARK    2  A    between atoms: C_5  and  S_6
REMARK    3  A    between atoms: S_6  and  N_9
REMARK    4  A    between atoms: N_9  and  C_10
REMARK    5  A    between atoms: N_9  and  C_11
REMARK    6  A    between atoms: C_14  and  N_15
REMARK    7  A    between atoms: C_16  and  C_18
REMARK    8  A    between atoms: C_18  and  C_19
REMARK    9  A    between atoms: C_18  and  O_20
REMARK   10  A    between atoms: C_18  and  C_21
REMARK                            x       y       z     vdW  Elec       q    Type
REMARK                         _______ _______ _______ _____ _____    ______ ____
ROOT
ATOM      1  C   UNL     1       0.609   9.564  19.786  0.00  0.00    +0.000 A 
ATOM      2  C   UNL     1       0.626   8.753  20.913  0.00  0.00    +0.000 A 
ATOM      3  C   UNL     1       1.454   7.635  20.950  0.00  0.00    +0.000 A 
ATOM      4  C   UNL     1       2.243   7.277  19.850  0.00  0.00    +0.000 A 
ATOM      5  C   UNL     1       2.274   8.143  18.746  0.00  0.00    +0.000 A 
ATOM      6 CL   UNL     1       3.241   7.795  17.356  0.00  0.00    +0.000 Cl
ATOM      7  C   UNL     1       1.463   9.286  18.717  0.00  0.00    +0.000 A 
ENDROOT
BRANCH   4   8
ATOM      8  N   UNL     1       2.960   6.053  19.821  0.00  0.00    +0.000 N 
ATOM      9  C   UNL     1       2.551   4.894  19.178  0.00  0.00    +0.000 C 
ATOM     10  O   UNL     1       1.489   4.772  18.558  0.00  0.00    +0.000 OA
ATOM     11  H   UNL     1       3.902   6.065  20.216  0.00  0.00    +0.000 HD
BRANCH   9  12
ATOM     12  C   UNL     1       3.547   3.738  19.193  0.00  0.00    +0.000 C 
ATOM     13  C   UNL     1       4.957   4.323  19.370  0.00  0.00    +0.000 C 
BRANCH  12  14
ATOM     14  C   UNL     1       3.165   2.836  20.386  0.00  0.00    +0.000 C 
ATOM     15  F   UNL     1       2.664   3.504  21.446  0.00  0.00    +0.000 F 
ATOM     16  F   UNL     1       2.213   1.943  20.005  0.00  0.00    +0.000 F 
ATOM     17  F   UNL     1       4.213   2.101  20.830  0.00  0.00    +0.000 F 
ENDBRANCH  12  14
BRANCH  12  18
ATOM     18  O   UNL     1       3.529   3.042  17.929  0.00  0.00    +0.000 OA
ATOM     19  H   UNL     1       4.330   3.311  17.441  0.00  0.00    +0.000 HD
ENDBRANCH  12  18
ENDBRANCH   9  12
ENDBRANCH   4   8
BRANCH   1  20
ATOM     20  N   UNL     1      -0.356  10.612  19.666  0.00  0.00    +0.000 N 
ATOM     21  C   UNL     1      -1.370  10.524  18.604  0.00  0.00    +0.000 C 
BRANCH  20  22
ATOM     22  S   UNL     1       0.034  12.122  20.341  0.00  0.00    +0.000 S 
ATOM     23  O   UNL     1      -0.062  13.129  19.304  0.00  0.00    +0.000 OA
ATOM     24  O   UNL     1       1.267  11.968  21.093  0.00  0.00    +0.000 OA
BRANCH  22  29
ATOM     25  C   UNL     1      -4.773  12.785  24.020  0.00  0.00    +0.000 C 
ATOM     26  C   UNL     1      -3.534  12.722  23.171  0.00  0.00    +0.000 A 
ATOM     27  C   UNL     1      -3.430  13.470  21.990  0.00  0.00    +0.000 A 
ATOM     28  C   UNL     1      -2.299  13.360  21.171  0.00  0.00    +0.000 A 
ATOM     29  C   UNL     1      -1.255  12.502  21.534  0.00  0.00    +0.000 A 
ATOM     30  C   UNL     1      -1.350  11.752  22.713  0.00  0.00    +0.000 A 
ATOM     31  C   UNL     1      -2.484  11.866  23.526  0.00  0.00    +0.000 A 
ENDBRANCH  22  29
ENDBRANCH  20  22
ENDBRANCH   1  20
TORSDOF 7
ENDMDL
MODEL 7
REMARK VINA RESULT:      -7.5      1.373      1.831
REMARK  Name = 
REMARK  10 active torsions:
REMARK  status: ('A' for Active; 'I' for Inactive)
REMARK    1  A    between atoms: C_1  and  C_2
REMARK    2  A    between atoms: C_5  and  S_6
REMARK    3  A    between atoms: S_6  and  N_9
REMARK    4  A    between atoms: N_9  and  C_10
REMARK    5  A    between atoms: N_9  and  C_11
REMARK    6  A    between atoms: C_14  and  N_15
REMARK    7  A    between atoms: C_16  and  C_18
REMARK    8  A    between atoms: C_18  and  C_19
REMARK    9  A    between atoms: C_18  and  O_20
REMARK   10  A    between atoms: C_18  and  C_21
REMARK                            x       y       z     vdW  Elec       q    Type
REMARK                         _______ _______ _______ _____ _____    ______ ____
ROOT
ATOM      1  C   UNL     1       2.491   6.499  18.882  0.00  0.00    +0.000 A 
ATOM      2  C   UNL     1       2.584   7.458  17.882  0.00  0.00    +0.000 A 
ATOM      3  C   UNL     1       2.166   8.762  18.132  0.00  0.00    +0.000 A 
ATOM      4  C   UNL     1       1.606   9.124  19.364  0.00  0.00    +0.000 A 
ATOM      5  C   UNL     1       1.587   8.167  20.390  0.00  0.00    +0.000 A 
ATOM      6 CL   UNL     1       0.940   8.534  21.950  0.00  0.00    +0.000 Cl
ATOM      7  C   UNL     1       2.033   6.860  20.151  0.00  0.00    +0.000 A 
ENDROOT
BRANCH   4   8
ATOM      8  N   UNL     1       1.031  10.405  19.567  0.00  0.00    +0.000 N 
ATOM      9  C   UNL     1      -0.281  10.753  19.285  0.00  0.00    +0.000 C 
ATOM     10  O   UNL     1      -1.122   9.989  18.798  0.00  0.00    +0.000 OA
ATOM     11  H   UNL     1       1.605  11.091  20.060  0.00  0.00    +0.000 HD
BRANCH   9  12
ATOM     12  C   UNL     1      -0.699  12.163  19.696  0.00  0.00    +0.000 C 
ATOM     13  C   UNL     1       0.153  12.580  20.904  0.00  0.00    +0.000 C 
BRANCH  12  14
ATOM     14  C   UNL     1      -0.430  13.078  18.482  0.00  0.00    +0.000 C 
ATOM     15  F   UNL     1      -0.651  14.388  18.717  0.00  0.00    +0.000 F 
ATOM     16  F   UNL     1       0.870  12.967  18.097  0.00  0.00    +0.000 F 
ATOM     17  F   UNL     1      -1.172  12.729  17.403  0.00  0.00    +0.000 F 
ENDBRANCH  12  14
BRANCH  12  18
ATOM     18  O   UNL     1      -2.079  12.175  20.119  0.00  0.00    +0.000 OA
ATOM     19  H   UNL     1      -2.593  12.603  19.408  0.00  0.00    +0.000 HD
ENDBRANCH  12  18
ENDBRANCH   9  12
ENDBRANCH   4   8
BRANCH   1  20
ATOM     20  N   UNL     1       2.753   5.125  18.589  0.00  0.00    +0.000 N 
ATOM     21  C   UNL     1       1.639   4.166  18.627  0.00  0.00    +0.000 C 
BRANCH  20  22
ATOM     22  S   UNL     1       4.351   4.572  18.771  0.00  0.00    +0.000 S 
ATOM     23  O   UNL     1       4.324   3.134  18.943  0.00  0.00    +0.000 OA
ATOM     24  O   UNL     1       5.002   5.411  19.761  0.00  0.00    +0.000 OA
BRANCH  22  29
ATOM     25  C   UNL     1       7.482   4.829  13.555  0.00  0.00    +0.000 C 
ATOM     26  C   UNL     1       6.674   4.887  14.822  0.00  0.00    +0.000 A 
ATOM     27  C   UNL     1       7.242   5.344  16.018  0.00  0.00    +0.000 A 
ATOM     28  C   UNL     1       6.504   5.338  17.209  0.00  0.00    +0.000 A 
ATOM     29  C   UNL     1       5.182   4.878  17.208  0.00  0.00    +0.000 A 
ATOM     30  C   UNL     1       4.606   4.421  16.016  0.00  0.00    +0.000 A 
ATOM     31  C   UNL     1       5.351   4.429  14.830  0.00  0.00    +0.000 A 
ENDBRANCH  22  29
ENDBRANCH  20  22
ENDBRANCH   1  20
TORSDOF 7
ENDMDL
MODEL 8
REMARK VINA RESULT:      -7.4      0.931      1.522
REMARK  Name = 
REMARK  10 active torsions:
REMARK  status: ('A' for Active; 'I' for Inactive)
REMARK    1  A    between atoms: C_1  and  C_2
REMARK    2  A    between atoms: C_5  and  S_6
REMARK    3  A    between atoms: S_6  and  N_9
REMARK    4  A    between atoms: N_9  and  C_10
REMARK    5  A    between atoms: N_9  and  C_11
REMARK    6  A    between atoms: C_14  and  N_15
REMARK    7  A    between atoms: C_16  and  C_18
REMARK    8  A    between atoms: C_18  and  C_19
REMARK    9  A    between atoms: C_18  and  O_20
REMARK   10  A    between atoms: C_18  and  C_21
REMARK                            x       y       z     vdW  Elec       q    Type
REMARK                         _______ _______ _______ _____ _____    ______ ____
ROOT
ATOM      1  C   UNL     1       2.775   6.205  19.074  0.00  0.00    +0.000 A 
ATOM      2  C   UNL     1       2.675   6.990  17.933  0.00  0.00    +0.000 A 
ATOM      3  C   UNL     1       2.068   8.240  18.002  0.00  0.00    +0.000 A 
ATOM      4  C   UNL     1       1.508   8.712  19.195  0.00  0.00    +0.000 A 
ATOM      5  C   UNL     1       1.680   7.945  20.358  0.00  0.00    +0.000 A 
ATOM      6 CL   UNL     1       1.046   8.464  21.880  0.00  0.00    +0.000 Cl
ATOM      7  C   UNL     1       2.316   6.698  20.298  0.00  0.00    +0.000 A 
ENDROOT
BRANCH   4   8
ATOM      8  N   UNL     1       0.746   9.909  19.232  0.00  0.00    +0.000 N 
ATOM      9  C   UNL     1       1.166  11.146  18.766  0.00  0.00    +0.000 C 
ATOM     10  O   UNL     1       2.275  11.371  18.271  0.00  0.00    +0.000 OA
ATOM     11  H   UNL     1      -0.227   9.823  19.529  0.00  0.00    +0.000 HD
BRANCH   9  12
ATOM     12  C   UNL     1       0.125  12.262  18.812  0.00  0.00    +0.000 C 
ATOM     13  C   UNL     1      -1.196  11.706  18.259  0.00  0.00    +0.000 C 
BRANCH  12  14
ATOM     14  C   UNL     1      -0.021  12.675  20.292  0.00  0.00    +0.000 C 
ATOM     15  F   UNL     1      -0.297  13.982  20.478  0.00  0.00    +0.000 F 
ATOM     16  F   UNL     1      -1.036  11.978  20.869  0.00  0.00    +0.000 F 
ATOM     17  F   UNL     1       1.089  12.389  21.015  0.00  0.00    +0.000 F 
ENDBRANCH  12  14
BRANCH  12  18
ATOM     18  O   UNL     1       0.522  13.355  17.956  0.00  0.00    +0.000 OA
ATOM     19  H   UNL     1       1.483  13.268  17.808  0.00  0.00    +0.000 HD
ENDBRANCH  12  18
ENDBRANCH   9  12
ENDBRANCH   4   8
BRANCH   1  20
ATOM     20  N   UNL     1       3.238   4.856  18.984  0.00  0.00    +0.000 N 
ATOM     21  C   UNL     1       2.334   3.767  19.383  0.00  0.00    +0.000 C 
BRANCH  20  22
ATOM     22  S   UNL     1       4.919   4.600  18.976  0.00  0.00    +0.000 S 
ATOM     23  O   UNL     1       5.179   3.237  19.391  0.00  0.00    +0.000 OA
ATOM     24  O   UNL     1       5.540   5.706  19.682  0.00  0.00    +0.000 OA
BRANCH  22  29
ATOM     25  C   UNL     1       6.976   4.196  13.259  0.00  0.00    +0.000 C 
ATOM     26  C   UNL     1       6.440   4.418  14.646  0.00  0.00    +0.000 A 
ATOM     27  C   UNL     1       7.266   4.901  15.670  0.00  0.00    +0.000 A 
ATOM     28  C   UNL     1       6.778   5.047  16.975  0.00  0.00    +0.000 A 
ATOM     29  C   UNL     1       5.449   4.717  17.263  0.00  0.00    +0.000 A 
ATOM     30  C   UNL     1       4.616   4.235  16.246  0.00  0.00    +0.000 A 
ATOM     31  C   UNL     1       5.111   4.090  14.945  0.00  0.00    +0.000 A 
ENDBRANCH  22  29
ENDBRANCH  20  22
ENDBRANCH   1  20
TORSDOF 7
ENDMDL
MODEL 9
REMARK VINA RESULT:      -7.4      1.789      2.191
REMARK  Name = 
REMARK  10 active torsions:
REMARK  status: ('A' for Active; 'I' for Inactive)
REMARK    1  A    between atoms: C_1  and  C_2
REMARK    2  A    between atoms: C_5  and  S_6
REMARK    3  A    between atoms: S_6  and  N_9
REMARK    4  A    between atoms: N_9  and  C_10
REMARK    5  A    between atoms: N_9  and  C_11
REMARK    6  A    between atoms: C_14  and  N_15
REMARK    7  A    between atoms: C_16  and  C_18
REMARK    8  A    between atoms: C_18  and  C_19
REMARK    9  A    between atoms: C_18  and  O_20
REMARK   10  A    between atoms: C_18  and  C_21
REMARK                            x       y       z     vdW  Elec       q    Type
REMARK                         _______ _______ _______ _____ _____    ______ ____
ROOT
ATOM      1  C   UNL     1       2.561   5.507  19.229  0.00  0.00    +0.000 A 
ATOM      2  C   UNL     1       1.979   5.723  20.472  0.00  0.00    +0.000 A 
ATOM      3  C   UNL     1       1.466   6.977  20.788  0.00  0.00    +0.000 A 
ATOM      4  C   UNL     1       1.563   8.051  19.894  0.00  0.00    +0.000 A 
ATOM      5  C   UNL     1       2.085   7.803  18.615  0.00  0.00    +0.000 A 
ATOM      6 CL   UNL     1       2.217   9.062  17.438  0.00  0.00    +0.000 Cl
ATOM      7  C   UNL     1       2.577   6.534  18.282  0.00  0.00    +0.000 A 
ENDROOT
BRANCH   4   8
ATOM      8  N   UNL     1       1.191   9.366  20.274  0.00  0.00    +0.000 N 
ATOM      9  C   UNL     1       0.119   9.696  21.090  0.00  0.00    +0.000 C 
ATOM     10  O   UNL     1      -0.669   8.880  21.580  0.00  0.00    +0.000 OA
ATOM     11  H   UNL     1       1.831  10.117  20.010  0.00  0.00    +0.000 HD
BRANCH   9  12
ATOM     12  C   UNL     1      -0.013  11.175  21.448  0.00  0.00    +0.000 C 
ATOM     13  C   UNL     1       1.307  11.873  21.090  0.00  0.00    +0.000 C 
BRANCH  12  14
ATOM     14  C   UNL     1      -1.185  11.733  20.612  0.00  0.00    +0.000 C 
ATOM     15  F   UNL     1      -1.575  10.929  19.601  0.00  0.00    +0.000 F 
ATOM     16  F   UNL     1      -2.274  11.915  21.406  0.00  0.00    +0.000 F 
ATOM     17  F   UNL     1      -0.901  12.945  20.079  0.00  0.00    +0.000 F 
ENDBRANCH  12  14
BRANCH  12  18
ATOM     18  O   UNL     1      -0.208  11.331  22.871  0.00  0.00    +0.000 OA
ATOM     19  H   UNL     1       0.360  10.669  23.312  0.00  0.00    +0.000 HD
ENDBRANCH  12  18
ENDBRANCH   9  12
ENDBRANCH   4   8
BRANCH   1  20
ATOM     20  N   UNL     1       3.243   4.282  18.955  0.00  0.00    +0.000 N 
ATOM     21  C   UNL     1       2.486   3.022  19.002  0.00  0.00    +0.000 C 
BRANCH  20  22
ATOM     22  S   UNL     1       4.932   4.261  19.146  0.00  0.00    +0.000 S 
ATOM     23  O   UNL     1       5.308   3.018  19.789  0.00  0.00    +0.000 OA
ATOM     24  O   UNL     1       5.329   5.531  19.731  0.00  0.00    +0.000 OA
BRANCH  22  29
ATOM     25  C   UNL     1       7.156   4.914  13.516  0.00  0.00    +0.000 C 
ATOM     26  C   UNL     1       6.631   4.628  14.896  0.00  0.00    +0.000 A 
ATOM     27  C   UNL     1       5.292   4.269  15.097  0.00  0.00    +0.000 A 
ATOM     28  C   UNL     1       4.792   4.064  16.389  0.00  0.00    +0.000 A 
ATOM     29  C   UNL     1       5.637   4.210  17.495  0.00  0.00    +0.000 A 
ATOM     30  C   UNL     1       6.977   4.566  17.303  0.00  0.00    +0.000 A 
ATOM     31  C   UNL     1       7.469   4.771  16.008  0.00  0.00    +0.000 A 
ENDBRANCH  22  29
ENDBRANCH  20  22
ENDBRANCH   1  20
TORSDOF 7
ENDMDL
