MODEL 1
REMARK VINA RESULT:      -7.3      0.000      0.000
REMARK  Name = 
REMARK  13 active torsions:
REMARK  status: ('A' for Active; 'I' for Inactive)
REMARK    1  A    between atoms: C_1  and  C_2
REMARK    2  A    between atoms: C_2  and  O_3
REMARK    3  A    between atoms: O_3  and  P_4
REMARK    4  A    between atoms: P_4  and  C_6
REMARK    5  A    between atoms: P_4  and  O_28
REMARK    6  A    between atoms: C_6  and  C_7
REMARK    7  A    between atoms: N_9  and  C_10
REMARK    8  A    between atoms: C_10  and  C_11
REMARK    9  A    between atoms: C_13  and  N_14
REMARK   10  A    between atoms: C_24  and  O_25
REMARK   11  A    between atoms: C_26  and  O_27
REMARK   12  A    between atoms: O_28  and  C_29
REMARK   13  A    between atoms: C_29  and  C_30
REMARK                            x       y       z     vdW  Elec       q    Type
REMARK                         _______ _______ _______ _____ _____    ______ ____
ROOT
ATOM      1  C   UNL     1       3.919   3.350  20.086  0.00  0.00    +0.000 C 
ATOM      2  O   UNL     1       3.840   4.784  20.269  0.00  0.00    +0.000 OA
ATOM      3  C   UNL     1       2.447   5.179  20.350  0.00  0.00    +0.000 C 
ATOM      4  C   UNL     1       1.610   3.966  19.937  0.00  0.00    +0.000 C 
ATOM      5  C   UNL     1       2.514   2.811  20.345  0.00  0.00    +0.000 C 
ENDROOT
BRANCH   3   6
ATOM      6  N   UNL     1       2.262   6.354  19.523  0.00  0.00    +0.000 N 
ATOM      7  C   UNL     1       2.625   6.496  18.208  0.00  0.00    +0.000 A 
ATOM      8  N   UNL     1       2.412   7.715  17.760  0.00  0.00    +0.000 NA
ATOM      9  C   UNL     1       1.882   8.395  18.839  0.00  0.00    +0.000 A 
ATOM     10  C   UNL     1       1.473   9.728  19.007  0.00  0.00    +0.000 A 
ATOM     11  N   UNL     1       1.569  10.686  18.004  0.00  0.00    +0.000 N 
ATOM     12  N   UNL     1       0.943  10.096  20.194  0.00  0.00    +0.000 NA
ATOM     13  C   UNL     1       0.871   9.169  21.177  0.00  0.00    +0.000 A 
ATOM     14  N   UNL     1       1.260   7.879  21.145  0.00  0.00    +0.000 NA
ATOM     15  C   UNL     1       1.757   7.559  19.937  0.00  0.00    +0.000 A 
ATOM     16  H   UNL     1       1.621  10.283  17.075  0.00  0.00    +0.000 HD
ATOM     17  H   UNL     1       0.924  11.451  18.148  0.00  0.00    +0.000 HD
ENDBRANCH   3   6
BRANCH   4  18
ATOM     18  O   UNL     1       0.346   3.896  20.591  0.00  0.00    +0.000 OA
ATOM     19  H   UNL     1       0.165   2.944  20.743  0.00  0.00    +0.000 HD
ENDBRANCH   4  18
BRANCH   5  20
ATOM     20  O   UNL     1       2.280   2.542  21.739  0.00  0.00    +0.000 OA
ATOM     21  H   UNL     1       1.734   3.257  22.121  0.00  0.00    +0.000 HD
ENDBRANCH   5  20
BRANCH   1  22
ATOM     22  C   UNL     1       4.426   3.053  18.665  0.00  0.00    +0.000 C 
BRANCH  22  25
ATOM     23  C   UNL     1       4.720   4.573  16.732  0.00  0.00    +0.000 C 
ATOM     24  O   UNL     1       3.887   3.972  16.057  0.00  0.00    +0.000 OA
ATOM     25  N   UNL     1       5.031   4.217  18.031  0.00  0.00    +0.000 N 
ATOM     26  H   UNL     1       5.348   4.973  18.639  0.00  0.00    +0.000 HD
BRANCH  23  27
ATOM     27  C   UNL     1       5.535   5.719  16.168  0.00  0.00    +0.000 C 
BRANCH  27  28
ATOM     28  P   UNL     1       7.149   5.071  15.389  0.00  0.00    +0.000 P 
ATOM     29  O   UNL     1       7.692   4.020  16.372  0.00  0.00    +0.000 OA
BRANCH  28  30
ATOM     30  O   UNL     1       7.843   6.334  16.345  0.00  0.00    +0.000 OA
BRANCH  30  32
ATOM     31  C   UNL     1       7.595   8.296  17.680  0.00  0.00    +0.000 C 
ATOM     32  C   UNL     1       6.876   7.156  16.991  0.00  0.00    +0.000 C 
ENDBRANCH  30  32
ENDBRANCH  28  30
BRANCH  28  33
ATOM     33  O   UNL     1       6.456   3.807  14.434  0.00  0.00    +0.000 OA
BRANCH  33  34
ATOM     34  C   UNL     1       6.459   3.843  13.016  0.00  0.00    +0.000 C 
ATOM     35  C   UNL     1       5.160   3.339  12.426  0.00  0.00    +0.000 C 
ENDBRANCH  33  34
ENDBRANCH  28  33
ENDBRANCH  27  28
ENDBRANCH  23  27
ENDBRANCH  22  25
ENDBRANCH   1  22
TORSDOF 11
ENDMDL
MODEL 2
REMARK VINA RESULT:      -7.1      0.784      2.602
REMARK  Name = 
REMARK  13 active torsions:
REMARK  status: ('A' for Active; 'I' for Inactive)
REMARK    1  A    between atoms: C_1  and  C_2
REMARK    2  A    between atoms: C_2  and  O_3
REMARK    3  A    between atoms: O_3  and  P_4
REMARK    4  A    between atoms: P_4  and  C_6
REMARK    5  A    between atoms: P_4  and  O_28
REMARK    6  A    between atoms: C_6  and  C_7
REMARK    7  A    between atoms: N_9  and  C_10
REMARK    8  A    between atoms: C_10  and  C_11
REMARK    9  A    between atoms: C_13  and  N_14
REMARK   10  A    between atoms: C_24  and  O_25
REMARK   11  A    between atoms: C_26  and  O_27
REMARK   12  A    between atoms: O_28  and  C_29
REMARK   13  A    between atoms: C_29  and  C_30
REMARK                            x       y       z     vdW  Elec       q    Type
REMARK                         _______ _______ _______ _____ _____    ______ ____
ROOT
ATOM      1  C   UNL     1       4.145   3.136  19.955  0.00  0.00    +0.000 C 
ATOM      2  O   UNL     1       4.163   4.579  20.071  0.00  0.00    +0.000 OA
ATOM      3  C   UNL     1       2.818   5.054  20.333  0.00  0.00    +0.000 C 
ATOM      4  C   UNL     1       1.873   3.871  20.110  0.00  0.00    +0.000 C 
ATOM      5  C   UNL     1       2.769   2.687  20.443  0.00  0.00    +0.000 C 
ENDROOT
BRANCH   3   6
ATOM      6  N   UNL     1       2.570   6.198  19.480  0.00  0.00    +0.000 N 
ATOM      7  C   UNL     1       2.981   6.357  18.181  0.00  0.00    +0.000 A 
ATOM      8  N   UNL     1       2.683   7.547  17.704  0.00  0.00    +0.000 NA
ATOM      9  C   UNL     1       2.044   8.189  18.748  0.00  0.00    +0.000 A 
ATOM     10  C   UNL     1       1.511   9.483  18.876  0.00  0.00    +0.000 A 
ATOM     11  N   UNL     1       1.570  10.434  17.863  0.00  0.00    +0.000 N 
ATOM     12  N   UNL     1       0.895   9.815  20.032  0.00  0.00    +0.000 NA
ATOM     13  C   UNL     1       0.859   8.897  21.024  0.00  0.00    +0.000 A 
ATOM     14  N   UNL     1       1.361   7.646  21.030  0.00  0.00    +0.000 NA
ATOM     15  C   UNL     1       1.942   7.358  19.852  0.00  0.00    +0.000 A 
ATOM     16  H   UNL     1       1.701  10.027  16.944  0.00  0.00    +0.000 HD
ATOM     17  H   UNL     1       0.854  11.141  17.966  0.00  0.00    +0.000 HD
ENDBRANCH   3   6
BRANCH   4  18
ATOM     18  O   UNL     1       0.716   3.901  20.943  0.00  0.00    +0.000 OA
ATOM     19  H   UNL     1       0.877   3.255  21.663  0.00  0.00    +0.000 HD
ENDBRANCH   4  18
BRANCH   5  20
ATOM     20  O   UNL     1       2.731   2.496  21.869  0.00  0.00    +0.000 OA
ATOM     21  H   UNL     1       2.551   3.350  22.307  0.00  0.00    +0.000 HD
ENDBRANCH   5  20
BRANCH   1  22
ATOM     22  C   UNL     1       4.422   2.747  18.493  0.00  0.00    +0.000 C 
BRANCH  22  25
ATOM     23  C   UNL     1       4.445   4.211  16.495  0.00  0.00    +0.000 C 
ATOM     24  O   UNL     1       3.447   3.674  16.018  0.00  0.00    +0.000 OA
ATOM     25  N   UNL     1       4.980   3.846  17.717  0.00  0.00    +0.000 N 
ATOM     26  H   UNL     1       5.474   4.580  18.226  0.00  0.00    +0.000 HD
BRANCH  23  27
ATOM     27  C   UNL     1       5.221   5.275  15.747  0.00  0.00    +0.000 C 
BRANCH  27  28
ATOM     28  P   UNL     1       7.008   4.695  15.423  0.00  0.00    +0.000 P 
ATOM     29  O   UNL     1       7.815   5.973  15.146  0.00  0.00    +0.000 OA
BRANCH  28  30
ATOM     30  O   UNL     1       6.456   4.678  13.784  0.00  0.00    +0.000 OA
BRANCH  30  32
ATOM     31  C   UNL     1       4.994   3.468  12.339  0.00  0.00    +0.000 C 
ATOM     32  C   UNL     1       6.163   3.373  13.295  0.00  0.00    +0.000 C 
ENDBRANCH  30  32
ENDBRANCH  28  30
BRANCH  28  33
ATOM     33  O   UNL     1       7.559   4.713  17.063  0.00  0.00    +0.000 OA
BRANCH  33  34
ATOM     34  C   UNL     1       7.688   5.915  17.803  0.00  0.00    +0.000 C 
ATOM     35  C   UNL     1       7.486   5.701  19.287  0.00  0.00    +0.000 C 
ENDBRANCH  33  34
ENDBRANCH  28  33
ENDBRANCH  27  28
ENDBRANCH  23  27
ENDBRANCH  22  25
ENDBRANCH   1  22
TORSDOF 11
ENDMDL
MODEL 3
REMARK VINA RESULT:      -7.0      3.551      6.935
REMARK  Name = 
REMARK  13 active torsions:
REMARK  status: ('A' for Active; 'I' for Inactive)
REMARK    1  A    between atoms: C_1  and  C_2
REMARK    2  A    between atoms: C_2  and  O_3
REMARK    3  A    between atoms: O_3  and  P_4
REMARK    4  A    between atoms: P_4  and  C_6
REMARK    5  A    between atoms: P_4  and  O_28
REMARK    6  A    between atoms: C_6  and  C_7
REMARK    7  A    between atoms: N_9  and  C_10
REMARK    8  A    between atoms: C_10  and  C_11
REMARK    9  A    between atoms: C_13  and  N_14
REMARK   10  A    between atoms: C_24  and  O_25
REMARK   11  A    between atoms: C_26  and  O_27
REMARK   12  A    between atoms: O_28  and  C_29
REMARK   13  A    between atoms: C_29  and  C_30
REMARK                            x       y       z     vdW  Elec       q    Type
REMARK                         _______ _______ _______ _____ _____    ______ ____
ROOT
ATOM      1  C   UNL     1       1.163   3.960  19.315  0.00  0.00    +0.000 C 
ATOM      2  O   UNL     1       2.199   4.557  18.500  0.00  0.00    +0.000 OA
ATOM      3  C   UNL     1       3.262   3.592  18.295  0.00  0.00    +0.000 C 
ATOM      4  C   UNL     1       2.997   2.422  19.246  0.00  0.00    +0.000 C 
ATOM      5  C   UNL     1       1.481   2.467  19.381  0.00  0.00    +0.000 C 
ENDROOT
BRANCH   3   6
ATOM      6  N   UNL     1       4.528   4.264  18.499  0.00  0.00    +0.000 N 
ATOM      7  C   UNL     1       5.372   4.116  19.570  0.00  0.00    +0.000 A 
ATOM      8  N   UNL     1       6.401   4.936  19.514  0.00  0.00    +0.000 NA
ATOM      9  C   UNL     1       6.213   5.649  18.345  0.00  0.00    +0.000 A 
ATOM     10  C   UNL     1       6.948   6.683  17.742  0.00  0.00    +0.000 A 
ATOM     11  N   UNL     1       8.098   7.227  18.303  0.00  0.00    +0.000 N 
ATOM     12  N   UNL     1       6.529   7.161  16.550  0.00  0.00    +0.000 NA
ATOM     13  C   UNL     1       5.396   6.648  16.017  0.00  0.00    +0.000 A 
ATOM     14  N   UNL     1       4.595   5.685  16.515  0.00  0.00    +0.000 NA
ATOM     15  C   UNL     1       5.068   5.228  17.688  0.00  0.00    +0.000 A 
ATOM     16  H   UNL     1       8.545   6.607  18.969  0.00  0.00    +0.000 HD
ATOM     17  H   UNL     1       8.684   7.670  17.608  0.00  0.00    +0.000 HD
ENDBRANCH   3   6
BRANCH   4  18
ATOM     18  O   UNL     1       3.438   1.165  18.741  0.00  0.00    +0.000 OA
ATOM     19  H   UNL     1       3.241   0.502  19.436  0.00  0.00    +0.000 HD
ENDBRANCH   4  18
BRANCH   5  20
ATOM     20  O   UNL     1       0.920   1.740  18.273  0.00  0.00    +0.000 OA
ATOM     21  H   UNL     1       0.652   0.849  18.571  0.00  0.00    +0.000 HD
ENDBRANCH   5  20
BRANCH   1  22
ATOM     22  C   UNL     1       1.160   4.635  20.697  0.00  0.00    +0.000 C 
BRANCH  22  25
ATOM     23  C   UNL     1       0.969   7.096  20.911  0.00  0.00    +0.000 C 
ATOM     24  O   UNL     1      -0.220   7.036  21.215  0.00  0.00    +0.000 OA
ATOM     25  N   UNL     1       1.738   5.973  20.667  0.00  0.00    +0.000 N 
ATOM     26  H   UNL     1       2.735   6.061  20.869  0.00  0.00    +0.000 HD
BRANCH  23  27
ATOM     27  C   UNL     1       1.680   8.418  20.704  0.00  0.00    +0.000 C 
BRANCH  27  28
ATOM     28  P   UNL     1       0.447   9.866  20.825  0.00  0.00    +0.000 P 
ATOM     29  O   UNL     1       1.262  11.132  20.516  0.00  0.00    +0.000 OA
BRANCH  28  30
ATOM     30  O   UNL     1       1.004   9.897  22.462  0.00  0.00    +0.000 OA
BRANCH  30  32
ATOM     31  C   UNL     1      -1.163  10.654  23.112  0.00  0.00    +0.000 C 
ATOM     32  C   UNL     1      -0.031   9.698  23.419  0.00  0.00    +0.000 C 
ENDBRANCH  30  32
ENDBRANCH  28  30
BRANCH  28  33
ATOM     33  O   UNL     1      -0.109   9.836  19.187  0.00  0.00    +0.000 OA
BRANCH  33  34
ATOM     34  C   UNL     1      -1.316  10.464  18.787  0.00  0.00    +0.000 C 
ATOM     35  C   UNL     1      -1.694  10.128  17.361  0.00  0.00    +0.000 C 
ENDBRANCH  33  34
ENDBRANCH  28  33
ENDBRANCH  27  28
ENDBRANCH  23  27
ENDBRANCH  22  25
ENDBRANCH   1  22
TORSDOF 11
ENDMDL
MODEL 4
REMARK VINA RESULT:      -6.9      3.799      7.589
REMARK  Name = 
REMARK  13 active torsions:
REMARK  status: ('A' for Active; 'I' for Inactive)
REMARK    1  A    between atoms: C_1  and  C_2
REMARK    2  A    between atoms: C_2  and  O_3
REMARK    3  A    between atoms: O_3  and  P_4
REMARK    4  A    between atoms: P_4  and  C_6
REMARK    5  A    between atoms: P_4  and  O_28
REMARK    6  A    between atoms: C_6  and  C_7
REMARK    7  A    between atoms: N_9  and  C_10
REMARK    8  A    between atoms: C_10  and  C_11
REMARK    9  A    between atoms: C_13  and  N_14
REMARK   10  A    between atoms: C_24  and  O_25
REMARK   11  A    between atoms: C_26  and  O_27
REMARK   12  A    between atoms: O_28  and  C_29
REMARK   13  A    between atoms: C_29  and  C_30
REMARK                            x       y       z     vdW  Elec       q    Type
REMARK                         _______ _______ _______ _____ _____    ______ ____
ROOT
ATOM      1  C   UNL     1       2.823   5.372  18.704  0.00  0.00    +0.000 C 
ATOM      2  O   UNL     1       3.424   5.141  17.408  0.00  0.00    +0.000 OA
ATOM      3  C   UNL     1       4.494   4.170  17.544  0.00  0.00    +0.000 C 
ATOM      4  C   UNL     1       4.741   3.982  19.043  0.00  0.00    +0.000 C 
ATOM      5  C   UNL     1       3.369   4.285  19.627  0.00  0.00    +0.000 C 
ENDROOT
BRANCH   3   6
ATOM      6  N   UNL     1       5.637   4.650  16.796  0.00  0.00    +0.000 N 
ATOM      7  C   UNL     1       6.614   5.500  17.247  0.00  0.00    +0.000 A 
ATOM      8  N   UNL     1       7.468   5.827  16.301  0.00  0.00    +0.000 NA
ATOM      9  C   UNL     1       7.022   5.152  15.181  0.00  0.00    +0.000 A 
ATOM     10  C   UNL     1       7.487   5.109  13.856  0.00  0.00    +0.000 A 
ATOM     11  N   UNL     1       8.582   5.840  13.410  0.00  0.00    +0.000 N 
ATOM     12  N   UNL     1       6.853   4.303  12.976  0.00  0.00    +0.000 NA
ATOM     13  C   UNL     1       5.774   3.610  13.406  0.00  0.00    +0.000 A 
ATOM     14  N   UNL     1       5.218   3.597  14.634  0.00  0.00    +0.000 NA
ATOM     15  C   UNL     1       5.900   4.394  15.476  0.00  0.00    +0.000 A 
ATOM     16  H   UNL     1       9.206   6.116  14.159  0.00  0.00    +0.000 HD
ATOM     17  H   UNL     1       8.995   5.435  12.580  0.00  0.00    +0.000 HD
ENDBRANCH   3   6
BRANCH   4  18
ATOM     18  O   UNL     1       5.178   2.670  19.389  0.00  0.00    +0.000 OA
ATOM     19  H   UNL     1       4.472   2.281  19.948  0.00  0.00    +0.000 HD
ENDBRANCH   4  18
BRANCH   5  20
ATOM     20  O   UNL     1       2.590   3.076  19.567  0.00  0.00    +0.000 OA
ATOM     21  H   UNL     1       2.617   2.629  20.436  0.00  0.00    +0.000 HD
ENDBRANCH   5  20
BRANCH   1  22
ATOM     22  C   UNL     1       3.175   6.793  19.175  0.00  0.00    +0.000 C 
BRANCH  22  25
ATOM     23  C   UNL     1       1.963   8.607  18.000  0.00  0.00    +0.000 C 
ATOM     24  O   UNL     1       2.780   8.639  17.083  0.00  0.00    +0.000 OA
ATOM     25  N   UNL     1       2.054   7.717  19.055  0.00  0.00    +0.000 N 
ATOM     26  H   UNL     1       1.171   7.446  19.489  0.00  0.00    +0.000 HD
BRANCH  23  27
ATOM     27  C   UNL     1       0.818   9.594  18.091  0.00  0.00    +0.000 C 
BRANCH  27  28
ATOM     28  P   UNL     1       1.129  10.850  19.492  0.00  0.00    +0.000 P 
ATOM     29  O   UNL     1      -0.141  11.714  19.564  0.00  0.00    +0.000 OA
BRANCH  28  30
ATOM     30  O   UNL     1       1.718  11.812  18.180  0.00  0.00    +0.000 OA
BRANCH  30  32
ATOM     31  C   UNL     1       2.716  13.569  19.450  0.00  0.00    +0.000 C 
ATOM     32  C   UNL     1       1.656  13.213  18.429  0.00  0.00    +0.000 C 
ENDBRANCH  30  32
ENDBRANCH  28  30
BRANCH  28  33
ATOM     33  O   UNL     1       0.539   9.888  20.803  0.00  0.00    +0.000 OA
BRANCH  33  34
ATOM     34  C   UNL     1       0.015  10.466  21.987  0.00  0.00    +0.000 C 
ATOM     35  C   UNL     1      -0.350   9.423  23.021  0.00  0.00    +0.000 C 
ENDBRANCH  33  34
ENDBRANCH  28  33
ENDBRANCH  27  28
ENDBRANCH  23  27
ENDBRANCH  22  25
ENDBRANCH   1  22
TORSDOF 11
ENDMDL
MODEL 5
REMARK VINA RESULT:      -6.9      3.097      6.238
REMARK  Name = 
REMARK  13 active torsions:
REMARK  status: ('A' for Active; 'I' for Inactive)
REMARK    1  A    between atoms: C_1  and  C_2
REMARK    2  A    between atoms: C_2  and  O_3
REMARK    3  A    between atoms: O_3  and  P_4
REMARK    4  A    between atoms: P_4  and  C_6
REMARK    5  A    between atoms: P_4  and  O_28
REMARK    6  A    between atoms: C_6  and  C_7
REMARK    7  A    between atoms: N_9  and  C_10
REMARK    8  A    between atoms: C_10  and  C_11
REMARK    9  A    between atoms: C_13  and  N_14
REMARK   10  A    between atoms: C_24  and  O_25
REMARK   11  A    between atoms: C_26  and  O_27
REMARK   12  A    between atoms: O_28  and  C_29
REMARK   13  A    between atoms: C_29  and  C_30
REMARK                            x       y       z     vdW  Elec       q    Type
REMARK                         _______ _______ _______ _____ _____    ______ ____
ROOT
ATOM      1  C   UNL     1       2.139   3.314  17.902  0.00  0.00    +0.000 C 
ATOM      2  O   UNL     1       3.086   3.825  16.934  0.00  0.00    +0.000 OA
ATOM      3  C   UNL     1       4.430   3.697  17.466  0.00  0.00    +0.000 C 
ATOM      4  C   UNL     1       4.294   3.328  18.945  0.00  0.00    +0.000 C 
ATOM      5  C   UNL     1       2.965   2.586  18.961  0.00  0.00    +0.000 C 
ENDROOT
BRANCH   3   6
ATOM      6  N   UNL     1       5.136   4.937  17.213  0.00  0.00    +0.000 N 
ATOM      7  C   UNL     1       4.955   5.780  16.147  0.00  0.00    +0.000 A 
ATOM      8  N   UNL     1       5.814   6.777  16.147  0.00  0.00    +0.000 NA
ATOM      9  C   UNL     1       6.588   6.569  17.272  0.00  0.00    +0.000 A 
ATOM     10  C   UNL     1       7.683   7.267  17.807  0.00  0.00    +0.000 A 
ATOM     11  N   UNL     1       8.235   8.394  17.207  0.00  0.00    +0.000 N 
ATOM     12  N   UNL     1       8.216   6.837  18.972  0.00  0.00    +0.000 NA
ATOM     13  C   UNL     1       7.694   5.727  19.543  0.00  0.00    +0.000 A 
ATOM     14  N   UNL     1       6.674   4.959  19.109  0.00  0.00    +0.000 NA
ATOM     15  C   UNL     1       6.165   5.444  17.962  0.00  0.00    +0.000 A 
ATOM     16  H   UNL     1       7.593   8.860  16.575  0.00  0.00    +0.000 HD
ATOM     17  H   UNL     1       8.741   8.966  17.870  0.00  0.00    +0.000 HD
ENDBRANCH   3   6
BRANCH   4  18
ATOM     18  O   UNL     1       5.355   2.508  19.428  0.00  0.00    +0.000 OA
ATOM     19  H   UNL     1       5.504   2.768  20.362  0.00  0.00    +0.000 HD
ENDBRANCH   4  18
BRANCH   5  20
ATOM     20  O   UNL     1       3.223   1.216  18.606  0.00  0.00    +0.000 OA
ATOM     21  H   UNL     1       2.862   1.038  17.716  0.00  0.00    +0.000 HD
ENDBRANCH   5  20
BRANCH   1  22
ATOM     22  C   UNL     1       1.325   4.487  18.475  0.00  0.00    +0.000 C 
BRANCH  22  25
ATOM     23  C   UNL     1       2.531   6.640  18.688  0.00  0.00    +0.000 C 
ATOM     24  O   UNL     1       2.954   6.360  19.807  0.00  0.00    +0.000 OA
ATOM     25  N   UNL     1       1.750   5.776  17.943  0.00  0.00    +0.000 N 
ATOM     26  H   UNL     1       1.824   5.867  16.930  0.00  0.00    +0.000 HD
BRANCH  23  27
ATOM     27  C   UNL     1       2.770   7.996  18.055  0.00  0.00    +0.000 C 
BRANCH  27  28
ATOM     28  P   UNL     1       1.581   9.294  18.788  0.00  0.00    +0.000 P 
ATOM     29  O   UNL     1       0.260   9.127  18.019  0.00  0.00    +0.000 OA
BRANCH  28  30
ATOM     30  O   UNL     1       2.217  10.259  17.502  0.00  0.00    +0.000 OA
BRANCH  30  32
ATOM     31  C   UNL     1       1.555  12.008  18.984  0.00  0.00    +0.000 C 
ATOM     32  C   UNL     1       2.514  11.598  17.887  0.00  0.00    +0.000 C 
ENDBRANCH  30  32
ENDBRANCH  28  30
BRANCH  28  33
ATOM     33  O   UNL     1       0.944   8.327  20.074  0.00  0.00    +0.000 OA
BRANCH  33  34
ATOM     34  C   UNL     1       1.034   8.723  21.432  0.00  0.00    +0.000 C 
ATOM     35  C   UNL     1      -0.327   8.878  22.076  0.00  0.00    +0.000 C 
ENDBRANCH  33  34
ENDBRANCH  28  33
ENDBRANCH  27  28
ENDBRANCH  23  27
ENDBRANCH  22  25
ENDBRANCH   1  22
TORSDOF 11
ENDMDL
MODEL 6
REMARK VINA RESULT:      -6.9      3.966      7.891
REMARK  Name = 
REMARK  13 active torsions:
REMARK  status: ('A' for Active; 'I' for Inactive)
REMARK    1  A    between atoms: C_1  and  C_2
REMARK    2  A    between atoms: C_2  and  O_3
REMARK    3  A    between atoms: O_3  and  P_4
REMARK    4  A    between atoms: P_4  and  C_6
REMARK    5  A    between atoms: P_4  and  O_28
REMARK    6  A    between atoms: C_6  and  C_7
REMARK    7  A    between atoms: N_9  and  C_10
REMARK    8  A    between atoms: C_10  and  C_11
REMARK    9  A    between atoms: C_13  and  N_14
REMARK   10  A    between atoms: C_24  and  O_25
REMARK   11  A    between atoms: C_26  and  O_27
REMARK   12  A    between atoms: O_28  and  C_29
REMARK   13  A    between atoms: C_29  and  C_30
REMARK                            x       y       z     vdW  Elec       q    Type
REMARK                         _______ _______ _______ _____ _____    ______ ____
ROOT
ATOM      1  C   UNL     1       2.864   5.340  18.786  0.00  0.00    +0.000 C 
ATOM      2  O   UNL     1       3.433   5.136  17.471  0.00  0.00    +0.000 OA
ATOM      3  C   UNL     1       4.483   4.138  17.554  0.00  0.00    +0.000 C 
ATOM      4  C   UNL     1       4.757   3.897  19.040  0.00  0.00    +0.000 C 
ATOM      5  C   UNL     1       3.405   4.212  19.663  0.00  0.00    +0.000 C 
ENDROOT
BRANCH   3   6
ATOM      6  N   UNL     1       5.621   4.615  16.796  0.00  0.00    +0.000 N 
ATOM      7  C   UNL     1       6.609   5.455  17.242  0.00  0.00    +0.000 A 
ATOM      8  N   UNL     1       7.454   5.783  16.288  0.00  0.00    +0.000 NA
ATOM      9  C   UNL     1       6.990   5.119  15.169  0.00  0.00    +0.000 A 
ATOM     10  C   UNL     1       7.441   5.083  13.839  0.00  0.00    +0.000 A 
ATOM     11  N   UNL     1       8.535   5.810  13.385  0.00  0.00    +0.000 N 
ATOM     12  N   UNL     1       6.791   4.289  12.960  0.00  0.00    +0.000 NA
ATOM     13  C   UNL     1       5.712   3.599  13.397  0.00  0.00    +0.000 A 
ATOM     14  N   UNL     1       5.170   3.581  14.631  0.00  0.00    +0.000 NA
ATOM     15  C   UNL     1       5.866   4.367  15.471  0.00  0.00    +0.000 A 
ATOM     16  H   UNL     1       9.170   6.076  14.130  0.00  0.00    +0.000 HD
ATOM     17  H   UNL     1       8.936   5.408  12.548  0.00  0.00    +0.000 HD
ENDBRANCH   3   6
BRANCH   4  18
ATOM     18  O   UNL     1       5.171   2.566  19.336  0.00  0.00    +0.000 OA
ATOM     19  H   UNL     1       4.909   2.394  20.265  0.00  0.00    +0.000 HD
ENDBRANCH   4  18
BRANCH   5  20
ATOM     20  O   UNL     1       2.598   3.024  19.583  0.00  0.00    +0.000 OA
ATOM     21  H   UNL     1       2.238   2.815  20.467  0.00  0.00    +0.000 HD
ENDBRANCH   5  20
BRANCH   1  22
ATOM     22  C   UNL     1       3.259   6.737  19.292  0.00  0.00    +0.000 C 
BRANCH  22  25
ATOM     23  C   UNL     1       1.593   8.558  19.511  0.00  0.00    +0.000 C 
ATOM     24  O   UNL     1       1.913   9.060  18.436  0.00  0.00    +0.000 OA
ATOM     25  N   UNL     1       2.174   7.403  20.002  0.00  0.00    +0.000 N 
ATOM     26  H   UNL     1       1.587   6.831  20.610  0.00  0.00    +0.000 HD
BRANCH  23  27
ATOM     27  C   UNL     1       0.579   9.207  20.430  0.00  0.00    +0.000 C 
BRANCH  27  28
ATOM     28  P   UNL     1       0.125  10.948  19.801  0.00  0.00    +0.000 P 
ATOM     29  O   UNL     1      -0.828  11.535  20.855  0.00  0.00    +0.000 OA
BRANCH  28  30
ATOM     30  O   UNL     1      -1.191  10.089  19.079  0.00  0.00    +0.000 OA
BRANCH  30  32
ATOM     31  C   UNL     1      -2.790   9.827  17.328  0.00  0.00    +0.000 C 
ATOM     32  C   UNL     1      -1.664  10.679  17.873  0.00  0.00    +0.000 C 
ENDBRANCH  30  32
ENDBRANCH  28  30
BRANCH  28  33
ATOM     33  O   UNL     1       1.441  11.808  20.524  0.00  0.00    +0.000 OA
BRANCH  33  34
ATOM     34  C   UNL     1       1.880  13.064  20.037  0.00  0.00    +0.000 C 
ATOM     35  C   UNL     1       1.980  13.092  18.527  0.00  0.00    +0.000 C 
ENDBRANCH  33  34
ENDBRANCH  28  33
ENDBRANCH  27  28
ENDBRANCH  23  27
ENDBRANCH  22  25
ENDBRANCH   1  22
TORSDOF 11
ENDMDL
MODEL 7
REMARK VINA RESULT:      -6.8      1.504      1.810
REMARK  Name = 
REMARK  13 active torsions:
REMARK  status: ('A' for Active; 'I' for Inactive)
REMARK    1  A    between atoms: C_1  and  C_2
REMARK    2  A    between atoms: C_2  and  O_3
REMARK    3  A    between atoms: O_3  and  P_4
REMARK    4  A    between atoms: P_4  and  C_6
REMARK    5  A    between atoms: P_4  and  O_28
REMARK    6  A    between atoms: C_6  and  C_7
REMARK    7  A    between atoms: N_9  and  C_10
REMARK    8  A    between atoms: C_10  and  C_11
REMARK    9  A    between atoms: C_13  and  N_14
REMARK   10  A    between atoms: C_24  and  O_25
REMARK   11  A    between atoms: C_26  and  O_27
REMARK   12  A    between atoms: O_28  and  C_29
REMARK   13  A    between atoms: C_29  and  C_30
REMARK                            x       y       z     vdW  Elec       q    Type
REMARK                         _______ _______ _______ _____ _____    ______ ____
ROOT
ATOM      1  C   UNL     1       3.950   4.644  19.871  0.00  0.00    +0.000 C 
ATOM      2  O   UNL     1       3.079   5.733  20.257  0.00  0.00    +0.000 OA
ATOM      3  C   UNL     1       2.016   5.865  19.279  0.00  0.00    +0.000 C 
ATOM      4  C   UNL     1       2.390   4.981  18.087  0.00  0.00    +0.000 C 
ATOM      5  C   UNL     1       3.226   3.897  18.751  0.00  0.00    +0.000 C 
ENDROOT
BRANCH   3   6
ATOM      6  N   UNL     1       1.860   7.271  18.967  0.00  0.00    +0.000 N 
ATOM      7  C   UNL     1       2.207   7.894  17.796  0.00  0.00    +0.000 A 
ATOM      8  N   UNL     1       2.031   9.197  17.852  0.00  0.00    +0.000 NA
ATOM      9  C   UNL     1       1.544   9.428  19.124  0.00  0.00    +0.000 A 
ATOM     10  C   UNL     1       1.186  10.607  19.799  0.00  0.00    +0.000 A 
ATOM     11  N   UNL     1       1.300  11.872  19.234  0.00  0.00    +0.000 N 
ATOM     12  N   UNL     1       0.688  10.508  21.051  0.00  0.00    +0.000 NA
ATOM     13  C   UNL     1       0.599   9.278  21.609  0.00  0.00    +0.000 A 
ATOM     14  N   UNL     1       0.940   8.088  21.076  0.00  0.00    +0.000 NA
ATOM     15  C   UNL     1       1.406   8.239  19.824  0.00  0.00    +0.000 A 
ATOM     16  H   UNL     1       1.323  11.853  18.221  0.00  0.00    +0.000 HD
ATOM     17  H   UNL     1       0.686  12.542  19.678  0.00  0.00    +0.000 HD
ENDBRANCH   3   6
BRANCH   4  18
ATOM     18  O   UNL     1       1.263   4.430  17.410  0.00  0.00    +0.000 OA
ATOM     19  H   UNL     1       1.372   3.456  17.438  0.00  0.00    +0.000 HD
ENDBRANCH   4  18
BRANCH   5  20
ATOM     20  O   UNL     1       2.325   2.896  19.256  0.00  0.00    +0.000 OA
ATOM     21  H   UNL     1       1.769   2.561  18.526  0.00  0.00    +0.000 HD
ENDBRANCH   5  20
BRANCH   1  22
ATOM     22  C   UNL     1       5.307   5.218  19.432  0.00  0.00    +0.000 C 
BRANCH  22  25
ATOM     23  C   UNL     1       7.059   4.463  17.851  0.00  0.00    +0.000 C 
ATOM     24  O   UNL     1       7.950   4.583  18.690  0.00  0.00    +0.000 OA
ATOM     25  N   UNL     1       5.729   4.722  18.128  0.00  0.00    +0.000 N 
ATOM     26  H   UNL     1       5.048   4.195  17.580  0.00  0.00    +0.000 HD
BRANCH  23  27
ATOM     27  C   UNL     1       7.355   4.091  16.413  0.00  0.00    +0.000 C 
BRANCH  27  28
ATOM     28  P   UNL     1       6.647   5.402  15.224  0.00  0.00    +0.000 P 
ATOM     29  O   UNL     1       7.655   5.500  14.067  0.00  0.00    +0.000 OA
BRANCH  28  30
ATOM     30  O   UNL     1       7.629   6.458  16.179  0.00  0.00    +0.000 OA
BRANCH  30  32
ATOM     31  C   UNL     1       7.831   8.259  17.731  0.00  0.00    +0.000 C 
ATOM     32  C   UNL     1       6.895   7.497  16.818  0.00  0.00    +0.000 C 
ENDBRANCH  30  32
ENDBRANCH  28  30
BRANCH  28  33
ATOM     33  O   UNL     1       5.666   4.346  14.269  0.00  0.00    +0.000 OA
BRANCH  33  34
ATOM     34  C   UNL     1       6.142   3.748  13.075  0.00  0.00    +0.000 C 
ATOM     35  C   UNL     1       5.020   3.402  12.119  0.00  0.00    +0.000 C 
ENDBRANCH  33  34
ENDBRANCH  28  33
ENDBRANCH  27  28
ENDBRANCH  23  27
ENDBRANCH  22  25
ENDBRANCH   1  22
TORSDOF 11
ENDMDL
MODEL 8
REMARK VINA RESULT:      -6.8      3.695      6.874
REMARK  Name = 
REMARK  13 active torsions:
REMARK  status: ('A' for Active; 'I' for Inactive)
REMARK    1  A    between atoms: C_1  and  C_2
REMARK    2  A    between atoms: C_2  and  O_3
REMARK    3  A    between atoms: O_3  and  P_4
REMARK    4  A    between atoms: P_4  and  C_6
REMARK    5  A    between atoms: P_4  and  O_28
REMARK    6  A    between atoms: C_6  and  C_7
REMARK    7  A    between atoms: N_9  and  C_10
REMARK    8  A    between atoms: C_10  and  C_11
REMARK    9  A    between atoms: C_13  and  N_14
REMARK   10  A    between atoms: C_24  and  O_25
REMARK   11  A    between atoms: C_26  and  O_27
REMARK   12  A    between atoms: O_28  and  C_29
REMARK   13  A    between atoms: C_29  and  C_30
REMARK                            x       y       z     vdW  Elec       q    Type
REMARK                         _______ _______ _______ _____ _____    ______ ____
ROOT
ATOM      1  C   UNL     1       1.862   4.396  19.814  0.00  0.00    +0.000 C 
ATOM      2  O   UNL     1       2.365   4.905  18.556  0.00  0.00    +0.000 OA
ATOM      3  C   UNL     1       3.666   4.323  18.290  0.00  0.00    +0.000 C 
ATOM      4  C   UNL     1       4.113   3.616  19.572  0.00  0.00    +0.000 C 
ATOM      5  C   UNL     1       2.779   3.236  20.200  0.00  0.00    +0.000 C 
ENDROOT
BRANCH   3   6
ATOM      6  N   UNL     1       4.550   5.379  17.841  0.00  0.00    +0.000 N 
ATOM      7  C   UNL     1       4.355   6.210  16.767  0.00  0.00    +0.000 A 
ATOM      8  N   UNL     1       5.382   7.005  16.557  0.00  0.00    +0.000 NA
ATOM      9  C   UNL     1       6.287   6.673  17.548  0.00  0.00    +0.000 A 
ATOM     10  C   UNL     1       7.577   7.143  17.844  0.00  0.00    +0.000 A 
ATOM     11  N   UNL     1       8.228   8.111  17.087  0.00  0.00    +0.000 N 
ATOM     12  N   UNL     1       8.211   6.646  18.929  0.00  0.00    +0.000 NA
ATOM     13  C   UNL     1       7.587   5.687  19.651  0.00  0.00    +0.000 A 
ATOM     14  N   UNL     1       6.374   5.137  19.446  0.00  0.00    +0.000 NA
ATOM     15  C   UNL     1       5.776   5.682  18.371  0.00  0.00    +0.000 A 
ATOM     16  H   UNL     1       7.590   8.683  16.543  0.00  0.00    +0.000 HD
ATOM     17  H   UNL     1       8.948   8.585  17.616  0.00  0.00    +0.000 HD
ENDBRANCH   3   6
BRANCH   4  18
ATOM     18  O   UNL     1       4.924   2.468  19.338  0.00  0.00    +0.000 OA
ATOM     19  H   UNL     1       4.348   1.688  19.476  0.00  0.00    +0.000 HD
ENDBRANCH   4  18
BRANCH   5  20
ATOM     20  O   UNL     1       2.359   1.990  19.616  0.00  0.00    +0.000 OA
ATOM     21  H   UNL     1       1.395   2.016  19.455  0.00  0.00    +0.000 HD
ENDBRANCH   5  20
BRANCH   1  22
ATOM     22  C   UNL     1       1.861   5.532  20.851  0.00  0.00    +0.000 C 
BRANCH  22  25
ATOM     23  C   UNL     1       1.294   7.922  20.528  0.00  0.00    +0.000 C 
ATOM     24  O   UNL     1       0.361   7.869  21.325  0.00  0.00    +0.000 OA
ATOM     25  N   UNL     1       2.106   6.837  20.251  0.00  0.00    +0.000 N 
ATOM     26  H   UNL     1       3.063   7.055  19.969  0.00  0.00    +0.000 HD
BRANCH  23  27
ATOM     27  C   UNL     1       1.591   9.168  19.720  0.00  0.00    +0.000 C 
BRANCH  27  28
ATOM     28  P   UNL     1       0.027  10.245  19.553  0.00  0.00    +0.000 P 
ATOM     29  O   UNL     1       0.499  11.570  18.934  0.00  0.00    +0.000 OA
BRANCH  28  30
ATOM     30  O   UNL     1       0.519  10.791  21.118  0.00  0.00    +0.000 OA
BRANCH  30  32
ATOM     31  C   UNL     1      -0.871  10.507  23.036  0.00  0.00    +0.000 C 
ATOM     32  C   UNL     1      -0.528  11.402  21.864  0.00  0.00    +0.000 C 
ENDBRANCH  30  32
ENDBRANCH  28  30
BRANCH  28  33
ATOM     33  O   UNL     1      -0.465   9.699  17.987  0.00  0.00    +0.000 OA
BRANCH  33  34
ATOM     34  C   UNL     1      -1.567  10.269  17.301  0.00  0.00    +0.000 C 
ATOM     35  C   UNL     1      -2.894   9.770  17.831  0.00  0.00    +0.000 C 
ENDBRANCH  33  34
ENDBRANCH  28  33
ENDBRANCH  27  28
ENDBRANCH  23  27
ENDBRANCH  22  25
ENDBRANCH   1  22
TORSDOF 11
ENDMDL
MODEL 9
REMARK VINA RESULT:      -6.7      3.763      7.828
REMARK  Name = 
REMARK  13 active torsions:
REMARK  status: ('A' for Active; 'I' for Inactive)
REMARK    1  A    between atoms: C_1  and  C_2
REMARK    2  A    between atoms: C_2  and  O_3
REMARK    3  A    between atoms: O_3  and  P_4
REMARK    4  A    between atoms: P_4  and  C_6
REMARK    5  A    between atoms: P_4  and  O_28
REMARK    6  A    between atoms: C_6  and  C_7
REMARK    7  A    between atoms: N_9  and  C_10
REMARK    8  A    between atoms: C_10  and  C_11
REMARK    9  A    between atoms: C_13  and  N_14
REMARK   10  A    between atoms: C_24  and  O_25
REMARK   11  A    between atoms: C_26  and  O_27
REMARK   12  A    between atoms: O_28  and  C_29
REMARK   13  A    between atoms: C_29  and  C_30
REMARK                            x       y       z     vdW  Elec       q    Type
REMARK                         _______ _______ _______ _____ _____    ______ ____
ROOT
ATOM      1  C   UNL     1       2.777   5.643  18.538  0.00  0.00    +0.000 C 
ATOM      2  O   UNL     1       3.418   5.281  17.291  0.00  0.00    +0.000 OA
ATOM      3  C   UNL     1       4.537   4.401  17.566  0.00  0.00    +0.000 C 
ATOM      4  C   UNL     1       4.765   4.424  19.080  0.00  0.00    +0.000 C 
ATOM      5  C   UNL     1       3.366   4.719  19.602  0.00  0.00    +0.000 C 
ENDROOT
BRANCH   3   6
ATOM      6  N   UNL     1       5.667   4.846  16.776  0.00  0.00    +0.000 N 
ATOM      7  C   UNL     1       6.645   5.725  17.166  0.00  0.00    +0.000 A 
ATOM      8  N   UNL     1       7.483   6.005  16.191  0.00  0.00    +0.000 NA
ATOM      9  C   UNL     1       7.024   5.268  15.116  0.00  0.00    +0.000 A 
ATOM     10  C   UNL     1       7.470   5.156  13.789  0.00  0.00    +0.000 A 
ATOM     11  N   UNL     1       8.554   5.869  13.287  0.00  0.00    +0.000 N 
ATOM     12  N   UNL     1       6.828   4.302  12.962  0.00  0.00    +0.000 NA
ATOM     13  C   UNL     1       5.760   3.626  13.445  0.00  0.00    +0.000 A 
ATOM     14  N   UNL     1       5.222   3.676  14.680  0.00  0.00    +0.000 NA
ATOM     15  C   UNL     1       5.911   4.522  15.468  0.00  0.00    +0.000 A 
ATOM     16  H   UNL     1       9.188   6.188  14.011  0.00  0.00    +0.000 HD
ATOM     17  H   UNL     1       8.957   5.422  12.474  0.00  0.00    +0.000 HD
ENDBRANCH   3   6
BRANCH   4  18
ATOM     18  O   UNL     1       5.268   3.196  19.600  0.00  0.00    +0.000 OA
ATOM     19  H   UNL     1       5.285   3.294  20.575  0.00  0.00    +0.000 HD
ENDBRANCH   4  18
BRANCH   5  20
ATOM     20  O   UNL     1       2.659   3.469  19.691  0.00  0.00    +0.000 OA
ATOM     21  H   UNL     1       2.966   2.977  20.477  0.00  0.00    +0.000 HD
ENDBRANCH   5  20
BRANCH   1  22
ATOM     22  C   UNL     1       3.039   7.132  18.822  0.00  0.00    +0.000 C 
BRANCH  22  25
ATOM     23  C   UNL     1       1.552   9.024  18.235  0.00  0.00    +0.000 C 
ATOM     24  O   UNL     1       2.309   9.422  17.352  0.00  0.00    +0.000 OA
ATOM     25  N   UNL     1       1.808   7.894  18.990  0.00  0.00    +0.000 N 
ATOM     26  H   UNL     1       0.990   7.397  19.343  0.00  0.00    +0.000 HD
BRANCH  23  27
ATOM     27  C   UNL     1       0.301   9.786  18.624  0.00  0.00    +0.000 C 
BRANCH  27  28
ATOM     28  P   UNL     1       0.559  10.690  20.283  0.00  0.00    +0.000 P 
ATOM     29  O   UNL     1       1.813  10.059  20.909  0.00  0.00    +0.000 OA
BRANCH  28  30
ATOM     30  O   UNL     1      -0.405   9.382  20.877  0.00  0.00    +0.000 OA
BRANCH  30  32
ATOM     31  C   UNL     1      -0.883  10.188  23.071  0.00  0.00    +0.000 C 
ATOM     32  C   UNL     1      -0.202   9.107  22.259  0.00  0.00    +0.000 C 
ENDBRANCH  30  32
ENDBRANCH  28  30
BRANCH  28  33
ATOM     33  O   UNL     1       1.523  11.997  19.688  0.00  0.00    +0.000 OA
BRANCH  33  34
ATOM     34  C   UNL     1       1.388  13.320  20.180  0.00  0.00    +0.000 C 
ATOM     35  C   UNL     1       0.576  14.197  19.253  0.00  0.00    +0.000 C 
ENDBRANCH  33  34
ENDBRANCH  28  33
ENDBRANCH  27  28
ENDBRANCH  23  27
ENDBRANCH  22  25
ENDBRANCH   1  22
TORSDOF 11
ENDMDL
