MODEL 1
REMARK VINA RESULT:      -7.8      0.000      0.000
REMARK  Name = 
REMARK  4 active torsions:
REMARK  status: ('A' for Active; 'I' for Inactive)
REMARK    1  A    between atoms: C_2  and  C_3
REMARK    2  A    between atoms: C_3  and  S_4
REMARK    3  A    between atoms: S_4  and  C_5
REMARK    4  A    between atoms: N_14  and  C_15
REMARK                            x       y       z     vdW  Elec       q    Type
REMARK                         _______ _______ _______ _____ _____    ______ ____
ROOT
ATOM      1  C   UNL     1      -1.318  12.668  18.873  0.00  0.00    +0.000 A 
ATOM      2  N   UNL     1      -1.612  11.991  17.786  0.00  0.00    +0.000 NA
ATOM      3  N   UNL     1      -2.931  11.630  17.852  0.00  0.00    +0.000 NA
ATOM      4  C   UNL     1      -3.453  12.123  18.958  0.00  0.00    +0.000 A 
ATOM      5  N   UNL     1      -4.753  12.017  19.382  0.00  0.00    +0.000 N 
ATOM      6  C   UNL     1      -5.644  11.064  18.716  0.00  0.00    +0.000 C 
ATOM      7  C   UNL     1      -6.964  11.803  18.552  0.00  0.00    +0.000 C 
ATOM      8  C   UNL     1      -6.973  12.784  19.706  0.00  0.00    +0.000 C 
ATOM      9  C   UNL     1      -5.508  13.192  19.839  0.00  0.00    +0.000 C 
ATOM     10  N   UNL     1      -2.429  12.741  19.704  0.00  0.00    +0.000 N 
ENDROOT
BRANCH  10  11
ATOM     11  C   UNL     1      -2.520  13.096  21.081  0.00  0.00    +0.000 A 
ATOM     12  C   UNL     1      -2.580  12.028  22.007  0.00  0.00    +0.000 A 
ATOM     13  C   UNL     1      -2.819  12.256  23.358  0.00  0.00    +0.000 A 
ATOM     14  C   UNL     1      -2.919  13.559  23.823  0.00  0.00    +0.000 A 
ATOM     15  C   UNL     1      -2.822  14.626  22.926  0.00  0.00    +0.000 A 
ATOM     16  C   UNL     1      -2.672  14.405  21.551  0.00  0.00    +0.000 A 
ATOM     17 CL   UNL     1      -2.920  15.781  20.542  0.00  0.00    +0.000 Cl
ENDBRANCH  10  11
BRANCH   1  18
ATOM     18  S   UNL     1       0.246  13.353  19.140  0.00  0.00    +0.000 S 
BRANCH  18  19
ATOM     19  C   UNL     1       1.406  12.003  18.788  0.00  0.00    +0.000 C 
BRANCH  19  21
ATOM     20  O   UNL     1       0.691  10.995  20.884  0.00  0.00    +0.000 OA
ATOM     21  C   UNL     1       1.174  10.832  19.760  0.00  0.00    +0.000 C 
ATOM     22  N   UNL     1       1.519   9.552  19.330  0.00  0.00    +0.000 N 
ATOM     23  C   UNL     1       1.882   9.184  17.941  0.00  0.00    +0.000 C 
ATOM     24  C   UNL     1       2.875   8.000  17.885  0.00  0.00    +0.000 C 
ATOM     25  N   UNL     1       2.319   6.914  18.693  0.00  0.00    +0.000 N 
ATOM     26  C   UNL     1       2.565   5.604  18.331  0.00  0.00    +0.000 A 
ATOM     27  C   UNL     1       1.703   4.598  18.775  0.00  0.00    +0.000 A 
ATOM     28  C   UNL     1       1.860   3.290  18.329  0.00  0.00    +0.000 A 
ATOM     29  C   UNL     1       2.898   2.999  17.458  0.00  0.00    +0.000 A 
ATOM     30  C   UNL     1       3.718   4.041  17.066  0.00  0.00    +0.000 A 
ATOM     31  N   UNL     1       3.564   5.324  17.469  0.00  0.00    +0.000 NA
ATOM     32  C   UNL     1       2.157   7.258  20.110  0.00  0.00    +0.000 C 
ATOM     33  C   UNL     1       1.151   8.413  20.202  0.00  0.00    +0.000 C 
ENDBRANCH  19  21
ENDBRANCH  18  19
ENDBRANCH   1  18
TORSDOF 4
ENDMDL
MODEL 2
REMARK VINA RESULT:      -7.6      3.028      5.119
REMARK  Name = 
REMARK  4 active torsions:
REMARK  status: ('A' for Active; 'I' for Inactive)
REMARK    1  A    between atoms: C_2  and  C_3
REMARK    2  A    between atoms: C_3  and  S_4
REMARK    3  A    between atoms: S_4  and  C_5
REMARK    4  A    between atoms: N_14  and  C_15
REMARK                            x       y       z     vdW  Elec       q    Type
REMARK                         _______ _______ _______ _____ _____    ______ ____
ROOT
ATOM      1  C   UNL     1       0.561   9.275  20.256  0.00  0.00    +0.000 A 
ATOM      2  N   UNL     1       0.132   8.532  21.251  0.00  0.00    +0.000 NA
ATOM      3  N   UNL     1      -0.584   9.332  22.103  0.00  0.00    +0.000 NA
ATOM      4  C   UNL     1      -0.626  10.552  21.606  0.00  0.00    +0.000 A 
ATOM      5  N   UNL     1      -1.269  11.642  22.135  0.00  0.00    +0.000 N 
ATOM      6  C   UNL     1      -1.766  11.577  23.511  0.00  0.00    +0.000 C 
ATOM      7  C   UNL     1      -3.143  12.225  23.467  0.00  0.00    +0.000 C 
ATOM      8  C   UNL     1      -3.041  13.207  22.318  0.00  0.00    +0.000 C 
ATOM      9  C   UNL     1      -2.145  12.487  21.312  0.00  0.00    +0.000 C 
ATOM     10  N   UNL     1       0.171  10.595  20.444  0.00  0.00    +0.000 N 
ENDROOT
BRANCH  10  11
ATOM     11  C   UNL     1       0.638  11.786  19.815  0.00  0.00    +0.000 A 
ATOM     12  C   UNL     1       1.683  12.478  20.469  0.00  0.00    +0.000 A 
ATOM     13  C   UNL     1       2.113  13.724  20.026  0.00  0.00    +0.000 A 
ATOM     14  C   UNL     1       1.564  14.264  18.872  0.00  0.00    +0.000 A 
ATOM     15  C   UNL     1       0.558  13.573  18.192  0.00  0.00    +0.000 A 
ATOM     16  C   UNL     1       0.055  12.360  18.681  0.00  0.00    +0.000 A 
ATOM     17 CL   UNL     1      -1.405  11.808  17.947  0.00  0.00    +0.000 Cl
ENDBRANCH  10  11
BRANCH   1  18
ATOM     18  S   UNL     1       1.459   8.618  18.933  0.00  0.00    +0.000 S 
BRANCH  18  19
ATOM     19  C   UNL     1       2.718   7.567  19.709  0.00  0.00    +0.000 C 
BRANCH  19  21
ATOM     20  O   UNL     1       1.938   5.266  19.578  0.00  0.00    +0.000 OA
ATOM     21  C   UNL     1       2.668   6.148  19.116  0.00  0.00    +0.000 C 
ATOM     22  N   UNL     1       3.477   5.874  18.014  0.00  0.00    +0.000 N 
ATOM     23  C   UNL     1       4.215   6.886  17.221  0.00  0.00    +0.000 C 
ATOM     24  C   UNL     1       5.517   6.320  16.609  0.00  0.00    +0.000 C 
ATOM     25  N   UNL     1       5.174   5.093  15.889  0.00  0.00    +0.000 N 
ATOM     26  C   UNL     1       5.887   4.748  14.758  0.00  0.00    +0.000 A 
ATOM     27  C   UNL     1       5.309   3.884  13.823  0.00  0.00    +0.000 A 
ATOM     28  C   UNL     1       5.956   3.615  12.621  0.00  0.00    +0.000 A 
ATOM     29  C   UNL     1       7.189   4.199  12.378  0.00  0.00    +0.000 A 
ATOM     30  C   UNL     1       7.705   5.037  13.349  0.00  0.00    +0.000 A 
ATOM     31  N   UNL     1       7.078   5.331  14.512  0.00  0.00    +0.000 NA
ATOM     32  C   UNL     1       4.624   4.040  16.751  0.00  0.00    +0.000 C 
ATOM     33  C   UNL     1       3.312   4.560  17.351  0.00  0.00    +0.000 C 
ENDBRANCH  19  21
ENDBRANCH  18  19
ENDBRANCH   1  18
TORSDOF 4
ENDMDL
MODEL 3
REMARK VINA RESULT:      -7.6      3.567      5.873
REMARK  Name = 
REMARK  4 active torsions:
REMARK  status: ('A' for Active; 'I' for Inactive)
REMARK    1  A    between atoms: C_2  and  C_3
REMARK    2  A    between atoms: C_3  and  S_4
REMARK    3  A    between atoms: S_4  and  C_5
REMARK    4  A    between atoms: N_14  and  C_15
REMARK                            x       y       z     vdW  Elec       q    Type
REMARK                         _______ _______ _______ _____ _____    ______ ____
ROOT
ATOM      1  C   UNL     1       1.462   9.277  19.016  0.00  0.00    +0.000 A 
ATOM      2  N   UNL     1       2.086   9.574  17.899  0.00  0.00    +0.000 NA
ATOM      3  N   UNL     1       2.215  10.936  17.832  0.00  0.00    +0.000 NA
ATOM      4  C   UNL     1       1.706  11.466  18.926  0.00  0.00    +0.000 A 
ATOM      5  N   UNL     1       1.666  12.795  19.264  0.00  0.00    +0.000 N 
ATOM      6  C   UNL     1       1.972  13.799  18.242  0.00  0.00    +0.000 C 
ATOM      7  C   UNL     1       2.847  14.826  18.946  0.00  0.00    +0.000 C 
ATOM      8  C   UNL     1       2.405  14.745  20.393  0.00  0.00    +0.000 C 
ATOM      9  C   UNL     1       2.098  13.262  20.588  0.00  0.00    +0.000 C 
ATOM     10  N   UNL     1       1.128  10.439  19.700  0.00  0.00    +0.000 N 
ENDROOT
BRANCH  10  11
ATOM     11  C   UNL     1       0.210  10.639  20.771  0.00  0.00    +0.000 A 
ATOM     12  C   UNL     1      -0.856  11.538  20.531  0.00  0.00    +0.000 A 
ATOM     13  C   UNL     1      -1.721  11.921  21.550  0.00  0.00    +0.000 A 
ATOM     14  C   UNL     1      -1.591  11.349  22.807  0.00  0.00    +0.000 A 
ATOM     15  C   UNL     1      -0.568  10.428  23.048  0.00  0.00    +0.000 A 
ATOM     16  C   UNL     1       0.364  10.105  22.054  0.00  0.00    +0.000 A 
ATOM     17 CL   UNL     1       1.758   9.242  22.591  0.00  0.00    +0.000 Cl
ENDBRANCH  10  11
BRANCH   1  18
ATOM     18  S   UNL     1       1.159   7.645  19.499  0.00  0.00    +0.000 S 
BRANCH  18  19
ATOM     19  C   UNL     1       2.806   6.915  19.715  0.00  0.00    +0.000 C 
BRANCH  19  21
ATOM     20  O   UNL     1       2.226   4.567  19.456  0.00  0.00    +0.000 OA
ATOM     21  C   UNL     1       2.871   5.534  19.040  0.00  0.00    +0.000 C 
ATOM     22  N   UNL     1       3.685   5.396  17.917  0.00  0.00    +0.000 N 
ATOM     23  C   UNL     1       4.321   6.513  17.179  0.00  0.00    +0.000 C 
ATOM     24  C   UNL     1       5.660   6.098  16.523  0.00  0.00    +0.000 C 
ATOM     25  N   UNL     1       5.414   4.890  15.735  0.00  0.00    +0.000 N 
ATOM     26  C   UNL     1       6.138   4.674  14.580  0.00  0.00    +0.000 A 
ATOM     27  C   UNL     1       5.625   3.818  13.601  0.00  0.00    +0.000 A 
ATOM     28  C   UNL     1       6.276   3.676  12.380  0.00  0.00    +0.000 A 
ATOM     29  C   UNL     1       7.450   4.379  12.161  0.00  0.00    +0.000 A 
ATOM     30  C   UNL     1       7.905   5.202  13.174  0.00  0.00    +0.000 A 
ATOM     31  N   UNL     1       7.271   5.372  14.358  0.00  0.00    +0.000 NA
ATOM     32  C   UNL     1       4.970   3.745  16.538  0.00  0.00    +0.000 C 
ATOM     33  C   UNL     1       3.626   4.113  17.180  0.00  0.00    +0.000 C 
ENDBRANCH  19  21
ENDBRANCH  18  19
ENDBRANCH   1  18
TORSDOF 4
ENDMDL
MODEL 4
REMARK VINA RESULT:      -7.5      3.841     10.564
REMARK  Name = 
REMARK  4 active torsions:
REMARK  status: ('A' for Active; 'I' for Inactive)
REMARK    1  A    between atoms: C_2  and  C_3
REMARK    2  A    between atoms: C_3  and  S_4
REMARK    3  A    between atoms: S_4  and  C_5
REMARK    4  A    between atoms: N_14  and  C_15
REMARK                            x       y       z     vdW  Elec       q    Type
REMARK                         _______ _______ _______ _____ _____    ______ ____
ROOT
ATOM      1  C   UNL     1       3.670   7.149  17.868  0.00  0.00    +0.000 A 
ATOM      2  N   UNL     1       4.594   7.986  17.453  0.00  0.00    +0.000 NA
ATOM      3  N   UNL     1       5.489   7.288  16.686  0.00  0.00    +0.000 NA
ATOM      4  C   UNL     1       5.088   6.036  16.599  0.00  0.00    +0.000 A 
ATOM      5  N   UNL     1       5.686   5.019  15.897  0.00  0.00    +0.000 N 
ATOM      6  C   UNL     1       7.041   5.215  15.377  0.00  0.00    +0.000 C 
ATOM      7  C   UNL     1       7.016   4.626  13.973  0.00  0.00    +0.000 C 
ATOM      8  C   UNL     1       5.949   3.553  14.053  0.00  0.00    +0.000 C 
ATOM      9  C   UNL     1       4.912   4.151  14.999  0.00  0.00    +0.000 C 
ATOM     10  N   UNL     1       3.951   5.867  17.415  0.00  0.00    +0.000 N 
ENDROOT
BRANCH  10  11
ATOM     11  C   UNL     1       3.428   4.611  17.839  0.00  0.00    +0.000 A 
ATOM     12  C   UNL     1       2.074   4.351  17.525  0.00  0.00    +0.000 A 
ATOM     13  C   UNL     1       1.421   3.227  18.018  0.00  0.00    +0.000 A 
ATOM     14  C   UNL     1       2.131   2.297  18.764  0.00  0.00    +0.000 A 
ATOM     15  C   UNL     1       3.480   2.521  19.050  0.00  0.00    +0.000 A 
ATOM     16  C   UNL     1       4.124   3.694  18.635  0.00  0.00    +0.000 A 
ATOM     17 CL   UNL     1       5.664   3.993  19.351  0.00  0.00    +0.000 Cl
ENDBRANCH  10  11
BRANCH   1  18
ATOM     18  S   UNL     1       2.321   7.660  18.820  0.00  0.00    +0.000 S 
BRANCH  18  19
ATOM     19  C   UNL     1       1.438   8.846  17.767  0.00  0.00    +0.000 C 
BRANCH  19  21
ATOM     20  O   UNL     1       2.593  10.986  17.856  0.00  0.00    +0.000 OA
ATOM     21  C   UNL     1       1.668  10.282  18.272  0.00  0.00    +0.000 C 
ATOM     22  N   UNL     1       0.781  10.787  19.222  0.00  0.00    +0.000 N 
ATOM     23  C   UNL     1      -0.493  10.149  19.628  0.00  0.00    +0.000 C 
ATOM     24  C   UNL     1      -0.866  10.460  21.097  0.00  0.00    +0.000 C 
ATOM     25  N   UNL     1      -0.812  11.911  21.272  0.00  0.00    +0.000 N 
ATOM     26  C   UNL     1      -1.675  12.521  22.160  0.00  0.00    +0.000 A 
ATOM     27  C   UNL     1      -1.965  13.880  22.010  0.00  0.00    +0.000 A 
ATOM     28  C   UNL     1      -2.921  14.489  22.816  0.00  0.00    +0.000 A 
ATOM     29  C   UNL     1      -3.562  13.731  23.783  0.00  0.00    +0.000 A 
ATOM     30  C   UNL     1      -3.221  12.395  23.883  0.00  0.00    +0.000 A 
ATOM     31  N   UNL     1      -2.313  11.780  23.089  0.00  0.00    +0.000 NA
ATOM     32  C   UNL     1       0.522  12.481  21.049  0.00  0.00    +0.000 C 
ATOM     33  C   UNL     1       0.910  12.216  19.588  0.00  0.00    +0.000 C 
ENDBRANCH  19  21
ENDBRANCH  18  19
ENDBRANCH   1  18
TORSDOF 4
ENDMDL
MODEL 5
REMARK VINA RESULT:      -7.5      3.379      5.684
REMARK  Name = 
REMARK  4 active torsions:
REMARK  status: ('A' for Active; 'I' for Inactive)
REMARK    1  A    between atoms: C_2  and  C_3
REMARK    2  A    between atoms: C_3  and  S_4
REMARK    3  A    between atoms: S_4  and  C_5
REMARK    4  A    between atoms: N_14  and  C_15
REMARK                            x       y       z     vdW  Elec       q    Type
REMARK                         _______ _______ _______ _____ _____    ______ ____
ROOT
ATOM      1  C   UNL     1       1.637  10.289  18.525  0.00  0.00    +0.000 A 
ATOM      2  N   UNL     1       2.261  10.855  17.517  0.00  0.00    +0.000 NA
ATOM      3  N   UNL     1       2.518  12.158  17.853  0.00  0.00    +0.000 NA
ATOM      4  C   UNL     1       2.088  12.374  19.080  0.00  0.00    +0.000 A 
ATOM      5  N   UNL     1       2.184  13.538  19.801  0.00  0.00    +0.000 N 
ATOM      6  C   UNL     1       2.562  14.773  19.112  0.00  0.00    +0.000 C 
ATOM      7  C   UNL     1       3.547  15.462  20.045  0.00  0.00    +0.000 C 
ATOM      8  C   UNL     1       3.133  14.985  21.422  0.00  0.00    +0.000 C 
ATOM      9  C   UNL     1       2.690  13.544  21.181  0.00  0.00    +0.000 C 
ATOM     10  N   UNL     1       1.433  11.215  19.540  0.00  0.00    +0.000 N 
ENDROOT
BRANCH  10  11
ATOM     11  C   UNL     1       0.562  11.159  20.668  0.00  0.00    +0.000 A 
ATOM     12  C   UNL     1       0.904  10.237  21.685  0.00  0.00    +0.000 A 
ATOM     13  C   UNL     1       0.050   9.994  22.755  0.00  0.00    +0.000 A 
ATOM     14  C   UNL     1      -1.122  10.727  22.874  0.00  0.00    +0.000 A 
ATOM     15  C   UNL     1      -1.453  11.670  21.897  0.00  0.00    +0.000 A 
ATOM     16  C   UNL     1      -0.645  11.858  20.769  0.00  0.00    +0.000 A 
ATOM     17 CL   UNL     1      -1.347  12.783  19.494  0.00  0.00    +0.000 Cl
ENDBRANCH  10  11
BRANCH   1  18
ATOM     18  S   UNL     1       1.190   8.619  18.513  0.00  0.00    +0.000 S 
BRANCH  18  19
ATOM     19  C   UNL     1       2.527   7.779  19.405  0.00  0.00    +0.000 C 
BRANCH  19  21
ATOM     20  O   UNL     1       1.999   5.406  19.515  0.00  0.00    +0.000 OA
ATOM     21  C   UNL     1       2.628   6.310  18.957  0.00  0.00    +0.000 C 
ATOM     22  N   UNL     1       3.456   6.016  17.874  0.00  0.00    +0.000 N 
ATOM     23  C   UNL     1       4.076   7.017  16.974  0.00  0.00    +0.000 C 
ATOM     24  C   UNL     1       5.430   6.535  16.401  0.00  0.00    +0.000 C 
ATOM     25  N   UNL     1       5.218   5.213  15.811  0.00  0.00    +0.000 N 
ATOM     26  C   UNL     1       5.958   4.834  14.708  0.00  0.00    +0.000 A 
ATOM     27  C   UNL     1       5.473   3.825  13.873  0.00  0.00    +0.000 A 
ATOM     28  C   UNL     1       6.139   3.508  12.693  0.00  0.00    +0.000 A 
ATOM     29  C   UNL     1       7.300   4.194  12.375  0.00  0.00    +0.000 A 
ATOM     30  C   UNL     1       7.727   5.175  13.250  0.00  0.00    +0.000 A 
ATOM     31  N   UNL     1       7.078   5.514  14.388  0.00  0.00    +0.000 NA
ATOM     32  C   UNL     1       4.789   4.198  16.781  0.00  0.00    +0.000 C 
ATOM     33  C   UNL     1       3.431   4.632  17.347  0.00  0.00    +0.000 C 
ENDBRANCH  19  21
ENDBRANCH  18  19
ENDBRANCH   1  18
TORSDOF 4
ENDMDL
MODEL 6
REMARK VINA RESULT:      -7.4      3.656     10.611
REMARK  Name = 
REMARK  4 active torsions:
REMARK  status: ('A' for Active; 'I' for Inactive)
REMARK    1  A    between atoms: C_2  and  C_3
REMARK    2  A    between atoms: C_3  and  S_4
REMARK    3  A    between atoms: S_4  and  C_5
REMARK    4  A    between atoms: N_14  and  C_15
REMARK                            x       y       z     vdW  Elec       q    Type
REMARK                         _______ _______ _______ _____ _____    ______ ____
ROOT
ATOM      1  C   UNL     1       3.543   7.246  17.855  0.00  0.00    +0.000 A 
ATOM      2  N   UNL     1       4.465   8.094  17.460  0.00  0.00    +0.000 NA
ATOM      3  N   UNL     1       5.402   7.401  16.740  0.00  0.00    +0.000 NA
ATOM      4  C   UNL     1       5.030   6.139  16.660  0.00  0.00    +0.000 A 
ATOM      5  N   UNL     1       5.673   5.123  15.999  0.00  0.00    +0.000 N 
ATOM      6  C   UNL     1       7.043   5.337  15.527  0.00  0.00    +0.000 C 
ATOM      7  C   UNL     1       7.082   4.723  14.135  0.00  0.00    +0.000 C 
ATOM      8  C   UNL     1       6.035   3.630  14.194  0.00  0.00    +0.000 C 
ATOM      9  C   UNL     1       4.951   4.224  15.090  0.00  0.00    +0.000 C 
ATOM     10  N   UNL     1       3.867   5.961  17.436  0.00  0.00    +0.000 N 
ENDROOT
BRANCH  10  11
ATOM     11  C   UNL     1       3.353   4.703  17.864  0.00  0.00    +0.000 A 
ATOM     12  C   UNL     1       1.993   4.443  17.573  0.00  0.00    +0.000 A 
ATOM     13  C   UNL     1       1.351   3.315  18.072  0.00  0.00    +0.000 A 
ATOM     14  C   UNL     1       2.075   2.383  18.801  0.00  0.00    +0.000 A 
ATOM     15  C   UNL     1       3.429   2.607  19.062  0.00  0.00    +0.000 A 
ATOM     16  C   UNL     1       4.064   3.783  18.642  0.00  0.00    +0.000 A 
ATOM     17 CL   UNL     1       5.616   4.081  19.331  0.00  0.00    +0.000 Cl
ENDBRANCH  10  11
BRANCH   1  18
ATOM     18  S   UNL     1       2.149   7.746  18.746  0.00  0.00    +0.000 S 
BRANCH  18  19
ATOM     19  C   UNL     1       1.921   9.490  18.302  0.00  0.00    +0.000 C 
BRANCH  19  21
ATOM     20  O   UNL     1      -0.350   9.485  17.429  0.00  0.00    +0.000 OA
ATOM     21  C   UNL     1       0.426   9.854  18.316  0.00  0.00    +0.000 C 
ATOM     22  N   UNL     1      -0.049  10.617  19.381  0.00  0.00    +0.000 N 
ATOM     23  C   UNL     1       0.708  10.924  20.618  0.00  0.00    +0.000 C 
ATOM     24  C   UNL     1       0.308  12.288  21.230  0.00  0.00    +0.000 C 
ATOM     25  N   UNL     1      -1.148  12.302  21.370  0.00  0.00    +0.000 N 
ATOM     26  C   UNL     1      -1.723  12.996  22.417  0.00  0.00    +0.000 A 
ATOM     27  C   UNL     1      -3.011  12.656  22.838  0.00  0.00    +0.000 A 
ATOM     28  C   UNL     1      -3.565  13.257  23.963  0.00  0.00    +0.000 A 
ATOM     29  C   UNL     1      -2.828  14.212  24.644  0.00  0.00    +0.000 A 
ATOM     30  C   UNL     1      -1.563  14.506  24.169  0.00  0.00    +0.000 A 
ATOM     31  N   UNL     1      -0.998  13.912  23.091  0.00  0.00    +0.000 NA
ATOM     32  C   UNL     1      -1.863  12.191  20.094  0.00  0.00    +0.000 C 
ATOM     33  C   UNL     1      -1.511  10.833  19.473  0.00  0.00    +0.000 C 
ENDBRANCH  19  21
ENDBRANCH  18  19
ENDBRANCH   1  18
TORSDOF 4
ENDMDL
MODEL 7
REMARK VINA RESULT:      -7.4      2.548      4.372
REMARK  Name = 
REMARK  4 active torsions:
REMARK  status: ('A' for Active; 'I' for Inactive)
REMARK    1  A    between atoms: C_2  and  C_3
REMARK    2  A    between atoms: C_3  and  S_4
REMARK    3  A    between atoms: S_4  and  C_5
REMARK    4  A    between atoms: N_14  and  C_15
REMARK                            x       y       z     vdW  Elec       q    Type
REMARK                         _______ _______ _______ _____ _____    ______ ____
ROOT
ATOM      1  C   UNL     1       0.938  12.079  20.777  0.00  0.00    +0.000 A 
ATOM      2  N   UNL     1       2.044  12.780  20.886  0.00  0.00    +0.000 NA
ATOM      3  N   UNL     1       1.824  14.014  20.334  0.00  0.00    +0.000 NA
ATOM      4  C   UNL     1       0.572  14.080  19.926  0.00  0.00    +0.000 A 
ATOM      5  N   UNL     1      -0.057  15.153  19.347  0.00  0.00    +0.000 N 
ATOM      6  C   UNL     1       0.749  16.282  18.877  0.00  0.00    +0.000 C 
ATOM      7  C   UNL     1      -0.020  17.524  19.305  0.00  0.00    +0.000 C 
ATOM      8  C   UNL     1      -1.463  17.062  19.330  0.00  0.00    +0.000 C 
ATOM      9  C   UNL     1      -1.367  15.620  19.821  0.00  0.00    +0.000 C 
ATOM     10  N   UNL     1      -0.032  12.821  20.115  0.00  0.00    +0.000 N 
ENDROOT
BRANCH  10  11
ATOM     11  C   UNL     1      -1.252  12.400  19.510  0.00  0.00    +0.000 A 
ATOM     12  C   UNL     1      -1.183  12.005  18.154  0.00  0.00    +0.000 A 
ATOM     13  C   UNL     1      -2.331  11.720  17.425  0.00  0.00    +0.000 A 
ATOM     14  C   UNL     1      -3.565  11.740  18.059  0.00  0.00    +0.000 A 
ATOM     15  C   UNL     1      -3.645  12.089  19.410  0.00  0.00    +0.000 A 
ATOM     16  C   UNL     1      -2.505  12.467  20.129  0.00  0.00    +0.000 A 
ATOM     17 CL   UNL     1      -2.798  13.202  21.661  0.00  0.00    +0.000 Cl
ENDBRANCH  10  11
BRANCH   1  18
ATOM     18  S   UNL     1       0.791  10.479  21.413  0.00  0.00    +0.000 S 
BRANCH  18  19
ATOM     19  C   UNL     1       0.835   9.399  19.955  0.00  0.00    +0.000 C 
BRANCH  19  21
ATOM     20  O   UNL     1       1.276   7.486  21.393  0.00  0.00    +0.000 OA
ATOM     21  C   UNL     1       1.477   8.046  20.311  0.00  0.00    +0.000 C 
ATOM     22  N   UNL     1       2.302   7.447  19.360  0.00  0.00    +0.000 N 
ATOM     23  C   UNL     1       2.441   7.885  17.951  0.00  0.00    +0.000 C 
ATOM     24  C   UNL     1       3.847   7.586  17.378  0.00  0.00    +0.000 C 
ATOM     25  N   UNL     1       4.138   6.174  17.624  0.00  0.00    +0.000 N 
ATOM     26  C   UNL     1       4.913   5.473  16.722  0.00  0.00    +0.000 A 
ATOM     27  C   UNL     1       4.819   4.079  16.678  0.00  0.00    +0.000 A 
ATOM     28  C   UNL     1       5.499   3.359  15.700  0.00  0.00    +0.000 A 
ATOM     29  C   UNL     1       6.286   4.046  14.789  0.00  0.00    +0.000 A 
ATOM     30  C   UNL     1       6.340   5.423  14.896  0.00  0.00    +0.000 A 
ATOM     31  N   UNL     1       5.665   6.141  15.824  0.00  0.00    +0.000 NA
ATOM     32  C   UNL     1       4.183   5.822  19.048  0.00  0.00    +0.000 C 
ATOM     33  C   UNL     1       2.792   6.078  19.641  0.00  0.00    +0.000 C 
ENDBRANCH  19  21
ENDBRANCH  18  19
ENDBRANCH   1  18
TORSDOF 4
ENDMDL
MODEL 8
REMARK VINA RESULT:      -7.4      3.505     10.725
REMARK  Name = 
REMARK  4 active torsions:
REMARK  status: ('A' for Active; 'I' for Inactive)
REMARK    1  A    between atoms: C_2  and  C_3
REMARK    2  A    between atoms: C_3  and  S_4
REMARK    3  A    between atoms: S_4  and  C_5
REMARK    4  A    between atoms: N_14  and  C_15
REMARK                            x       y       z     vdW  Elec       q    Type
REMARK                         _______ _______ _______ _____ _____    ______ ____
ROOT
ATOM      1  C   UNL     1       3.136   6.805  18.190  0.00  0.00    +0.000 A 
ATOM      2  N   UNL     1       3.916   7.796  17.822  0.00  0.00    +0.000 NA
ATOM      3  N   UNL     1       4.935   7.279  17.067  0.00  0.00    +0.000 NA
ATOM      4  C   UNL     1       4.754   5.980  16.940  0.00  0.00    +0.000 A 
ATOM      5  N   UNL     1       5.532   5.097  16.234  0.00  0.00    +0.000 N 
ATOM      6  C   UNL     1       6.848   5.531  15.760  0.00  0.00    +0.000 C 
ATOM      7  C   UNL     1       6.959   4.984  14.344  0.00  0.00    +0.000 C 
ATOM      8  C   UNL     1       6.088   3.746  14.367  0.00  0.00    +0.000 C 
ATOM      9  C   UNL     1       4.939   4.136  15.295  0.00  0.00    +0.000 C 
ATOM     10  N   UNL     1       3.641   5.601  17.717  0.00  0.00    +0.000 N 
ENDROOT
BRANCH  10  11
ATOM     11  C   UNL     1       3.326   4.264  18.098  0.00  0.00    +0.000 A 
ATOM     12  C   UNL     1       2.034   3.798  17.761  0.00  0.00    +0.000 A 
ATOM     13  C   UNL     1       1.569   2.568  18.212  0.00  0.00    +0.000 A 
ATOM     14  C   UNL     1       2.416   1.743  18.939  0.00  0.00    +0.000 A 
ATOM     15  C   UNL     1       3.709   2.173  19.246  0.00  0.00    +0.000 A 
ATOM     16  C   UNL     1       4.156   3.447  18.874  0.00  0.00    +0.000 A 
ATOM     17 CL   UNL     1       5.622   3.970  19.616  0.00  0.00    +0.000 Cl
ENDBRANCH  10  11
BRANCH   1  18
ATOM     18  S   UNL     1       1.695   7.057  19.111  0.00  0.00    +0.000 S 
BRANCH  18  19
ATOM     19  C   UNL     1       1.825   8.764  19.711  0.00  0.00    +0.000 C 
BRANCH  19  21
ATOM     20  O   UNL     1       0.602   9.733  17.844  0.00  0.00    +0.000 OA
ATOM     21  C   UNL     1       0.736   9.641  19.068  0.00  0.00    +0.000 C 
ATOM     22  N   UNL     1      -0.124  10.337  19.916  0.00  0.00    +0.000 N 
ATOM     23  C   UNL     1      -0.229  10.137  21.381  0.00  0.00    +0.000 C 
ATOM     24  C   UNL     1      -0.638  11.431  22.124  0.00  0.00    +0.000 C 
ATOM     25  N   UNL     1      -1.843  11.952  21.478  0.00  0.00    +0.000 N 
ATOM     26  C   UNL     1      -2.783  12.624  22.235  0.00  0.00    +0.000 A 
ATOM     27  C   UNL     1      -4.098  12.713  21.772  0.00  0.00    +0.000 A 
ATOM     28  C   UNL     1      -5.087  13.280  22.569  0.00  0.00    +0.000 A 
ATOM     29  C   UNL     1      -4.742  13.773  23.817  0.00  0.00    +0.000 A 
ATOM     30  C   UNL     1      -3.421  13.660  24.209  0.00  0.00    +0.000 A 
ATOM     31  N   UNL     1      -2.451  13.088  23.457  0.00  0.00    +0.000 NA
ATOM     32  C   UNL     1      -1.644  12.322  20.072  0.00  0.00    +0.000 C 
ATOM     33  C   UNL     1      -1.265  11.053  19.300  0.00  0.00    +0.000 C 
ENDBRANCH  19  21
ENDBRANCH  18  19
ENDBRANCH   1  18
TORSDOF 4
ENDMDL
MODEL 9
REMARK VINA RESULT:      -7.4      1.201      1.552
REMARK  Name = 
REMARK  4 active torsions:
REMARK  status: ('A' for Active; 'I' for Inactive)
REMARK    1  A    between atoms: C_2  and  C_3
REMARK    2  A    between atoms: C_3  and  S_4
REMARK    3  A    between atoms: S_4  and  C_5
REMARK    4  A    between atoms: N_14  and  C_15
REMARK                            x       y       z     vdW  Elec       q    Type
REMARK                         _______ _______ _______ _____ _____    ______ ____
ROOT
ATOM      1  C   UNL     1      -1.365  12.780  19.474  0.00  0.00    +0.000 A 
ATOM      2  N   UNL     1      -1.870  11.915  18.625  0.00  0.00    +0.000 NA
ATOM      3  N   UNL     1      -3.213  11.808  18.873  0.00  0.00    +0.000 NA
ATOM      4  C   UNL     1      -3.533  12.639  19.845  0.00  0.00    +0.000 A 
ATOM      5  N   UNL     1      -4.781  12.861  20.371  0.00  0.00    +0.000 N 
ATOM      6  C   UNL     1      -5.868  11.937  20.040  0.00  0.00    +0.000 C 
ATOM      7  C   UNL     1      -7.077  12.824  19.780  0.00  0.00    +0.000 C 
ATOM      8  C   UNL     1      -6.817  14.046  20.636  0.00  0.00    +0.000 C 
ATOM      9  C   UNL     1      -5.302  14.222  20.556  0.00  0.00    +0.000 C 
ATOM     10  N   UNL     1      -2.355  13.241  20.331  0.00  0.00    +0.000 N 
ENDROOT
BRANCH  10  11
ATOM     11  C   UNL     1      -2.242  13.935  21.571  0.00  0.00    +0.000 A 
ATOM     12  C   UNL     1      -2.100  15.340  21.499  0.00  0.00    +0.000 A 
ATOM     13  C   UNL     1      -1.833  16.099  22.633  0.00  0.00    +0.000 A 
ATOM     14  C   UNL     1      -1.788  15.479  23.873  0.00  0.00    +0.000 A 
ATOM     15  C   UNL     1      -1.966  14.096  23.965  0.00  0.00    +0.000 A 
ATOM     16  C   UNL     1      -2.145  13.311  22.819  0.00  0.00    +0.000 A 
ATOM     17 CL   UNL     1      -1.998  11.609  23.051  0.00  0.00    +0.000 Cl
ENDBRANCH  10  11
BRANCH   1  18
ATOM     18  S   UNL     1       0.302  13.236  19.444  0.00  0.00    +0.000 S 
BRANCH  18  19
ATOM     19  C   UNL     1       1.170  11.772  18.817  0.00  0.00    +0.000 C 
BRANCH  19  21
ATOM     20  O   UNL     1       0.716  10.803  21.002  0.00  0.00    +0.000 OA
ATOM     21  C   UNL     1       1.087  10.623  19.838  0.00  0.00    +0.000 C 
ATOM     22  N   UNL     1       1.438   9.344  19.409  0.00  0.00    +0.000 N 
ATOM     23  C   UNL     1       1.671   8.948  18.000  0.00  0.00    +0.000 C 
ATOM     24  C   UNL     1       2.702   7.801  17.874  0.00  0.00    +0.000 C 
ATOM     25  N   UNL     1       2.276   6.720  18.763  0.00  0.00    +0.000 N 
ATOM     26  C   UNL     1       2.538   5.411  18.414  0.00  0.00    +0.000 A 
ATOM     27  C   UNL     1       1.767   4.387  18.971  0.00  0.00    +0.000 A 
ATOM     28  C   UNL     1       1.932   3.072  18.546  0.00  0.00    +0.000 A 
ATOM     29  C   UNL     1       2.886   2.794  17.580  0.00  0.00    +0.000 A 
ATOM     30  C   UNL     1       3.618   3.854  17.078  0.00  0.00    +0.000 A 
ATOM     31  N   UNL     1       3.453   5.142  17.460  0.00  0.00    +0.000 NA
ATOM     32  C   UNL     1       2.247   7.102  20.180  0.00  0.00    +0.000 C 
ATOM     33  C   UNL     1       1.209   8.219  20.345  0.00  0.00    +0.000 C 
ENDBRANCH  19  21
ENDBRANCH  18  19
ENDBRANCH   1  18
TORSDOF 4
ENDMDL
