MODEL 1
REMARK VINA RESULT:      -8.7      0.000      0.000
REMARK  Name = 
REMARK  3 active torsions:
REMARK  status: ('A' for Active; 'I' for Inactive)
REMARK    1  A    between atoms: C_2  and  C_10
REMARK    2  A    between atoms: C_14  and  S_15
REMARK    3  A    between atoms: S_15  and  N_18
REMARK                            x       y       z     vdW  Elec       q    Type
REMARK                         _______ _______ _______ _____ _____    ______ ____
ROOT
ATOM      1  C   UNL     1       3.336   6.412  17.894  0.00  0.00    +0.000 A 
ATOM      2  C   UNL     1       2.710   5.167  18.029  0.00  0.00    +0.000 A 
ATOM      3  C   UNL     1       3.372   4.009  17.618  0.00  0.00    +0.000 A 
ATOM      4  C   UNL     1       4.658   4.089  17.075  0.00  0.00    +0.000 A 
ATOM      5  C   UNL     1       5.272   5.337  16.922  0.00  0.00    +0.000 A 
ATOM      6  C   UNL     1       4.621   6.503  17.343  0.00  0.00    +0.000 A 
ENDROOT
BRANCH   1   8
ATOM      7  O   UNL     1       2.726   8.626  17.508  0.00  0.00    +0.000 OA
ATOM      8  C   UNL     1       2.624   7.661  18.256  0.00  0.00    +0.000 C 
ATOM      9  N   UNL     1       1.960   7.634  19.465  0.00  0.00    +0.000 N 
ATOM     10  C   UNL     1       1.370   8.779  20.019  0.00  0.00    +0.000 A 
ATOM     11  C   UNL     1       0.640   9.682  19.261  0.00  0.00    +0.000 A 
ATOM     12  C   UNL     1       0.152  10.829  19.874  0.00  0.00    +0.000 A 
ATOM     13  C   UNL     1       0.436  11.022  21.210  0.00  0.00    +0.000 A 
ATOM     14  N   UNL     1       1.103  10.109  21.943  0.00  0.00    +0.000 NA
ATOM     15  N   UNL     1       1.545   8.960  21.345  0.00  0.00    +0.000 NA
ATOM     16  H   UNL     1       2.271   6.966  20.159  0.00  0.00    +0.000 HD
ENDBRANCH   1   8
BRANCH   5  17
ATOM     17  S   UNL     1       6.935   5.429  16.281  0.00  0.00    +0.000 S 
ATOM     18  O   UNL     1       7.371   6.808  16.400  0.00  0.00    +0.000 OA
ATOM     19  O   UNL     1       7.693   4.356  16.901  0.00  0.00    +0.000 OA
BRANCH  17  20
ATOM     20  N   UNL     1       6.759   5.071  14.617  0.00  0.00    +0.000 NA
ATOM     21  C   UNL     1       7.940   5.385  13.775  0.00  0.00    +0.000 C 
ATOM     22  C   UNL     1       7.610   5.257  12.296  0.00  0.00    +0.000 C 
ATOM     23  C   UNL     1       7.029   3.881  11.979  0.00  0.00    +0.000 C 
ATOM     24  C   UNL     1       5.791   3.642  12.830  0.00  0.00    +0.000 C 
ATOM     25  C   UNL     1       6.111   3.768  14.317  0.00  0.00    +0.000 C 
ENDBRANCH  17  20
ENDBRANCH   5  17
TORSDOF 3
ENDMDL
MODEL 2
REMARK VINA RESULT:      -8.3      2.986      5.052
REMARK  Name = 
REMARK  3 active torsions:
REMARK  status: ('A' for Active; 'I' for Inactive)
REMARK    1  A    between atoms: C_2  and  C_10
REMARK    2  A    between atoms: C_14  and  S_15
REMARK    3  A    between atoms: S_15  and  N_18
REMARK                            x       y       z     vdW  Elec       q    Type
REMARK                         _______ _______ _______ _____ _____    ______ ____
ROOT
ATOM      1  C   UNL     1       3.151   7.477  17.647  0.00  0.00    +0.000 A 
ATOM      2  C   UNL     1       4.324   7.822  16.965  0.00  0.00    +0.000 A 
ATOM      3  C   UNL     1       5.172   6.818  16.493  0.00  0.00    +0.000 A 
ATOM      4  C   UNL     1       4.852   5.474  16.697  0.00  0.00    +0.000 A 
ATOM      5  C   UNL     1       3.690   5.133  17.398  0.00  0.00    +0.000 A 
ATOM      6  C   UNL     1       2.827   6.132  17.864  0.00  0.00    +0.000 A 
ENDROOT
BRANCH   1   8
ATOM      7  O   UNL     1       2.134   9.571  17.596  0.00  0.00    +0.000 OA
ATOM      8  C   UNL     1       2.273   8.526  18.220  0.00  0.00    +0.000 C 
ATOM      9  N   UNL     1       1.743   8.242  19.462  0.00  0.00    +0.000 N 
ATOM     10  C   UNL     1       1.022   9.190  20.201  0.00  0.00    +0.000 A 
ATOM     11  C   UNL     1       0.078  10.025  19.622  0.00  0.00    +0.000 A 
ATOM     12  C   UNL     1      -0.539  10.987  20.412  0.00  0.00    +0.000 A 
ATOM     13  C   UNL     1      -0.164  11.076  21.737  0.00  0.00    +0.000 A 
ATOM     14  N   UNL     1       0.719  10.224  22.294  0.00  0.00    +0.000 NA
ATOM     15  N   UNL     1       1.291   9.249  21.522  0.00  0.00    +0.000 NA
ATOM     16  H   UNL     1       2.231   7.568  20.038  0.00  0.00    +0.000 HD
ENDBRANCH   1   8
BRANCH   5  17
ATOM     17  S   UNL     1       3.257   3.415  17.606  0.00  0.00    +0.000 S 
ATOM     18  O   UNL     1       2.167   3.127  16.693  0.00  0.00    +0.000 OA
ATOM     19  O   UNL     1       4.492   2.652  17.551  0.00  0.00    +0.000 OA
BRANCH  17  20
ATOM     20  N   UNL     1       2.645   3.331  19.203  0.00  0.00    +0.000 NA
ATOM     21  C   UNL     1       1.171   3.191  19.307  0.00  0.00    +0.000 C 
ATOM     22  C   UNL     1       0.704   3.362  20.745  0.00  0.00    +0.000 C 
ATOM     23  C   UNL     1       1.439   2.405  21.679  0.00  0.00    +0.000 C 
ATOM     24  C   UNL     1       2.938   2.635  21.569  0.00  0.00    +0.000 C 
ATOM     25  C   UNL     1       3.418   2.466  20.131  0.00  0.00    +0.000 C 
ENDBRANCH  17  20
ENDBRANCH   5  17
TORSDOF 3
ENDMDL
MODEL 3
REMARK VINA RESULT:      -8.2      3.027      8.417
REMARK  Name = 
REMARK  3 active torsions:
REMARK  status: ('A' for Active; 'I' for Inactive)
REMARK    1  A    between atoms: C_2  and  C_10
REMARK    2  A    between atoms: C_14  and  S_15
REMARK    3  A    between atoms: S_15  and  N_18
REMARK                            x       y       z     vdW  Elec       q    Type
REMARK                         _______ _______ _______ _____ _____    ______ ____
ROOT
ATOM      1  C   UNL     1       2.411   6.862  19.181  0.00  0.00    +0.000 A 
ATOM      2  C   UNL     1       1.890   6.388  20.391  0.00  0.00    +0.000 A 
ATOM      3  C   UNL     1       1.139   7.239  21.205  0.00  0.00    +0.000 A 
ATOM      4  C   UNL     1       0.904   8.560  20.812  0.00  0.00    +0.000 A 
ATOM      5  C   UNL     1       1.444   9.035  19.612  0.00  0.00    +0.000 A 
ATOM      6  C   UNL     1       2.187   8.187  18.784  0.00  0.00    +0.000 A 
ENDROOT
BRANCH   1   8
ATOM      7  O   UNL     1       3.255   4.789  18.540  0.00  0.00    +0.000 OA
ATOM      8  C   UNL     1       3.271   5.997  18.337  0.00  0.00    +0.000 C 
ATOM      9  N   UNL     1       4.075   6.662  17.435  0.00  0.00    +0.000 N 
ATOM     10  C   UNL     1       5.052   6.002  16.676  0.00  0.00    +0.000 A 
ATOM     11  C   UNL     1       4.822   4.774  16.073  0.00  0.00    +0.000 A 
ATOM     12  C   UNL     1       5.868   4.154  15.401  0.00  0.00    +0.000 A 
ATOM     13  C   UNL     1       7.095   4.785  15.384  0.00  0.00    +0.000 A 
ATOM     14  N   UNL     1       7.285   6.001  15.933  0.00  0.00    +0.000 NA
ATOM     15  N   UNL     1       6.241   6.628  16.556  0.00  0.00    +0.000 NA
ATOM     16  H   UNL     1       4.303   7.629  17.630  0.00  0.00    +0.000 HD
ENDBRANCH   1   8
BRANCH   5  17
ATOM     17  S   UNL     1       1.094  10.706  19.089  0.00  0.00    +0.000 S 
ATOM     18  O   UNL     1       1.351  11.578  20.219  0.00  0.00    +0.000 OA
ATOM     19  O   UNL     1       1.777  10.910  17.824  0.00  0.00    +0.000 OA
BRANCH  17  20
ATOM     20  N   UNL     1      -0.592  10.704  18.795  0.00  0.00    +0.000 NA
ATOM     21  C   UNL     1      -1.273  12.004  19.016  0.00  0.00    +0.000 C 
ATOM     22  C   UNL     1      -2.785  11.849  18.960  0.00  0.00    +0.000 C 
ATOM     23  C   UNL     1      -3.223  11.186  17.657  0.00  0.00    +0.000 C 
ATOM     24  C   UNL     1      -2.537   9.836  17.516  0.00  0.00    +0.000 C 
ATOM     25  C   UNL     1      -1.019   9.980  17.570  0.00  0.00    +0.000 C 
ENDBRANCH  17  20
ENDBRANCH   5  17
TORSDOF 3
ENDMDL
MODEL 4
REMARK VINA RESULT:      -8.2      3.246      9.459
REMARK  Name = 
REMARK  3 active torsions:
REMARK  status: ('A' for Active; 'I' for Inactive)
REMARK    1  A    between atoms: C_2  and  C_10
REMARK    2  A    between atoms: C_14  and  S_15
REMARK    3  A    between atoms: S_15  and  N_18
REMARK                            x       y       z     vdW  Elec       q    Type
REMARK                         _______ _______ _______ _____ _____    ______ ____
ROOT
ATOM      1  C   UNL     1       2.245   7.997  18.662  0.00  0.00    +0.000 A 
ATOM      2  C   UNL     1       1.763   8.863  17.672  0.00  0.00    +0.000 A 
ATOM      3  C   UNL     1       0.831   9.848  18.005  0.00  0.00    +0.000 A 
ATOM      4  C   UNL     1       0.381   9.973  19.322  0.00  0.00    +0.000 A 
ATOM      5  C   UNL     1       0.849   9.093  20.304  0.00  0.00    +0.000 A 
ATOM      6  C   UNL     1       1.793   8.110  19.983  0.00  0.00    +0.000 A 
ENDROOT
BRANCH   1   8
ATOM      7  O   UNL     1       3.210   5.913  19.044  0.00  0.00    +0.000 OA
ATOM      8  C   UNL     1       3.179   6.899  18.316  0.00  0.00    +0.000 C 
ATOM      9  N   UNL     1       3.991   7.132  17.226  0.00  0.00    +0.000 N 
ATOM     10  C   UNL     1       5.029   6.261  16.866  0.00  0.00    +0.000 A 
ATOM     11  C   UNL     1       4.881   4.882  16.880  0.00  0.00    +0.000 A 
ATOM     12  C   UNL     1       5.982   4.089  16.581  0.00  0.00    +0.000 A 
ATOM     13  C   UNL     1       7.179   4.718  16.303  0.00  0.00    +0.000 A 
ATOM     14  N   UNL     1       7.290   6.060  16.245  0.00  0.00    +0.000 NA
ATOM     15  N   UNL     1       6.192   6.837  16.497  0.00  0.00    +0.000 NA
ATOM     16  H   UNL     1       4.165   8.095  16.966  0.00  0.00    +0.000 HD
ENDBRANCH   1   8
BRANCH   5  17
ATOM     17  S   UNL     1       0.315   9.293  21.995  0.00  0.00    +0.000 S 
ATOM     18  O   UNL     1      -0.678   8.269  22.261  0.00  0.00    +0.000 OA
ATOM     19  O   UNL     1       1.510   9.398  22.813  0.00  0.00    +0.000 OA
BRANCH  17  20
ATOM     20  N   UNL     1      -0.477  10.811  22.004  0.00  0.00    +0.000 NA
ATOM     21  C   UNL     1      -1.389  11.041  23.151  0.00  0.00    +0.000 C 
ATOM     22  C   UNL     1      -2.216  12.302  22.951  0.00  0.00    +0.000 C 
ATOM     23  C   UNL     1      -1.322  13.509  22.677  0.00  0.00    +0.000 C 
ATOM     24  C   UNL     1      -0.454  13.235  21.459  0.00  0.00    +0.000 C 
ATOM     25  C   UNL     1       0.381  11.972  21.649  0.00  0.00    +0.000 C 
ENDBRANCH  17  20
ENDBRANCH   5  17
TORSDOF 3
ENDMDL
MODEL 5
REMARK VINA RESULT:      -8.2      2.711      3.372
REMARK  Name = 
REMARK  3 active torsions:
REMARK  status: ('A' for Active; 'I' for Inactive)
REMARK    1  A    between atoms: C_2  and  C_10
REMARK    2  A    between atoms: C_14  and  S_15
REMARK    3  A    between atoms: S_15  and  N_18
REMARK                            x       y       z     vdW  Elec       q    Type
REMARK                         _______ _______ _______ _____ _____    ______ ____
ROOT
ATOM      1  C   UNL     1       2.608   5.225  18.742  0.00  0.00    +0.000 A 
ATOM      2  C   UNL     1       2.130   3.918  18.591  0.00  0.00    +0.000 A 
ATOM      3  C   UNL     1       2.654   3.098  17.590  0.00  0.00    +0.000 A 
ATOM      4  C   UNL     1       3.656   3.578  16.742  0.00  0.00    +0.000 A 
ATOM      5  C   UNL     1       4.117   4.892  16.882  0.00  0.00    +0.000 A 
ATOM      6  C   UNL     1       3.606   5.717  17.891  0.00  0.00    +0.000 A 
ENDROOT
BRANCH   1   8
ATOM      7  O   UNL     1       1.413   5.641  20.697  0.00  0.00    +0.000 OA
ATOM      8  C   UNL     1       2.015   6.136  19.751  0.00  0.00    +0.000 C 
ATOM      9  N   UNL     1       2.141   7.482  19.481  0.00  0.00    +0.000 N 
ATOM     10  C   UNL     1       1.504   8.463  20.254  0.00  0.00    +0.000 A 
ATOM     11  C   UNL     1       1.460   8.407  21.639  0.00  0.00    +0.000 A 
ATOM     12  C   UNL     1       0.744   9.380  22.325  0.00  0.00    +0.000 A 
ATOM     13  C   UNL     1       0.094  10.349  21.587  0.00  0.00    +0.000 A 
ATOM     14  N   UNL     1       0.190  10.416  20.245  0.00  0.00    +0.000 NA
ATOM     15  N   UNL     1       0.932   9.481  19.576  0.00  0.00    +0.000 NA
ATOM     16  H   UNL     1       2.282   7.758  18.517  0.00  0.00    +0.000 HD
ENDBRANCH   1   8
BRANCH   5  17
ATOM     17  S   UNL     1       5.435   5.482  15.834  0.00  0.00    +0.000 S 
ATOM     18  O   UNL     1       5.840   4.378  14.984  0.00  0.00    +0.000 OA
ATOM     19  O   UNL     1       4.993   6.739  15.256  0.00  0.00    +0.000 OA
BRANCH  17  20
ATOM     20  N   UNL     1       6.716   5.809  16.921  0.00  0.00    +0.000 NA
ATOM     21  C   UNL     1       6.781   7.207  17.416  0.00  0.00    +0.000 C 
ATOM     22  C   UNL     1       8.073   7.458  18.180  0.00  0.00    +0.000 C 
ATOM     23  C   UNL     1       8.254   6.442  19.304  0.00  0.00    +0.000 C 
ATOM     24  C   UNL     1       8.235   5.035  18.727  0.00  0.00    +0.000 C 
ATOM     25  C   UNL     1       6.943   4.771  17.959  0.00  0.00    +0.000 C 
ENDBRANCH  17  20
ENDBRANCH   5  17
TORSDOF 3
ENDMDL
MODEL 6
REMARK VINA RESULT:      -8.2      5.107      6.691
REMARK  Name = 
REMARK  3 active torsions:
REMARK  status: ('A' for Active; 'I' for Inactive)
REMARK    1  A    between atoms: C_2  and  C_10
REMARK    2  A    between atoms: C_14  and  S_15
REMARK    3  A    between atoms: S_15  and  N_18
REMARK                            x       y       z     vdW  Elec       q    Type
REMARK                         _______ _______ _______ _____ _____    ______ ____
ROOT
ATOM      1  C   UNL     1       8.020   7.901  18.225  0.00  0.00    +0.000 A 
ATOM      2  C   UNL     1       8.469   7.044  19.237  0.00  0.00    +0.000 A 
ATOM      3  C   UNL     1       8.070   5.706  19.240  0.00  0.00    +0.000 A 
ATOM      4  C   UNL     1       7.230   5.221  18.234  0.00  0.00    +0.000 A 
ATOM      5  C   UNL     1       6.767   6.086  17.236  0.00  0.00    +0.000 A 
ATOM      6  C   UNL     1       7.171   7.426  17.218  0.00  0.00    +0.000 A 
ENDROOT
BRANCH   1   8
ATOM      7  O   UNL     1       7.890  10.068  17.383  0.00  0.00    +0.000 OA
ATOM      8  C   UNL     1       8.372   9.342  18.244  0.00  0.00    +0.000 C 
ATOM      9  N   UNL     1       9.285   9.717  19.208  0.00  0.00    +0.000 N 
ATOM     10  C   UNL     1       9.833  11.006  19.257  0.00  0.00    +0.000 A 
ATOM     11  C   UNL     1       9.070  12.148  19.062  0.00  0.00    +0.000 A 
ATOM     12  C   UNL     1       9.706  13.383  19.054  0.00  0.00    +0.000 A 
ATOM     13  C   UNL     1      11.075  13.410  19.222  0.00  0.00    +0.000 A 
ATOM     14  N   UNL     1      11.792  12.294  19.460  0.00  0.00    +0.000 NA
ATOM     15  N   UNL     1      11.156  11.084  19.511  0.00  0.00    +0.000 NA
ATOM     16  H   UNL     1       9.901   9.003  19.576  0.00  0.00    +0.000 HD
ENDBRANCH   1   8
BRANCH   5  17
ATOM     17  S   UNL     1       5.740   5.449  15.923  0.00  0.00    +0.000 S 
ATOM     18  O   UNL     1       5.517   6.530  14.982  0.00  0.00    +0.000 OA
ATOM     19  O   UNL     1       6.330   4.196  15.487  0.00  0.00    +0.000 OA
BRANCH  17  20
ATOM     20  N   UNL     1       4.250   5.102  16.692  0.00  0.00    +0.000 NA
ATOM     21  C   UNL     1       4.061   3.686  17.093  0.00  0.00    +0.000 C 
ATOM     22  C   UNL     1       2.632   3.431  17.548  0.00  0.00    +0.000 C 
ATOM     23  C   UNL     1       2.226   4.399  18.655  0.00  0.00    +0.000 C 
ATOM     24  C   UNL     1       2.387   5.830  18.165  0.00  0.00    +0.000 C 
ATOM     25  C   UNL     1       3.818   6.098  17.707  0.00  0.00    +0.000 C 
ENDBRANCH  17  20
ENDBRANCH   5  17
TORSDOF 3
ENDMDL
MODEL 7
REMARK VINA RESULT:      -8.1      3.081      8.311
REMARK  Name = 
REMARK  3 active torsions:
REMARK  status: ('A' for Active; 'I' for Inactive)
REMARK    1  A    between atoms: C_2  and  C_10
REMARK    2  A    between atoms: C_14  and  S_15
REMARK    3  A    between atoms: S_15  and  N_18
REMARK                            x       y       z     vdW  Elec       q    Type
REMARK                         _______ _______ _______ _____ _____    ______ ____
ROOT
ATOM      1  C   UNL     1       2.386   7.059  19.147  0.00  0.00    +0.000 A 
ATOM      2  C   UNL     1       1.824   6.611  20.349  0.00  0.00    +0.000 A 
ATOM      3  C   UNL     1       1.088   7.494  21.142  0.00  0.00    +0.000 A 
ATOM      4  C   UNL     1       0.910   8.820  20.738  0.00  0.00    +0.000 A 
ATOM      5  C   UNL     1       1.490   9.269  19.547  0.00  0.00    +0.000 A 
ATOM      6  C   UNL     1       2.219   8.388  18.739  0.00  0.00    +0.000 A 
ENDROOT
BRANCH   1   8
ATOM      7  O   UNL     1       3.168   4.953  18.535  0.00  0.00    +0.000 OA
ATOM      8  C   UNL     1       3.231   6.159  18.325  0.00  0.00    +0.000 C 
ATOM      9  N   UNL     1       4.075   6.788  17.435  0.00  0.00    +0.000 N 
ATOM     10  C   UNL     1       5.043   6.088  16.700  0.00  0.00    +0.000 A 
ATOM     11  C   UNL     1       4.781   4.866  16.100  0.00  0.00    +0.000 A 
ATOM     12  C   UNL     1       5.816   4.204  15.452  0.00  0.00    +0.000 A 
ATOM     13  C   UNL     1       7.065   4.791  15.455  0.00  0.00    +0.000 A 
ATOM     14  N   UNL     1       7.288   6.003  16.000  0.00  0.00    +0.000 NA
ATOM     15  N   UNL     1       6.255   6.672  16.599  0.00  0.00    +0.000 NA
ATOM     16  H   UNL     1       4.333   7.748  17.629  0.00  0.00    +0.000 HD
ENDBRANCH   1   8
BRANCH   5  17
ATOM     17  S   UNL     1       1.212  10.947  19.008  0.00  0.00    +0.000 S 
ATOM     18  O   UNL     1       1.213  11.789  20.189  0.00  0.00    +0.000 OA
ATOM     19  O   UNL     1       2.131  11.204  17.913  0.00  0.00    +0.000 OA
BRANCH  17  20
ATOM     20  N   UNL     1      -0.380  10.923  18.378  0.00  0.00    +0.000 NA
ATOM     21  C   UNL     1      -0.727   9.716  17.587  0.00  0.00    +0.000 C 
ATOM     22  C   UNL     1      -2.063   9.890  16.880  0.00  0.00    +0.000 C 
ATOM     23  C   UNL     1      -3.164  10.265  17.868  0.00  0.00    +0.000 C 
ATOM     24  C   UNL     1      -2.776  11.537  18.605  0.00  0.00    +0.000 C 
ATOM     25  C   UNL     1      -1.438  11.374  19.319  0.00  0.00    +0.000 C 
ENDBRANCH  17  20
ENDBRANCH   5  17
TORSDOF 3
ENDMDL
MODEL 8
REMARK VINA RESULT:      -8.1      2.775      3.645
REMARK  Name = 
REMARK  3 active torsions:
REMARK  status: ('A' for Active; 'I' for Inactive)
REMARK    1  A    between atoms: C_2  and  C_10
REMARK    2  A    between atoms: C_14  and  S_15
REMARK    3  A    between atoms: S_15  and  N_18
REMARK                            x       y       z     vdW  Elec       q    Type
REMARK                         _______ _______ _______ _____ _____    ______ ____
ROOT
ATOM      1  C   UNL     1       2.183   7.037  19.566  0.00  0.00    +0.000 A 
ATOM      2  C   UNL     1       1.641   6.415  20.698  0.00  0.00    +0.000 A 
ATOM      3  C   UNL     1       1.915   5.069  20.949  0.00  0.00    +0.000 A 
ATOM      4  C   UNL     1       2.732   4.344  20.077  0.00  0.00    +0.000 A 
ATOM      5  C   UNL     1       3.256   4.963  18.937  0.00  0.00    +0.000 A 
ATOM      6  C   UNL     1       2.996   6.314  18.682  0.00  0.00    +0.000 A 
ENDROOT
BRANCH   1   8
ATOM      7  O   UNL     1       2.256   8.909  18.185  0.00  0.00    +0.000 OA
ATOM      8  C   UNL     1       1.846   8.444  19.241  0.00  0.00    +0.000 C 
ATOM      9  N   UNL     1       1.149   9.126  20.216  0.00  0.00    +0.000 N 
ATOM     10  C   UNL     1       0.891  10.501  20.126  0.00  0.00    +0.000 A 
ATOM     11  C   UNL     1       0.488  11.108  18.946  0.00  0.00    +0.000 A 
ATOM     12  C   UNL     1       0.325  12.487  18.925  0.00  0.00    +0.000 A 
ATOM     13  C   UNL     1       0.592  13.190  20.081  0.00  0.00    +0.000 A 
ATOM     14  N   UNL     1       0.934  12.578  21.233  0.00  0.00    +0.000 NA
ATOM     15  N   UNL     1       1.051  11.215  21.260  0.00  0.00    +0.000 NA
ATOM     16  H   UNL     1       1.222   8.792  21.169  0.00  0.00    +0.000 HD
ENDBRANCH   1   8
BRANCH   5  17
ATOM     17  S   UNL     1       4.343   4.048  17.857  0.00  0.00    +0.000 S 
ATOM     18  O   UNL     1       4.565   2.749  18.464  0.00  0.00    +0.000 OA
ATOM     19  O   UNL     1       3.803   4.156  16.514  0.00  0.00    +0.000 OA
BRANCH  17  20
ATOM     20  N   UNL     1       5.816   4.917  17.917  0.00  0.00    +0.000 NA
ATOM     21  C   UNL     1       5.930   6.033  16.945  0.00  0.00    +0.000 C 
ATOM     22  C   UNL     1       7.346   6.588  16.911  0.00  0.00    +0.000 C 
ATOM     23  C   UNL     1       7.811   6.994  18.307  0.00  0.00    +0.000 C 
ATOM     24  C   UNL     1       7.725   5.797  19.241  0.00  0.00    +0.000 C 
ATOM     25  C   UNL     1       6.308   5.232  19.284  0.00  0.00    +0.000 C 
ENDBRANCH  17  20
ENDBRANCH   5  17
TORSDOF 3
ENDMDL
MODEL 9
REMARK VINA RESULT:      -8.1      2.464      3.155
REMARK  Name = 
REMARK  3 active torsions:
REMARK  status: ('A' for Active; 'I' for Inactive)
REMARK    1  A    between atoms: C_2  and  C_10
REMARK    2  A    between atoms: C_14  and  S_15
REMARK    3  A    between atoms: S_15  and  N_18
REMARK                            x       y       z     vdW  Elec       q    Type
REMARK                         _______ _______ _______ _____ _____    ______ ____
ROOT
ATOM      1  C   UNL     1       2.086   6.372  19.758  0.00  0.00    +0.000 A 
ATOM      2  C   UNL     1       1.178   5.777  20.641  0.00  0.00    +0.000 A 
ATOM      3  C   UNL     1       1.247   4.405  20.888  0.00  0.00    +0.000 A 
ATOM      4  C   UNL     1       2.223   3.626  20.260  0.00  0.00    +0.000 A 
ATOM      5  C   UNL     1       3.116   4.221  19.362  0.00  0.00    +0.000 A 
ATOM      6  C   UNL     1       3.062   5.598  19.117  0.00  0.00    +0.000 A 
ENDROOT
BRANCH   1   8
ATOM      7  O   UNL     1       2.654   8.243  18.492  0.00  0.00    +0.000 OA
ATOM      8  C   UNL     1       1.985   7.814  19.425  0.00  0.00    +0.000 C 
ATOM      9  N   UNL     1       1.183   8.560  20.263  0.00  0.00    +0.000 N 
ATOM     10  C   UNL     1       1.106   9.958  20.175  0.00  0.00    +0.000 A 
ATOM     11  C   UNL     1       1.027  10.624  18.961  0.00  0.00    +0.000 A 
ATOM     12  C   UNL     1       1.028  12.013  18.960  0.00  0.00    +0.000 A 
ATOM     13  C   UNL     1       1.128  12.663  20.173  0.00  0.00    +0.000 A 
ATOM     14  N   UNL     1       1.153  11.999  21.345  0.00  0.00    +0.000 NA
ATOM     15  N   UNL     1       1.107  10.631  21.344  0.00  0.00    +0.000 NA
ATOM     16  H   UNL     1       1.019   8.206  21.197  0.00  0.00    +0.000 HD
ENDBRANCH   1   8
BRANCH   5  17
ATOM     17  S   UNL     1       4.395   3.232  18.606  0.00  0.00    +0.000 S 
ATOM     18  O   UNL     1       5.319   2.842  19.654  0.00  0.00    +0.000 OA
ATOM     19  O   UNL     1       3.735   2.231  17.788  0.00  0.00    +0.000 OA
BRANCH  17  20
ATOM     20  N   UNL     1       5.206   4.325  17.567  0.00  0.00    +0.000 NA
ATOM     21  C   UNL     1       6.595   4.663  17.966  0.00  0.00    +0.000 C 
ATOM     22  C   UNL     1       7.144   5.807  17.127  0.00  0.00    +0.000 C 
ATOM     23  C   UNL     1       7.033   5.498  15.636  0.00  0.00    +0.000 C 
ATOM     24  C   UNL     1       5.582   5.217  15.280  0.00  0.00    +0.000 C 
ATOM     25  C   UNL     1       5.021   4.070  16.115  0.00  0.00    +0.000 C 
ENDBRANCH  17  20
ENDBRANCH   5  17
TORSDOF 3
ENDMDL
