MODEL 1
REMARK VINA RESULT:      -9.2      0.000      0.000
REMARK  Name = 
REMARK  5 active torsions:
REMARK  status: ('A' for Active; 'I' for Inactive)
REMARK    1  A    between atoms: C_7  and  C_8
REMARK    2  A    between atoms: C_15  and  C_16
REMARK    3  A    between atoms: C_20  and  O_21
REMARK    4  A    between atoms: O_21  and  C_22
REMARK    5  A    between atoms: C_22  and  C_23
REMARK                            x       y       z     vdW  Elec       q    Type
REMARK                         _______ _______ _______ _____ _____    ______ ____
ROOT
ATOM      1  N   UNL     1       4.136   2.247  19.030  0.00  0.00    +0.000 N 
ATOM      2  C   UNL     1       3.179   3.123  19.451  0.00  0.00    +0.000 A 
ATOM      3  N   UNL     1       2.168   2.551  20.067  0.00  0.00    +0.000 NA
ATOM      4  C   UNL     1       1.148   3.338  20.546  0.00  0.00    +0.000 A 
ATOM      5  C   UNL     1       1.134   4.673  20.452  0.00  0.00    +0.000 A 
ATOM      6  N   UNL     1       2.203   5.315  19.844  0.00  0.00    +0.000 N 
ATOM      7  C   UNL     1       2.490   6.658  19.633  0.00  0.00    +0.000 A 
ATOM      8  N   UNL     1       3.589   6.767  18.901  0.00  0.00    +0.000 NA
ATOM      9  C   UNL     1       4.040   5.485  18.651  0.00  0.00    +0.000 A 
ATOM     10  C   UNL     1       3.225   4.565  19.287  0.00  0.00    +0.000 A 
ATOM     11  H   UNL     1       3.996   1.325  19.427  0.00  0.00    +0.000 HD
ATOM     12  H   UNL     1       5.092   2.574  19.096  0.00  0.00    +0.000 HD
ENDROOT
BRANCH   7  13
ATOM     13  C   UNL     1       1.661   7.794  20.081  0.00  0.00    +0.000 A 
ATOM     14  C   UNL     1       1.086   7.857  21.360  0.00  0.00    +0.000 A 
ATOM     15  C   UNL     1       0.227   8.903  21.715  0.00  0.00    +0.000 A 
ATOM     16  C   UNL     1      -0.026   9.931  20.815  0.00  0.00    +0.000 A 
ATOM     17  C   UNL     1       0.590   9.924  19.566  0.00  0.00    +0.000 A 
ATOM     18  C   UNL     1       1.427   8.862  19.202  0.00  0.00    +0.000 A 
ENDBRANCH   7  13
BRANCH   9  19
ATOM     19  C   UNL     1       5.211   5.230  17.816  0.00  0.00    +0.000 A 
ATOM     20  C   UNL     1       6.385   4.692  18.358  0.00  0.00    +0.000 A 
ATOM     21  C   UNL     1       7.542   4.563  17.592  0.00  0.00    +0.000 A 
ATOM     22  C   UNL     1       7.508   4.861  16.238  0.00  0.00    +0.000 A 
ATOM     23  C   UNL     1       6.306   5.243  15.639  0.00  0.00    +0.000 A 
ATOM     24  C   UNL     1       5.175   5.474  16.434  0.00  0.00    +0.000 A 
BRANCH  23  25
ATOM     25  O   UNL     1       6.156   5.409  14.286  0.00  0.00    +0.000 OA
BRANCH  25  26
ATOM     26  C   UNL     1       7.090   4.657  13.499  0.00  0.00    +0.000 C 
BRANCH  26  27
ATOM     27  C   UNL     1       6.356   3.689  12.607  0.00  0.00    +0.000 A 
ATOM     28  C   UNL     1       4.986   3.840  12.355  0.00  0.00    +0.000 A 
ATOM     29  C   UNL     1       4.322   2.944  11.517  0.00  0.00    +0.000 A 
ATOM     30  C   UNL     1       5.021   1.900  10.915  0.00  0.00    +0.000 A 
ATOM     31  C   UNL     1       6.389   1.757  11.139  0.00  0.00    +0.000 A 
ATOM     32  C   UNL     1       7.055   2.650  11.977  0.00  0.00    +0.000 A 
ENDBRANCH  26  27
ENDBRANCH  25  26
ENDBRANCH  23  25
ENDBRANCH   9  19
TORSDOF 5
ENDMDL
MODEL 2
REMARK VINA RESULT:      -9.1      2.714      8.266
REMARK  Name = 
REMARK  5 active torsions:
REMARK  status: ('A' for Active; 'I' for Inactive)
REMARK    1  A    between atoms: C_7  and  C_8
REMARK    2  A    between atoms: C_15  and  C_16
REMARK    3  A    between atoms: C_20  and  O_21
REMARK    4  A    between atoms: O_21  and  C_22
REMARK    5  A    between atoms: C_22  and  C_23
REMARK                            x       y       z     vdW  Elec       q    Type
REMARK                         _______ _______ _______ _____ _____    ______ ____
ROOT
ATOM      1  N   UNL     1       0.703   4.325  20.359  0.00  0.00    +0.000 N 
ATOM      2  C   UNL     1       1.719   3.890  19.558  0.00  0.00    +0.000 A 
ATOM      3  N   UNL     1       1.855   2.582  19.535  0.00  0.00    +0.000 NA
ATOM      4  C   UNL     1       2.839   2.029  18.752  0.00  0.00    +0.000 A 
ATOM      5  C   UNL     1       3.659   2.744  17.974  0.00  0.00    +0.000 A 
ATOM      6  N   UNL     1       3.519   4.125  17.942  0.00  0.00    +0.000 N 
ATOM      7  C   UNL     1       4.179   5.115  17.224  0.00  0.00    +0.000 A 
ATOM      8  N   UNL     1       3.760   6.307  17.624  0.00  0.00    +0.000 NA
ATOM      9  C   UNL     1       2.799   6.095  18.594  0.00  0.00    +0.000 A 
ATOM     10  C   UNL     1       2.587   4.738  18.761  0.00  0.00    +0.000 A 
ATOM     11  H   UNL     1       0.109   3.560  20.654  0.00  0.00    +0.000 HD
ATOM     12  H   UNL     1       0.190   5.129  20.021  0.00  0.00    +0.000 HD
ENDROOT
BRANCH   7  13
ATOM     13  C   UNL     1       5.243   4.888  16.226  0.00  0.00    +0.000 A 
ATOM     14  C   UNL     1       6.582   5.243  16.451  0.00  0.00    +0.000 A 
ATOM     15  C   UNL     1       7.545   5.102  15.446  0.00  0.00    +0.000 A 
ATOM     16  C   UNL     1       7.194   4.552  14.218  0.00  0.00    +0.000 A 
ATOM     17  C   UNL     1       5.886   4.128  14.000  0.00  0.00    +0.000 A 
ATOM     18  C   UNL     1       4.917   4.296  14.997  0.00  0.00    +0.000 A 
ENDBRANCH   7  13
BRANCH   9  19
ATOM     19  C   UNL     1       2.160   7.204  19.299  0.00  0.00    +0.000 A 
ATOM     20  C   UNL     1       2.057   7.212  20.695  0.00  0.00    +0.000 A 
ATOM     21  C   UNL     1       1.341   8.203  21.362  0.00  0.00    +0.000 A 
ATOM     22  C   UNL     1       0.815   9.270  20.648  0.00  0.00    +0.000 A 
ATOM     23  C   UNL     1       1.045   9.370  19.275  0.00  0.00    +0.000 A 
ATOM     24  C   UNL     1       1.672   8.316  18.596  0.00  0.00    +0.000 A 
BRANCH  23  25
ATOM     25  O   UNL     1       0.690  10.464  18.527  0.00  0.00    +0.000 OA
BRANCH  25  26
ATOM     26  C   UNL     1      -0.428  11.192  19.054  0.00  0.00    +0.000 C 
BRANCH  26  27
ATOM     27  C   UNL     1      -1.640  10.984  18.184  0.00  0.00    +0.000 A 
ATOM     28  C   UNL     1      -1.654   9.990  17.196  0.00  0.00    +0.000 A 
ATOM     29  C   UNL     1      -2.788   9.798  16.406  0.00  0.00    +0.000 A 
ATOM     30  C   UNL     1      -3.920  10.586  16.605  0.00  0.00    +0.000 A 
ATOM     31  C   UNL     1      -3.925  11.559  17.603  0.00  0.00    +0.000 A 
ATOM     32  C   UNL     1      -2.793  11.754  18.393  0.00  0.00    +0.000 A 
ENDBRANCH  26  27
ENDBRANCH  25  26
ENDBRANCH  23  25
ENDBRANCH   9  19
TORSDOF 5
ENDMDL
MODEL 3
REMARK VINA RESULT:      -9.0      0.452      1.003
REMARK  Name = 
REMARK  5 active torsions:
REMARK  status: ('A' for Active; 'I' for Inactive)
REMARK    1  A    between atoms: C_7  and  C_8
REMARK    2  A    between atoms: C_15  and  C_16
REMARK    3  A    between atoms: C_20  and  O_21
REMARK    4  A    between atoms: O_21  and  C_22
REMARK    5  A    between atoms: C_22  and  C_23
REMARK                            x       y       z     vdW  Elec       q    Type
REMARK                         _______ _______ _______ _____ _____    ______ ____
ROOT
ATOM      1  N   UNL     1       4.610   2.390  19.476  0.00  0.00    +0.000 N 
ATOM      2  C   UNL     1       3.619   3.243  19.866  0.00  0.00    +0.000 A 
ATOM      3  N   UNL     1       2.736   2.699  20.673  0.00  0.00    +0.000 NA
ATOM      4  C   UNL     1       1.698   3.469  21.141  0.00  0.00    +0.000 A 
ATOM      5  C   UNL     1       1.544   4.765  20.848  0.00  0.00    +0.000 A 
ATOM      6  N   UNL     1       2.480   5.384  20.030  0.00  0.00    +0.000 N 
ATOM      7  C   UNL     1       2.612   6.694  19.585  0.00  0.00    +0.000 A 
ATOM      8  N   UNL     1       3.615   6.771  18.724  0.00  0.00    +0.000 NA
ATOM      9  C   UNL     1       4.162   5.506  18.622  0.00  0.00    +0.000 A 
ATOM     10  C   UNL     1       3.508   4.638  19.480  0.00  0.00    +0.000 A 
ATOM     11  H   UNL     1       4.601   1.536  20.022  0.00  0.00    +0.000 HD
ATOM     12  H   UNL     1       5.531   2.799  19.381  0.00  0.00    +0.000 HD
ENDROOT
BRANCH   7  13
ATOM     13  C   UNL     1       1.725   7.818  19.947  0.00  0.00    +0.000 A 
ATOM     14  C   UNL     1       1.410   8.854  19.054  0.00  0.00    +0.000 A 
ATOM     15  C   UNL     1       0.645   9.952  19.462  0.00  0.00    +0.000 A 
ATOM     16  C   UNL     1       0.137  10.003  20.755  0.00  0.00    +0.000 A 
ATOM     17  C   UNL     1       0.379   8.951  21.635  0.00  0.00    +0.000 A 
ATOM     18  C   UNL     1       1.169   7.866  21.233  0.00  0.00    +0.000 A 
ENDBRANCH   7  13
BRANCH   9  19
ATOM     19  C   UNL     1       5.262   5.214  17.706  0.00  0.00    +0.000 A 
ATOM     20  C   UNL     1       6.493   4.744  18.179  0.00  0.00    +0.000 A 
ATOM     21  C   UNL     1       7.582   4.582  17.325  0.00  0.00    +0.000 A 
ATOM     22  C   UNL     1       7.421   4.776  15.961  0.00  0.00    +0.000 A 
ATOM     23  C   UNL     1       6.161   5.085  15.446  0.00  0.00    +0.000 A 
ATOM     24  C   UNL     1       5.098   5.352  16.319  0.00  0.00    +0.000 A 
BRANCH  23  25
ATOM     25  O   UNL     1       5.888   5.145  14.103  0.00  0.00    +0.000 OA
BRANCH  25  26
ATOM     26  C   UNL     1       6.985   4.751  13.266  0.00  0.00    +0.000 C 
BRANCH  26  27
ATOM     27  C   UNL     1       6.592   3.570  12.416  0.00  0.00    +0.000 A 
ATOM     28  C   UNL     1       5.244   3.287  12.159  0.00  0.00    +0.000 A 
ATOM     29  C   UNL     1       4.894   2.198  11.359  0.00  0.00    +0.000 A 
ATOM     30  C   UNL     1       5.885   1.394  10.800  0.00  0.00    +0.000 A 
ATOM     31  C   UNL     1       7.230   1.684  11.029  0.00  0.00    +0.000 A 
ATOM     32  C   UNL     1       7.582   2.770  11.829  0.00  0.00    +0.000 A 
ENDBRANCH  26  27
ENDBRANCH  25  26
ENDBRANCH  23  25
ENDBRANCH   9  19
TORSDOF 5
ENDMDL
MODEL 4
REMARK VINA RESULT:      -9.0      2.713      8.241
REMARK  Name = 
REMARK  5 active torsions:
REMARK  status: ('A' for Active; 'I' for Inactive)
REMARK    1  A    between atoms: C_7  and  C_8
REMARK    2  A    between atoms: C_15  and  C_16
REMARK    3  A    between atoms: C_20  and  O_21
REMARK    4  A    between atoms: O_21  and  C_22
REMARK    5  A    between atoms: C_22  and  C_23
REMARK                            x       y       z     vdW  Elec       q    Type
REMARK                         _______ _______ _______ _____ _____    ______ ____
ROOT
ATOM      1  N   UNL     1       0.710   4.322  20.411  0.00  0.00    +0.000 N 
ATOM      2  C   UNL     1       1.715   3.912  19.584  0.00  0.00    +0.000 A 
ATOM      3  N   UNL     1       1.870   2.607  19.540  0.00  0.00    +0.000 NA
ATOM      4  C   UNL     1       2.846   2.079  18.729  0.00  0.00    +0.000 A 
ATOM      5  C   UNL     1       3.640   2.818  17.945  0.00  0.00    +0.000 A 
ATOM      6  N   UNL     1       3.479   4.196  17.935  0.00  0.00    +0.000 N 
ATOM      7  C   UNL     1       4.109   5.206  17.218  0.00  0.00    +0.000 A 
ATOM      8  N   UNL     1       3.681   6.385  17.642  0.00  0.00    +0.000 NA
ATOM      9  C   UNL     1       2.744   6.147  18.629  0.00  0.00    +0.000 A 
ATOM     10  C   UNL     1       2.555   4.784  18.781  0.00  0.00    +0.000 A 
ATOM     11  H   UNL     1       0.133   3.544  20.707  0.00  0.00    +0.000 HD
ATOM     12  H   UNL     1       0.178   5.122  20.094  0.00  0.00    +0.000 HD
ENDROOT
BRANCH   7  13
ATOM     13  C   UNL     1       5.156   5.008  16.195  0.00  0.00    +0.000 A 
ATOM     14  C   UNL     1       4.894   4.434  14.941  0.00  0.00    +0.000 A 
ATOM     15  C   UNL     1       5.928   4.174  14.036  0.00  0.00    +0.000 A 
ATOM     16  C   UNL     1       7.234   4.536  14.348  0.00  0.00    +0.000 A 
ATOM     17  C   UNL     1       7.504   5.171  15.558  0.00  0.00    +0.000 A 
ATOM     18  C   UNL     1       6.472   5.405  16.475  0.00  0.00    +0.000 A 
ENDBRANCH   7  13
BRANCH   9  19
ATOM     19  C   UNL     1       2.102   7.236  19.361  0.00  0.00    +0.000 A 
ATOM     20  C   UNL     1       1.977   7.196  20.755  0.00  0.00    +0.000 A 
ATOM     21  C   UNL     1       1.258   8.171  21.444  0.00  0.00    +0.000 A 
ATOM     22  C   UNL     1       0.753   9.267  20.760  0.00  0.00    +0.000 A 
ATOM     23  C   UNL     1       1.007   9.412  19.395  0.00  0.00    +0.000 A 
ATOM     24  C   UNL     1       1.636   8.377  18.690  0.00  0.00    +0.000 A 
BRANCH  23  25
ATOM     25  O   UNL     1       0.674  10.534  18.680  0.00  0.00    +0.000 OA
BRANCH  25  26
ATOM     26  C   UNL     1      -0.478  11.225  19.183  0.00  0.00    +0.000 C 
BRANCH  26  27
ATOM     27  C   UNL     1      -1.663  10.984  18.284  0.00  0.00    +0.000 A 
ATOM     28  C   UNL     1      -2.856  11.696  18.462  0.00  0.00    +0.000 A 
ATOM     29  C   UNL     1      -3.942  11.472  17.614  0.00  0.00    +0.000 A 
ATOM     30  C   UNL     1      -3.840  10.547  16.577  0.00  0.00    +0.000 A 
ATOM     31  C   UNL     1      -2.648   9.853  16.377  0.00  0.00    +0.000 A 
ATOM     32  C   UNL     1      -1.562  10.073  17.223  0.00  0.00    +0.000 A 
ENDBRANCH  26  27
ENDBRANCH  25  26
ENDBRANCH  23  25
ENDBRANCH   9  19
TORSDOF 5
ENDMDL
MODEL 5
REMARK VINA RESULT:      -8.8      0.685      1.117
REMARK  Name = 
REMARK  5 active torsions:
REMARK  status: ('A' for Active; 'I' for Inactive)
REMARK    1  A    between atoms: C_7  and  C_8
REMARK    2  A    between atoms: C_15  and  C_16
REMARK    3  A    between atoms: C_20  and  O_21
REMARK    4  A    between atoms: O_21  and  C_22
REMARK    5  A    between atoms: C_22  and  C_23
REMARK                            x       y       z     vdW  Elec       q    Type
REMARK                         _______ _______ _______ _____ _____    ______ ____
ROOT
ATOM      1  N   UNL     1       4.174   2.241  19.692  0.00  0.00    +0.000 N 
ATOM      2  C   UNL     1       3.179   3.137  19.954  0.00  0.00    +0.000 A 
ATOM      3  N   UNL     1       2.118   2.604  20.519  0.00  0.00    +0.000 NA
ATOM      4  C   UNL     1       1.056   3.415  20.840  0.00  0.00    +0.000 A 
ATOM      5  C   UNL     1       1.045   4.737  20.640  0.00  0.00    +0.000 A 
ATOM      6  N   UNL     1       2.162   5.342  20.082  0.00  0.00    +0.000 N 
ATOM      7  C   UNL     1       2.462   6.667  19.792  0.00  0.00    +0.000 A 
ATOM      8  N   UNL     1       3.622   6.731  19.155  0.00  0.00    +0.000 NA
ATOM      9  C   UNL     1       4.099   5.439  19.050  0.00  0.00    +0.000 A 
ATOM     10  C   UNL     1       3.234   4.562  19.680  0.00  0.00    +0.000 A 
ATOM     11  H   UNL     1       4.003   1.353  20.146  0.00  0.00    +0.000 HD
ATOM     12  H   UNL     1       5.118   2.584  19.817  0.00  0.00    +0.000 HD
ENDROOT
BRANCH   7  13
ATOM     13  C   UNL     1       1.590   7.826  20.071  0.00  0.00    +0.000 A 
ATOM     14  C   UNL     1       0.955   8.017  21.308  0.00  0.00    +0.000 A 
ATOM     15  C   UNL     1       0.060   9.074  21.504  0.00  0.00    +0.000 A 
ATOM     16  C   UNL     1      -0.170   9.990  20.484  0.00  0.00    +0.000 A 
ATOM     17  C   UNL     1       0.504   9.858  19.272  0.00  0.00    +0.000 A 
ATOM     18  C   UNL     1       1.378   8.783  19.068  0.00  0.00    +0.000 A 
ENDBRANCH   7  13
BRANCH   9  19
ATOM     19  C   UNL     1       5.342   5.132  18.346  0.00  0.00    +0.000 A 
ATOM     20  C   UNL     1       6.588   5.401  18.926  0.00  0.00    +0.000 A 
ATOM     21  C   UNL     1       7.771   5.225  18.210  0.00  0.00    +0.000 A 
ATOM     22  C   UNL     1       7.732   4.665  16.942  0.00  0.00    +0.000 A 
ATOM     23  C   UNL     1       6.516   4.236  16.408  0.00  0.00    +0.000 A 
ATOM     24  C   UNL     1       5.321   4.514  17.086  0.00  0.00    +0.000 A 
BRANCH  23  25
ATOM     25  O   UNL     1       6.412   3.539  15.231  0.00  0.00    +0.000 OA
BRANCH  25  26
ATOM     26  C   UNL     1       6.445   4.365  14.059  0.00  0.00    +0.000 C 
BRANCH  26  27
ATOM     27  C   UNL     1       5.854   3.627  12.886  0.00  0.00    +0.000 A 
ATOM     28  C   UNL     1       6.525   2.540  12.310  0.00  0.00    +0.000 A 
ATOM     29  C   UNL     1       5.961   1.856  11.232  0.00  0.00    +0.000 A 
ATOM     30  C   UNL     1       4.720   2.244  10.730  0.00  0.00    +0.000 A 
ATOM     31  C   UNL     1       4.034   3.308  11.314  0.00  0.00    +0.000 A 
ATOM     32  C   UNL     1       4.595   3.993  12.390  0.00  0.00    +0.000 A 
ENDBRANCH  26  27
ENDBRANCH  25  26
ENDBRANCH  23  25
ENDBRANCH   9  19
TORSDOF 5
ENDMDL
MODEL 6
REMARK VINA RESULT:      -8.6      0.541      1.020
REMARK  Name = 
REMARK  5 active torsions:
REMARK  status: ('A' for Active; 'I' for Inactive)
REMARK    1  A    between atoms: C_7  and  C_8
REMARK    2  A    between atoms: C_15  and  C_16
REMARK    3  A    between atoms: C_20  and  O_21
REMARK    4  A    between atoms: O_21  and  C_22
REMARK    5  A    between atoms: C_22  and  C_23
REMARK                            x       y       z     vdW  Elec       q    Type
REMARK                         _______ _______ _______ _____ _____    ______ ____
ROOT
ATOM      1  N   UNL     1       4.416   2.380  19.373  0.00  0.00    +0.000 N 
ATOM      2  C   UNL     1       3.433   3.257  19.730  0.00  0.00    +0.000 A 
ATOM      3  N   UNL     1       2.472   2.717  20.446  0.00  0.00    +0.000 NA
ATOM      4  C   UNL     1       1.434   3.509  20.873  0.00  0.00    +0.000 A 
ATOM      5  C   UNL     1       1.353   4.822  20.629  0.00  0.00    +0.000 A 
ATOM      6  N   UNL     1       2.370   5.436  19.911  0.00  0.00    +0.000 N 
ATOM      7  C   UNL     1       2.586   6.757  19.537  0.00  0.00    +0.000 A 
ATOM      8  N   UNL     1       3.652   6.828  18.755  0.00  0.00    +0.000 NA
ATOM      9  C   UNL     1       4.154   5.547  18.634  0.00  0.00    +0.000 A 
ATOM     10  C   UNL     1       3.406   4.671  19.402  0.00  0.00    +0.000 A 
ATOM     11  H   UNL     1       4.334   1.505  19.877  0.00  0.00    +0.000 HD
ATOM     12  H   UNL     1       5.357   2.754  19.363  0.00  0.00    +0.000 HD
ENDROOT
BRANCH   7  13
ATOM     13  C   UNL     1       1.719   7.901  19.886  0.00  0.00    +0.000 A 
ATOM     14  C   UNL     1       1.171   8.075  21.167  0.00  0.00    +0.000 A 
ATOM     15  C   UNL     1       0.277   9.117  21.433  0.00  0.00    +0.000 A 
ATOM     16  C   UNL     1      -0.039  10.035  20.438  0.00  0.00    +0.000 A 
ATOM     17  C   UNL     1       0.549   9.921  19.181  0.00  0.00    +0.000 A 
ATOM     18  C   UNL     1       1.422   8.860  18.907  0.00  0.00    +0.000 A 
ENDBRANCH   7  13
BRANCH   9  19
ATOM     19  C   UNL     1       5.307   5.248  17.787  0.00  0.00    +0.000 A 
ATOM     20  C   UNL     1       6.479   4.704  18.325  0.00  0.00    +0.000 A 
ATOM     21  C   UNL     1       7.621   4.533  17.545  0.00  0.00    +0.000 A 
ATOM     22  C   UNL     1       7.570   4.795  16.183  0.00  0.00    +0.000 A 
ATOM     23  C   UNL     1       6.365   5.181  15.594  0.00  0.00    +0.000 A 
ATOM     24  C   UNL     1       5.251   5.455  16.400  0.00  0.00    +0.000 A 
BRANCH  23  25
ATOM     25  O   UNL     1       6.195   5.313  14.239  0.00  0.00    +0.000 OA
BRANCH  25  26
ATOM     26  C   UNL     1       5.218   4.422  13.684  0.00  0.00    +0.000 C 
BRANCH  26  27
ATOM     27  C   UNL     1       5.862   3.509  12.673  0.00  0.00    +0.000 A 
ATOM     28  C   UNL     1       7.210   3.664  12.320  0.00  0.00    +0.000 A 
ATOM     29  C   UNL     1       7.797   2.804  11.392  0.00  0.00    +0.000 A 
ATOM     30  C   UNL     1       7.050   1.777  10.819  0.00  0.00    +0.000 A 
ATOM     31  C   UNL     1       5.716   1.599  11.183  0.00  0.00    +0.000 A 
ATOM     32  C   UNL     1       5.126   2.457  12.110  0.00  0.00    +0.000 A 
ENDBRANCH  26  27
ENDBRANCH  25  26
ENDBRANCH  23  25
ENDBRANCH   9  19
TORSDOF 5
ENDMDL
MODEL 7
REMARK VINA RESULT:      -8.5      2.560      8.233
REMARK  Name = 
REMARK  5 active torsions:
REMARK  status: ('A' for Active; 'I' for Inactive)
REMARK    1  A    between atoms: C_7  and  C_8
REMARK    2  A    between atoms: C_15  and  C_16
REMARK    3  A    between atoms: C_20  and  O_21
REMARK    4  A    between atoms: O_21  and  C_22
REMARK    5  A    between atoms: C_22  and  C_23
REMARK                            x       y       z     vdW  Elec       q    Type
REMARK                         _______ _______ _______ _____ _____    ______ ____
ROOT
ATOM      1  N   UNL     1       0.624   4.030  20.387  0.00  0.00    +0.000 N 
ATOM      2  C   UNL     1       1.636   3.667  19.546  0.00  0.00    +0.000 A 
ATOM      3  N   UNL     1       1.784   2.366  19.422  0.00  0.00    +0.000 NA
ATOM      4  C   UNL     1       2.765   1.884  18.590  0.00  0.00    +0.000 A 
ATOM      5  C   UNL     1       3.572   2.665  17.862  0.00  0.00    +0.000 A 
ATOM      6  N   UNL     1       3.418   4.042  17.936  0.00  0.00    +0.000 N 
ATOM      7  C   UNL     1       4.062   5.091  17.290  0.00  0.00    +0.000 A 
ATOM      8  N   UNL     1       3.636   6.244  17.784  0.00  0.00    +0.000 NA
ATOM      9  C   UNL     1       2.686   5.950  18.743  0.00  0.00    +0.000 A 
ATOM     10  C   UNL     1       2.488   4.581  18.809  0.00  0.00    +0.000 A 
ATOM     11  H   UNL     1       0.040   3.238  20.628  0.00  0.00    +0.000 HD
ATOM     12  H   UNL     1       0.100   4.851  20.116  0.00  0.00    +0.000 HD
ENDROOT
BRANCH   7  13
ATOM     13  C   UNL     1       5.118   4.951  16.268  0.00  0.00    +0.000 A 
ATOM     14  C   UNL     1       4.874   4.420  14.992  0.00  0.00    +0.000 A 
ATOM     15  C   UNL     1       5.919   4.213  14.084  0.00  0.00    +0.000 A 
ATOM     16  C   UNL     1       7.215   4.587  14.419  0.00  0.00    +0.000 A 
ATOM     17  C   UNL     1       7.467   5.181  15.653  0.00  0.00    +0.000 A 
ATOM     18  C   UNL     1       6.425   5.361  16.572  0.00  0.00    +0.000 A 
ENDBRANCH   7  13
BRANCH   9  19
ATOM     19  C   UNL     1       2.044   6.995  19.536  0.00  0.00    +0.000 A 
ATOM     20  C   UNL     1       1.709   6.783  20.879  0.00  0.00    +0.000 A 
ATOM     21  C   UNL     1       0.986   7.730  21.602  0.00  0.00    +0.000 A 
ATOM     22  C   UNL     1       0.689   8.956  21.026  0.00  0.00    +0.000 A 
ATOM     23  C   UNL     1       1.155   9.254  19.744  0.00  0.00    +0.000 A 
ATOM     24  C   UNL     1       1.786   8.260  18.984  0.00  0.00    +0.000 A 
BRANCH  23  25
ATOM     25  O   UNL     1       1.033  10.492  19.165  0.00  0.00    +0.000 OA
BRANCH  25  26
ATOM     26  C   UNL     1       0.461  10.467  17.850  0.00  0.00    +0.000 C 
BRANCH  26  27
ATOM     27  C   UNL     1      -1.034  10.641  17.931  0.00  0.00    +0.000 A 
ATOM     28  C   UNL     1      -1.894   9.827  17.183  0.00  0.00    +0.000 A 
ATOM     29  C   UNL     1      -3.277   9.990  17.277  0.00  0.00    +0.000 A 
ATOM     30  C   UNL     1      -3.810  10.957  18.126  0.00  0.00    +0.000 A 
ATOM     31  C   UNL     1      -2.963  11.755  18.894  0.00  0.00    +0.000 A 
ATOM     32  C   UNL     1      -1.581  11.595  18.801  0.00  0.00    +0.000 A 
ENDBRANCH  26  27
ENDBRANCH  25  26
ENDBRANCH  23  25
ENDBRANCH   9  19
TORSDOF 5
ENDMDL
MODEL 8
REMARK VINA RESULT:      -8.4      2.815      8.610
REMARK  Name = 
REMARK  5 active torsions:
REMARK  status: ('A' for Active; 'I' for Inactive)
REMARK    1  A    between atoms: C_7  and  C_8
REMARK    2  A    between atoms: C_15  and  C_16
REMARK    3  A    between atoms: C_20  and  O_21
REMARK    4  A    between atoms: O_21  and  C_22
REMARK    5  A    between atoms: C_22  and  C_23
REMARK                            x       y       z     vdW  Elec       q    Type
REMARK                         _______ _______ _______ _____ _____    ______ ____
ROOT
ATOM      1  N   UNL     1       0.692   4.396  20.368  0.00  0.00    +0.000 N 
ATOM      2  C   UNL     1       1.707   3.945  19.576  0.00  0.00    +0.000 A 
ATOM      3  N   UNL     1       1.847   2.637  19.584  0.00  0.00    +0.000 NA
ATOM      4  C   UNL     1       2.831   2.068  18.812  0.00  0.00    +0.000 A 
ATOM      5  C   UNL     1       3.648   2.768  18.016  0.00  0.00    +0.000 A 
ATOM      6  N   UNL     1       3.503   4.146  17.950  0.00  0.00    +0.000 N 
ATOM      7  C   UNL     1       4.158   5.121  17.207  0.00  0.00    +0.000 A 
ATOM      8  N   UNL     1       3.736   6.321  17.579  0.00  0.00    +0.000 NA
ATOM      9  C   UNL     1       2.778   6.130  18.556  0.00  0.00    +0.000 A 
ATOM     10  C   UNL     1       2.571   4.776  18.757  0.00  0.00    +0.000 A 
ATOM     11  H   UNL     1       0.100   3.636  20.683  0.00  0.00    +0.000 HD
ATOM     12  H   UNL     1       0.175   5.190  20.011  0.00  0.00    +0.000 HD
ENDROOT
BRANCH   7  13
ATOM     13  C   UNL     1       5.221   4.874  16.213  0.00  0.00    +0.000 A 
ATOM     14  C   UNL     1       6.575   5.149  16.465  0.00  0.00    +0.000 A 
ATOM     15  C   UNL     1       7.541   4.993  15.465  0.00  0.00    +0.000 A 
ATOM     16  C   UNL     1       7.176   4.506  14.215  0.00  0.00    +0.000 A 
ATOM     17  C   UNL     1       5.850   4.160  13.967  0.00  0.00    +0.000 A 
ATOM     18  C   UNL     1       4.879   4.344  14.960  0.00  0.00    +0.000 A 
ENDBRANCH   7  13
BRANCH   9  19
ATOM     19  C   UNL     1       2.137   7.253  19.236  0.00  0.00    +0.000 A 
ATOM     20  C   UNL     1       1.926   7.238  20.620  0.00  0.00    +0.000 A 
ATOM     21  C   UNL     1       1.205   8.249  21.252  0.00  0.00    +0.000 A 
ATOM     22  C   UNL     1       0.785   9.353  20.525  0.00  0.00    +0.000 A 
ATOM     23  C   UNL     1       1.127   9.469  19.177  0.00  0.00    +0.000 A 
ATOM     24  C   UNL     1       1.756   8.401  18.523  0.00  0.00    +0.000 A 
BRANCH  23  25
ATOM     25  O   UNL     1       0.881  10.593  18.429  0.00  0.00    +0.000 OA
BRANCH  25  26
ATOM     26  C   UNL     1       0.258  11.657  19.163  0.00  0.00    +0.000 C 
BRANCH  26  27
ATOM     27  C   UNL     1       1.003  12.947  18.941  0.00  0.00    +0.000 A 
ATOM     28  C   UNL     1       2.290  12.948  18.385  0.00  0.00    +0.000 A 
ATOM     29  C   UNL     1       2.964  14.150  18.173  0.00  0.00    +0.000 A 
ATOM     30  C   UNL     1       2.355  15.361  18.500  0.00  0.00    +0.000 A 
ATOM     31  C   UNL     1       1.065  15.371  19.028  0.00  0.00    +0.000 A 
ATOM     32  C   UNL     1       0.390  14.171  19.243  0.00  0.00    +0.000 A 
ENDBRANCH  26  27
ENDBRANCH  25  26
ENDBRANCH  23  25
ENDBRANCH   9  19
TORSDOF 5
ENDMDL
MODEL 9
REMARK VINA RESULT:      -8.3      5.592      8.608
REMARK  Name = 
REMARK  5 active torsions:
REMARK  status: ('A' for Active; 'I' for Inactive)
REMARK    1  A    between atoms: C_7  and  C_8
REMARK    2  A    between atoms: C_15  and  C_16
REMARK    3  A    between atoms: C_20  and  O_21
REMARK    4  A    between atoms: O_21  and  C_22
REMARK    5  A    between atoms: C_22  and  C_23
REMARK                            x       y       z     vdW  Elec       q    Type
REMARK                         _______ _______ _______ _____ _____    ______ ____
ROOT
ATOM      1  N   UNL     1       2.567  13.321  20.535  0.00  0.00    +0.000 N 
ATOM      2  C   UNL     1       1.456  13.617  21.270  0.00  0.00    +0.000 A 
ATOM      3  N   UNL     1       1.562  14.723  21.972  0.00  0.00    +0.000 NA
ATOM      4  C   UNL     1       0.498  15.128  22.743  0.00  0.00    +0.000 A 
ATOM      5  C   UNL     1      -0.668  14.475  22.800  0.00  0.00    +0.000 A 
ATOM      6  N   UNL     1      -0.831  13.324  22.041  0.00  0.00    +0.000 N 
ATOM      7  C   UNL     1      -1.910  12.467  21.862  0.00  0.00    +0.000 A 
ATOM      8  N   UNL     1      -1.538  11.434  21.119  0.00  0.00    +0.000 NA
ATOM      9  C   UNL     1      -0.211  11.630  20.787  0.00  0.00    +0.000 A 
ATOM     10  C   UNL     1       0.231  12.838  21.298  0.00  0.00    +0.000 A 
ATOM     11  H   UNL     1       3.214  14.100  20.510  0.00  0.00    +0.000 HD
ATOM     12  H   UNL     1       2.396  12.908  19.626  0.00  0.00    +0.000 HD
ENDROOT
BRANCH   7  13
ATOM     13  C   UNL     1      -3.245  12.628  22.470  0.00  0.00    +0.000 A 
ATOM     14  C   UNL     1      -3.464  12.548  23.855  0.00  0.00    +0.000 A 
ATOM     15  C   UNL     1      -4.756  12.610  24.387  0.00  0.00    +0.000 A 
ATOM     16  C   UNL     1      -5.845  12.808  23.546  0.00  0.00    +0.000 A 
ATOM     17  C   UNL     1      -5.643  12.960  22.177  0.00  0.00    +0.000 A 
ATOM     18  C   UNL     1      -4.351  12.870  21.643  0.00  0.00    +0.000 A 
ENDBRANCH   7  13
BRANCH   9  19
ATOM     19  C   UNL     1       0.542  10.646  20.013  0.00  0.00    +0.000 A 
ATOM     20  C   UNL     1       0.992  10.932  18.718  0.00  0.00    +0.000 A 
ATOM     21  C   UNL     1       1.601   9.956  17.932  0.00  0.00    +0.000 A 
ATOM     22  C   UNL     1       1.876   8.709  18.474  0.00  0.00    +0.000 A 
ATOM     23  C   UNL     1       1.585   8.453  19.815  0.00  0.00    +0.000 A 
ATOM     24  C   UNL     1       0.876   9.400  20.567  0.00  0.00    +0.000 A 
BRANCH  23  25
ATOM     25  O   UNL     1       1.960   7.304  20.463  0.00  0.00    +0.000 OA
BRANCH  25  26
ATOM     26  C   UNL     1       2.769   6.424  19.670  0.00  0.00    +0.000 C 
BRANCH  26  27
ATOM     27  C   UNL     1       2.085   5.091  19.512  0.00  0.00    +0.000 A 
ATOM     28  C   UNL     1       1.952   4.496  18.250  0.00  0.00    +0.000 A 
ATOM     29  C   UNL     1       1.328   3.255  18.119  0.00  0.00    +0.000 A 
ATOM     30  C   UNL     1       0.845   2.593  19.246  0.00  0.00    +0.000 A 
ATOM     31  C   UNL     1       0.996   3.165  20.509  0.00  0.00    +0.000 A 
ATOM     32  C   UNL     1       1.618   4.405  20.642  0.00  0.00    +0.000 A 
ENDBRANCH  26  27
ENDBRANCH  25  26
ENDBRANCH  23  25
ENDBRANCH   9  19
TORSDOF 5
ENDMDL
