MODEL 1
REMARK VINA RESULT:      -8.4      0.000      0.000
REMARK  Name = 
REMARK  3 active torsions:
REMARK  status: ('A' for Active; 'I' for Inactive)
REMARK    1  A    between atoms: C_1  and  C_2
REMARK    2  A    between atoms: C_13  and  C_14
REMARK    3  A    between atoms: C_14  and  C_15
REMARK                            x       y       z     vdW  Elec       q    Type
REMARK                         _______ _______ _______ _____ _____    ______ ____
ROOT
ATOM      1  C   UNL     1       0.996   2.338  18.918  0.00  0.00    +0.000 C 
ATOM      2  C   UNL     1       2.458   2.123  19.324  0.00  0.00    +0.000 C 
ATOM      3  C   UNL     1       3.366   1.899  18.106  0.00  0.00    +0.000 C 
ATOM      4  C   UNL     1       3.617   3.184  17.312  0.00  0.00    +0.000 C 
ATOM      5  C   UNL     1       4.083   4.327  18.215  0.00  0.00    +0.000 C 
ATOM      6  N   UNL     1       3.162   4.499  19.336  0.00  0.00    +0.000 N 
ATOM      7  C   UNL     1       2.494   5.644  19.732  0.00  0.00    +0.000 C 
ATOM      8  O   UNL     1       1.783   5.611  20.741  0.00  0.00    +0.000 OA
ATOM      9  N   UNL     1       2.647   6.763  18.947  0.00  0.00    +0.000 N 
ATOM     10  C   UNL     1       2.001   7.922  19.310  0.00  0.00    +0.000 A 
ATOM     11  N   UNL     1       1.469   8.220  20.465  0.00  0.00    +0.000 NA
ATOM     12  C   UNL     1       0.763   9.392  20.368  0.00  0.00    +0.000 A 
ATOM     13  C   UNL     1       0.823  10.023  19.143  0.00  0.00    +0.000 A 
ATOM     14  S   UNL     1       1.831   9.104  18.085  0.00  0.00    +0.000 S 
ATOM     15  C   UNL     1       2.983   3.297  20.157  0.00  0.00    +0.000 C 
ATOM     16  H   UNL     1       2.952   6.692  17.998  0.00  0.00    +0.000 HD
ENDROOT
BRANCH  13  17
ATOM     17  C   UNL     1       0.103  11.256  18.706  0.00  0.00    +0.000 C 
BRANCH  17  18
ATOM     18  C   UNL     1      -1.340  11.027  18.325  0.00  0.00    +0.000 A 
ATOM     19  C   UNL     1      -2.356  11.814  18.887  0.00  0.00    +0.000 A 
ATOM     20  C   UNL     1      -3.684  11.644  18.493  0.00  0.00    +0.000 A 
ATOM     21  C   UNL     1      -4.013  10.684  17.538  0.00  0.00    +0.000 A 
ATOM     22  C   UNL     1      -3.016   9.880  16.989  0.00  0.00    +0.000 A 
ATOM     23  C   UNL     1      -1.687  10.043  17.387  0.00  0.00    +0.000 A 
ENDBRANCH  17  18
ENDBRANCH  13  17
TORSDOF 2
ENDMDL
MODEL 2
REMARK VINA RESULT:      -8.4      0.065      1.031
REMARK  Name = 
REMARK  3 active torsions:
REMARK  status: ('A' for Active; 'I' for Inactive)
REMARK    1  A    between atoms: C_1  and  C_2
REMARK    2  A    between atoms: C_13  and  C_14
REMARK    3  A    between atoms: C_14  and  C_15
REMARK                            x       y       z     vdW  Elec       q    Type
REMARK                         _______ _______ _______ _____ _____    ______ ____
ROOT
ATOM      1  C   UNL     1       0.942   2.356  18.885  0.00  0.00    +0.000 C 
ATOM      2  C   UNL     1       2.394   2.123  19.314  0.00  0.00    +0.000 C 
ATOM      3  C   UNL     1       3.320   1.895  18.110  0.00  0.00    +0.000 C 
ATOM      4  C   UNL     1       3.598   3.181  17.327  0.00  0.00    +0.000 C 
ATOM      5  C   UNL     1       4.061   4.314  18.244  0.00  0.00    +0.000 C 
ATOM      6  N   UNL     1       3.123   4.491  19.351  0.00  0.00    +0.000 N 
ATOM      7  C   UNL     1       2.462   5.641  19.742  0.00  0.00    +0.000 C 
ATOM      8  O   UNL     1       1.733   5.611  20.738  0.00  0.00    +0.000 OA
ATOM      9  N   UNL     1       2.640   6.762  18.965  0.00  0.00    +0.000 N 
ATOM     10  C   UNL     1       2.001   7.926  19.323  0.00  0.00    +0.000 A 
ATOM     11  N   UNL     1       1.452   8.225  20.470  0.00  0.00    +0.000 NA
ATOM     12  C   UNL     1       0.762   9.405  20.368  0.00  0.00    +0.000 A 
ATOM     13  C   UNL     1       0.849  10.041  19.147  0.00  0.00    +0.000 A 
ATOM     14  S   UNL     1       1.864   9.116  18.102  0.00  0.00    +0.000 S 
ATOM     15  C   UNL     1       2.918   3.286  20.162  0.00  0.00    +0.000 C 
ATOM     16  H   UNL     1       2.960   6.693  18.021  0.00  0.00    +0.000 HD
ENDROOT
BRANCH  13  17
ATOM     17  C   UNL     1       0.150  11.284  18.705  0.00  0.00    +0.000 C 
BRANCH  17  18
ATOM     18  C   UNL     1      -1.295  11.076  18.318  0.00  0.00    +0.000 A 
ATOM     19  C   UNL     1      -1.650  10.059  17.421  0.00  0.00    +0.000 A 
ATOM     20  C   UNL     1      -2.990   9.827  17.106  0.00  0.00    +0.000 A 
ATOM     21  C   UNL     1      -3.989  10.610  17.680  0.00  0.00    +0.000 A 
ATOM     22  C   UNL     1      -3.648  11.639  18.555  0.00  0.00    +0.000 A 
ATOM     23  C   UNL     1      -2.308  11.879  18.866  0.00  0.00    +0.000 A 
ENDBRANCH  17  18
ENDBRANCH  13  17
TORSDOF 2
ENDMDL
MODEL 3
REMARK VINA RESULT:      -7.4      1.756      3.151
REMARK  Name = 
REMARK  3 active torsions:
REMARK  status: ('A' for Active; 'I' for Inactive)
REMARK    1  A    between atoms: C_1  and  C_2
REMARK    2  A    between atoms: C_13  and  C_14
REMARK    3  A    between atoms: C_14  and  C_15
REMARK                            x       y       z     vdW  Elec       q    Type
REMARK                         _______ _______ _______ _____ _____    ______ ____
ROOT
ATOM      1  C   UNL     1       0.878   2.409  18.891  0.00  0.00    +0.000 C 
ATOM      2  C   UNL     1       2.335   2.157  19.295  0.00  0.00    +0.000 C 
ATOM      3  C   UNL     1       3.233   1.900  18.077  0.00  0.00    +0.000 C 
ATOM      4  C   UNL     1       3.517   3.172  17.273  0.00  0.00    +0.000 C 
ATOM      5  C   UNL     1       4.016   4.309  18.167  0.00  0.00    +0.000 C 
ATOM      6  N   UNL     1       3.103   4.513  19.289  0.00  0.00    +0.000 N 
ATOM      7  C   UNL     1       2.467   5.679  19.678  0.00  0.00    +0.000 C 
ATOM      8  O   UNL     1       1.758   5.673  20.689  0.00  0.00    +0.000 OA
ATOM      9  N   UNL     1       2.649   6.788  18.885  0.00  0.00    +0.000 N 
ATOM     10  C   UNL     1       2.036   7.967  19.240  0.00  0.00    +0.000 A 
ATOM     11  N   UNL     1       1.514   8.288  20.394  0.00  0.00    +0.000 NA
ATOM     12  C   UNL     1       0.841   9.477  20.290  0.00  0.00    +0.000 A 
ATOM     13  C   UNL     1       0.915  10.098  19.061  0.00  0.00    +0.000 A 
ATOM     14  S   UNL     1       1.895   9.144  18.008  0.00  0.00    +0.000 S 
ATOM     15  C   UNL     1       2.893   3.322  20.119  0.00  0.00    +0.000 C 
ATOM     16  H   UNL     1       2.949   6.702  17.935  0.00  0.00    +0.000 HD
ENDROOT
BRANCH  13  17
ATOM     17  C   UNL     1       0.228  11.347  18.617  0.00  0.00    +0.000 C 
BRANCH  17  18
ATOM     18  C   UNL     1       1.034  12.606  18.833  0.00  0.00    +0.000 A 
ATOM     19  C   UNL     1       2.299  12.748  18.245  0.00  0.00    +0.000 A 
ATOM     20  C   UNL     1       3.021  13.933  18.395  0.00  0.00    +0.000 A 
ATOM     21  C   UNL     1       2.489  14.987  19.135  0.00  0.00    +0.000 A 
ATOM     22  C   UNL     1       1.243  14.850  19.743  0.00  0.00    +0.000 A 
ATOM     23  C   UNL     1       0.522  13.663  19.602  0.00  0.00    +0.000 A 
ENDBRANCH  17  18
ENDBRANCH  13  17
TORSDOF 2
ENDMDL
MODEL 4
REMARK VINA RESULT:      -7.3      1.796      3.087
REMARK  Name = 
REMARK  3 active torsions:
REMARK  status: ('A' for Active; 'I' for Inactive)
REMARK    1  A    between atoms: C_1  and  C_2
REMARK    2  A    between atoms: C_13  and  C_14
REMARK    3  A    between atoms: C_14  and  C_15
REMARK                            x       y       z     vdW  Elec       q    Type
REMARK                         _______ _______ _______ _____ _____    ______ ____
ROOT
ATOM      1  C   UNL     1       0.821   2.399  18.869  0.00  0.00    +0.000 C 
ATOM      2  C   UNL     1       2.267   2.119  19.290  0.00  0.00    +0.000 C 
ATOM      3  C   UNL     1       3.180   1.867  18.082  0.00  0.00    +0.000 C 
ATOM      4  C   UNL     1       3.495   3.148  17.303  0.00  0.00    +0.000 C 
ATOM      5  C   UNL     1       3.997   4.262  18.223  0.00  0.00    +0.000 C 
ATOM      6  N   UNL     1       3.070   4.463  19.334  0.00  0.00    +0.000 N 
ATOM      7  C   UNL     1       2.446   5.632  19.733  0.00  0.00    +0.000 C 
ATOM      8  O   UNL     1       1.721   5.620  20.732  0.00  0.00    +0.000 OA
ATOM      9  N   UNL     1       2.657   6.750  18.961  0.00  0.00    +0.000 N 
ATOM     10  C   UNL     1       2.056   7.932  19.326  0.00  0.00    +0.000 A 
ATOM     11  N   UNL     1       1.522   8.243  20.477  0.00  0.00    +0.000 NA
ATOM     12  C   UNL     1       0.868   9.444  20.382  0.00  0.00    +0.000 A 
ATOM     13  C   UNL     1       0.970  10.082  19.164  0.00  0.00    +0.000 A 
ATOM     14  S   UNL     1       1.951   9.131  18.110  0.00  0.00    +0.000 S 
ATOM     15  C   UNL     1       2.830   3.262  20.142  0.00  0.00    +0.000 C 
ATOM     16  H   UNL     1       2.970   6.675  18.014  0.00  0.00    +0.000 HD
ENDROOT
BRANCH  13  17
ATOM     17  C   UNL     1       0.308  11.349  18.730  0.00  0.00    +0.000 C 
BRANCH  17  18
ATOM     18  C   UNL     1       1.127  12.593  18.983  0.00  0.00    +0.000 A 
ATOM     19  C   UNL     1       0.855  13.408  20.091  0.00  0.00    +0.000 A 
ATOM     20  C   UNL     1       1.646  14.526  20.360  0.00  0.00    +0.000 A 
ATOM     21  C   UNL     1       2.716  14.843  19.525  0.00  0.00    +0.000 A 
ATOM     22  C   UNL     1       2.983  14.053  18.409  0.00  0.00    +0.000 A 
ATOM     23  C   UNL     1       2.188  12.939  18.132  0.00  0.00    +0.000 A 
ENDBRANCH  17  18
ENDBRANCH  13  17
TORSDOF 2
ENDMDL
MODEL 5
REMARK VINA RESULT:      -7.3      5.177      8.320
REMARK  Name = 
REMARK  3 active torsions:
REMARK  status: ('A' for Active; 'I' for Inactive)
REMARK    1  A    between atoms: C_1  and  C_2
REMARK    2  A    between atoms: C_13  and  C_14
REMARK    3  A    between atoms: C_14  and  C_15
REMARK                            x       y       z     vdW  Elec       q    Type
REMARK                         _______ _______ _______ _____ _____    ______ ____
ROOT
ATOM      1  C   UNL     1       0.464   2.950  19.124  0.00  0.00    +0.000 C 
ATOM      2  C   UNL     1       0.878   3.622  20.438  0.00  0.00    +0.000 C 
ATOM      3  C   UNL     1       1.574   2.641  21.391  0.00  0.00    +0.000 C 
ATOM      4  C   UNL     1       2.998   2.293  20.944  0.00  0.00    +0.000 C 
ATOM      5  C   UNL     1       3.823   3.548  20.653  0.00  0.00    +0.000 C 
ATOM      6  N   UNL     1       3.111   4.421  19.722  0.00  0.00    +0.000 N 
ATOM      7  C   UNL     1       3.552   4.932  18.514  0.00  0.00    +0.000 C 
ATOM      8  O   UNL     1       2.821   5.697  17.878  0.00  0.00    +0.000 OA
ATOM      9  N   UNL     1       4.791   4.526  18.076  0.00  0.00    +0.000 N 
ATOM     10  C   UNL     1       5.265   5.013  16.881  0.00  0.00    +0.000 A 
ATOM     11  N   UNL     1       4.836   6.044  16.203  0.00  0.00    +0.000 NA
ATOM     12  C   UNL     1       5.450   6.091  14.979  0.00  0.00    +0.000 A 
ATOM     13  C   UNL     1       6.409   5.124  14.757  0.00  0.00    +0.000 A 
ATOM     14  S   UNL     1       6.547   4.135  16.165  0.00  0.00    +0.000 S 
ATOM     15  C   UNL     1       1.781   4.833  20.182  0.00  0.00    +0.000 C 
ATOM     16  H   UNL     1       5.217   3.692  18.426  0.00  0.00    +0.000 HD
ENDROOT
BRANCH  13  17
ATOM     17  C   UNL     1       7.183   4.865  13.507  0.00  0.00    +0.000 C 
BRANCH  17  18
ATOM     18  C   UNL     1       6.574   3.816  12.607  0.00  0.00    +0.000 A 
ATOM     19  C   UNL     1       7.389   2.878  11.959  0.00  0.00    +0.000 A 
ATOM     20  C   UNL     1       6.824   1.871  11.173  0.00  0.00    +0.000 A 
ATOM     21  C   UNL     1       5.441   1.793  11.025  0.00  0.00    +0.000 A 
ATOM     22  C   UNL     1       4.621   2.733  11.647  0.00  0.00    +0.000 A 
ATOM     23  C   UNL     1       5.184   3.746  12.426  0.00  0.00    +0.000 A 
ENDBRANCH  17  18
ENDBRANCH  13  17
TORSDOF 2
ENDMDL
MODEL 6
REMARK VINA RESULT:      -7.3      1.204      1.794
REMARK  Name = 
REMARK  3 active torsions:
REMARK  status: ('A' for Active; 'I' for Inactive)
REMARK    1  A    between atoms: C_1  and  C_2
REMARK    2  A    between atoms: C_13  and  C_14
REMARK    3  A    between atoms: C_14  and  C_15
REMARK                            x       y       z     vdW  Elec       q    Type
REMARK                         _______ _______ _______ _____ _____    ______ ____
ROOT
ATOM      1  C   UNL     1       2.454   3.352  17.216  0.00  0.00    +0.000 C 
ATOM      2  C   UNL     1       3.884   3.387  17.766  0.00  0.00    +0.000 C 
ATOM      3  C   UNL     1       4.903   3.794  16.693  0.00  0.00    +0.000 C 
ATOM      4  C   UNL     1       4.836   5.286  16.350  0.00  0.00    +0.000 C 
ATOM      5  C   UNL     1       4.893   6.159  17.605  0.00  0.00    +0.000 C 
ATOM      6  N   UNL     1       3.883   5.731  18.570  0.00  0.00    +0.000 N 
ATOM      7  C   UNL     1       2.891   6.487  19.169  0.00  0.00    +0.000 C 
ATOM      8  O   UNL     1       2.148   5.960  20.002  0.00  0.00    +0.000 OA
ATOM      9  N   UNL     1       2.777   7.799  18.773  0.00  0.00    +0.000 N 
ATOM     10  C   UNL     1       1.805   8.585  19.347  0.00  0.00    +0.000 A 
ATOM     11  N   UNL     1       1.128   8.358  20.441  0.00  0.00    +0.000 NA
ATOM     12  C   UNL     1       0.129   9.286  20.576  0.00  0.00    +0.000 A 
ATOM     13  C   UNL     1       0.096  10.269  19.609  0.00  0.00    +0.000 A 
ATOM     14  S   UNL     1       1.396  10.015  18.503  0.00  0.00    +0.000 S 
ATOM     15  C   UNL     1       3.993   4.325  18.973  0.00  0.00    +0.000 C 
ATOM     16  H   UNL     1       3.157   8.112  17.903  0.00  0.00    +0.000 HD
ENDROOT
BRANCH  13  17
ATOM     17  C   UNL     1      -0.911  11.359  19.438  0.00  0.00    +0.000 C 
BRANCH  17  18
ATOM     18  C   UNL     1      -1.961  11.072  18.391  0.00  0.00    +0.000 A 
ATOM     19  C   UNL     1      -1.713  10.137  17.376  0.00  0.00    +0.000 A 
ATOM     20  C   UNL     1      -2.702   9.827  16.441  0.00  0.00    +0.000 A 
ATOM     21  C   UNL     1      -3.947  10.450  16.507  0.00  0.00    +0.000 A 
ATOM     22  C   UNL     1      -4.198  11.397  17.497  0.00  0.00    +0.000 A 
ATOM     23  C   UNL     1      -3.208  11.716  18.429  0.00  0.00    +0.000 A 
ENDBRANCH  17  18
ENDBRANCH  13  17
TORSDOF 2
ENDMDL
MODEL 7
REMARK VINA RESULT:      -7.2      5.252      8.398
REMARK  Name = 
REMARK  3 active torsions:
REMARK  status: ('A' for Active; 'I' for Inactive)
REMARK    1  A    between atoms: C_1  and  C_2
REMARK    2  A    between atoms: C_13  and  C_14
REMARK    3  A    between atoms: C_14  and  C_15
REMARK                            x       y       z     vdW  Elec       q    Type
REMARK                         _______ _______ _______ _____ _____    ______ ____
ROOT
ATOM      1  C   UNL     1       0.609   2.929  19.116  0.00  0.00    +0.000 C 
ATOM      2  C   UNL     1       1.070   3.584  20.422  0.00  0.00    +0.000 C 
ATOM      3  C   UNL     1       1.792   2.588  21.341  0.00  0.00    +0.000 C 
ATOM      4  C   UNL     1       3.198   2.238  20.843  0.00  0.00    +0.000 C 
ATOM      5  C   UNL     1       4.020   3.491  20.539  0.00  0.00    +0.000 C 
ATOM      6  N   UNL     1       3.283   4.379  19.642  0.00  0.00    +0.000 N 
ATOM      7  C   UNL     1       3.687   4.900  18.426  0.00  0.00    +0.000 C 
ATOM      8  O   UNL     1       2.939   5.676  17.823  0.00  0.00    +0.000 OA
ATOM      9  N   UNL     1       4.908   4.493  17.943  0.00  0.00    +0.000 N 
ATOM     10  C   UNL     1       5.345   4.991  16.738  0.00  0.00    +0.000 A 
ATOM     11  N   UNL     1       4.899   6.032  16.086  0.00  0.00    +0.000 NA
ATOM     12  C   UNL     1       5.473   6.089  14.843  0.00  0.00    +0.000 A 
ATOM     13  C   UNL     1       6.418   5.120  14.579  0.00  0.00    +0.000 A 
ATOM     14  S   UNL     1       6.598   4.114  15.970  0.00  0.00    +0.000 S 
ATOM     15  C   UNL     1       1.971   4.793  20.151  0.00  0.00    +0.000 C 
ATOM     16  H   UNL     1       5.340   3.653  18.269  0.00  0.00    +0.000 HD
ENDROOT
BRANCH  13  17
ATOM     17  C   UNL     1       7.150   4.871  13.301  0.00  0.00    +0.000 C 
BRANCH  17  18
ATOM     18  C   UNL     1       6.619   3.704  12.501  0.00  0.00    +0.000 A 
ATOM     19  C   UNL     1       5.240   3.551  12.300  0.00  0.00    +0.000 A 
ATOM     20  C   UNL     1       4.751   2.506  11.514  0.00  0.00    +0.000 A 
ATOM     21  C   UNL     1       5.632   1.603  10.923  0.00  0.00    +0.000 A 
ATOM     22  C   UNL     1       7.003   1.731  11.134  0.00  0.00    +0.000 A 
ATOM     23  C   UNL     1       7.496   2.770  11.927  0.00  0.00    +0.000 A 
ENDBRANCH  17  18
ENDBRANCH  13  17
TORSDOF 2
ENDMDL
MODEL 8
REMARK VINA RESULT:      -7.1      1.692      2.611
REMARK  Name = 
REMARK  3 active torsions:
REMARK  status: ('A' for Active; 'I' for Inactive)
REMARK    1  A    between atoms: C_1  and  C_2
REMARK    2  A    between atoms: C_13  and  C_14
REMARK    3  A    between atoms: C_14  and  C_15
REMARK                            x       y       z     vdW  Elec       q    Type
REMARK                         _______ _______ _______ _____ _____    ______ ____
ROOT
ATOM      1  C   UNL     1       0.983   2.397  18.869  0.00  0.00    +0.000 C 
ATOM      2  C   UNL     1       2.458   2.182  19.224  0.00  0.00    +0.000 C 
ATOM      3  C   UNL     1       3.333   2.016  17.973  0.00  0.00    +0.000 C 
ATOM      4  C   UNL     1       3.548   3.334  17.223  0.00  0.00    +0.000 C 
ATOM      5  C   UNL     1       4.028   4.446  18.157  0.00  0.00    +0.000 C 
ATOM      6  N   UNL     1       3.138   4.564  19.309  0.00  0.00    +0.000 N 
ATOM      7  C   UNL     1       2.471   5.685  19.769  0.00  0.00    +0.000 C 
ATOM      8  O   UNL     1       1.789   5.605  20.795  0.00  0.00    +0.000 OA
ATOM      9  N   UNL     1       2.590   6.835  19.024  0.00  0.00    +0.000 N 
ATOM     10  C   UNL     1       1.944   7.972  19.450  0.00  0.00    +0.000 A 
ATOM     11  N   UNL     1       1.441   8.220  20.630  0.00  0.00    +0.000 NA
ATOM     12  C   UNL     1       0.722   9.386  20.599  0.00  0.00    +0.000 A 
ATOM     13  C   UNL     1       0.741  10.065  19.398  0.00  0.00    +0.000 A 
ATOM     14  S   UNL     1       1.726   9.199  18.277  0.00  0.00    +0.000 S 
ATOM     15  C   UNL     1       2.995   3.329  20.088  0.00  0.00    +0.000 C 
ATOM     16  H   UNL     1       2.868   6.805  18.064  0.00  0.00    +0.000 HD
ENDROOT
BRANCH  13  17
ATOM     17  C   UNL     1      -0.004  11.306  19.031  0.00  0.00    +0.000 C 
BRANCH  17  18
ATOM     18  C   UNL     1      -0.288  12.225  20.196  0.00  0.00    +0.000 A 
ATOM     19  C   UNL     1      -1.534  12.191  20.838  0.00  0.00    +0.000 A 
ATOM     20  C   UNL     1      -1.780  12.997  21.951  0.00  0.00    +0.000 A 
ATOM     21  C   UNL     1      -0.786  13.846  22.432  0.00  0.00    +0.000 A 
ATOM     22  C   UNL     1       0.448  13.905  21.790  0.00  0.00    +0.000 A 
ATOM     23  C   UNL     1       0.695  13.106  20.671  0.00  0.00    +0.000 A 
ENDBRANCH  17  18
ENDBRANCH  13  17
TORSDOF 2
ENDMDL
MODEL 9
REMARK VINA RESULT:      -7.1      1.876      2.751
REMARK  Name = 
REMARK  3 active torsions:
REMARK  status: ('A' for Active; 'I' for Inactive)
REMARK    1  A    between atoms: C_1  and  C_2
REMARK    2  A    between atoms: C_13  and  C_14
REMARK    3  A    between atoms: C_14  and  C_15
REMARK                            x       y       z     vdW  Elec       q    Type
REMARK                         _______ _______ _______ _____ _____    ______ ____
ROOT
ATOM      1  C   UNL     1       1.038   2.410  18.885  0.00  0.00    +0.000 C 
ATOM      2  C   UNL     1       2.536   2.227  19.149  0.00  0.00    +0.000 C 
ATOM      3  C   UNL     1       3.342   2.126  17.847  0.00  0.00    +0.000 C 
ATOM      4  C   UNL     1       3.478   3.474  17.130  0.00  0.00    +0.000 C 
ATOM      5  C   UNL     1       3.980   4.569  18.073  0.00  0.00    +0.000 C 
ATOM      6  N   UNL     1       3.154   4.623  19.277  0.00  0.00    +0.000 N 
ATOM      7  C   UNL     1       2.484   5.710  19.811  0.00  0.00    +0.000 C 
ATOM      8  O   UNL     1       1.864   5.577  20.871  0.00  0.00    +0.000 OA
ATOM      9  N   UNL     1       2.530   6.886  19.100  0.00  0.00    +0.000 N 
ATOM     10  C   UNL     1       1.877   7.989  19.599  0.00  0.00    +0.000 A 
ATOM     11  N   UNL     1       1.437   8.184  20.814  0.00  0.00    +0.000 NA
ATOM     12  C   UNL     1       0.685   9.330  20.863  0.00  0.00    +0.000 A 
ATOM     13  C   UNL     1       0.617  10.047  19.687  0.00  0.00    +0.000 A 
ATOM     14  S   UNL     1       1.560   9.246  18.484  0.00  0.00    +0.000 S 
ATOM     15  C   UNL     1       3.090   3.360  20.020  0.00  0.00    +0.000 C 
ATOM     16  H   UNL     1       2.753   6.895  18.126  0.00  0.00    +0.000 HD
ENDROOT
BRANCH  13  17
ATOM     17  C   UNL     1      -0.181  11.277  19.404  0.00  0.00    +0.000 C 
BRANCH  17  18
ATOM     18  C   UNL     1      -0.395  12.165  20.607  0.00  0.00    +0.000 A 
ATOM     19  C   UNL     1       0.537  13.162  20.927  0.00  0.00    +0.000 A 
ATOM     20  C   UNL     1       0.313  14.022  22.003  0.00  0.00    +0.000 A 
ATOM     21  C   UNL     1      -0.842  13.894  22.773  0.00  0.00    +0.000 A 
ATOM     22  C   UNL     1      -1.765  12.893  22.478  0.00  0.00    +0.000 A 
ATOM     23  C   UNL     1      -1.540  12.026  21.407  0.00  0.00    +0.000 A 
ENDBRANCH  17  18
ENDBRANCH  13  17
TORSDOF 2
ENDMDL
