MODEL 1
REMARK VINA RESULT:      -6.3      0.000      0.000
REMARK  Name = 
REMARK  5 active torsions:
REMARK  status: ('A' for Active; 'I' for Inactive)
REMARK    1  A    between atoms: C_1  and  O_2
REMARK    2  A    between atoms: O_2  and  C_3
REMARK    3  A    between atoms: C_5  and  O_6
REMARK    4  A    between atoms: C_8  and  C_9
REMARK    5  A    between atoms: C_10  and  C_11
REMARK                            x       y       z     vdW  Elec       q    Type
REMARK                         _______ _______ _______ _____ _____    ______ ____
ROOT
ATOM      1  C   UNL     1       6.891   5.917  16.215  0.00  0.00    +0.000 A 
ATOM      2  C   UNL     1       7.077   5.130  15.078  0.00  0.00    +0.000 A 
ATOM      3  C   UNL     1       6.173   4.109  14.794  0.00  0.00    +0.000 A 
ATOM      4  C   UNL     1       5.081   3.868  15.622  0.00  0.00    +0.000 A 
ATOM      5  C   UNL     1       4.873   4.661  16.754  0.00  0.00    +0.000 A 
ATOM      6  C   UNL     1       5.799   5.671  17.051  0.00  0.00    +0.000 A 
ENDROOT
BRANCH   1   8
ATOM      7  C   UNL     1       7.730   7.624  17.633  0.00  0.00    +0.000 C 
ATOM      8  O   UNL     1       7.835   6.890  16.417  0.00  0.00    +0.000 OA
ENDBRANCH   1   8
BRANCH   3   9
ATOM      9  O   UNL     1       6.328   3.309  13.699  0.00  0.00    +0.000 OA
ATOM     10  H   UNL     1       7.065   3.652  13.167  0.00  0.00    +0.000 HD
ENDBRANCH   3   9
BRANCH   5  11
ATOM     11  C   UNL     1       3.741   4.369  17.649  0.00  0.00    +0.000 C 
ATOM     12  C   UNL     1       3.859   3.790  18.854  0.00  0.00    +0.000 C 
BRANCH  12  13
ATOM     13  C   UNL     1       2.728   3.481  19.665  0.00  0.00    +0.000 A 
ATOM     14  C   UNL     1       1.373   3.686  19.451  0.00  0.00    +0.000 A 
ATOM     15  C   UNL     1       0.555   3.213  20.515  0.00  0.00    +0.000 A 
ATOM     16  C   UNL     1       1.299   2.652  21.523  0.00  0.00    +0.000 A 
ATOM     17  S   UNL     1       2.971   2.696  21.185  0.00  0.00    +0.000 S 
ENDBRANCH  12  13
ENDBRANCH   5  11
TORSDOF 4
ENDMDL
MODEL 2
REMARK VINA RESULT:      -6.3      0.877      1.104
REMARK  Name = 
REMARK  5 active torsions:
REMARK  status: ('A' for Active; 'I' for Inactive)
REMARK    1  A    between atoms: C_1  and  O_2
REMARK    2  A    between atoms: O_2  and  C_3
REMARK    3  A    between atoms: C_5  and  O_6
REMARK    4  A    between atoms: C_8  and  C_9
REMARK    5  A    between atoms: C_10  and  C_11
REMARK                            x       y       z     vdW  Elec       q    Type
REMARK                         _______ _______ _______ _____ _____    ______ ____
ROOT
ATOM      1  C   UNL     1       6.937   5.708  16.158  0.00  0.00    +0.000 A 
ATOM      2  C   UNL     1       7.077   5.069  14.926  0.00  0.00    +0.000 A 
ATOM      3  C   UNL     1       6.264   3.980  14.620  0.00  0.00    +0.000 A 
ATOM      4  C   UNL     1       5.307   3.525  15.522  0.00  0.00    +0.000 A 
ATOM      5  C   UNL     1       5.143   4.168  16.753  0.00  0.00    +0.000 A 
ATOM      6  C   UNL     1       5.981   5.248  17.067  0.00  0.00    +0.000 A 
ENDROOT
BRANCH   1   8
ATOM      7  C   UNL     1       7.551   7.527  17.552  0.00  0.00    +0.000 C 
ATOM      8  O   UNL     1       7.785   6.763  16.373  0.00  0.00    +0.000 OA
ENDBRANCH   1   8
BRANCH   3   9
ATOM      9  O   UNL     1       6.380   3.320  13.432  0.00  0.00    +0.000 OA
ATOM     10  H   UNL     1       6.914   2.521  13.571  0.00  0.00    +0.000 HD
ENDBRANCH   3   9
BRANCH   5  11
ATOM     11  C   UNL     1       4.160   3.651  17.718  0.00  0.00    +0.000 C 
ATOM     12  C   UNL     1       3.962   4.162  18.943  0.00  0.00    +0.000 C 
BRANCH  12  13
ATOM     13  C   UNL     1       3.032   3.596  19.864  0.00  0.00    +0.000 A 
ATOM     14  C   UNL     1       3.228   2.777  20.967  0.00  0.00    +0.000 A 
ATOM     15  C   UNL     1       2.021   2.439  21.640  0.00  0.00    +0.000 A 
ATOM     16  C   UNL     1       0.923   3.005  21.041  0.00  0.00    +0.000 A 
ATOM     17  S   UNL     1       1.349   3.940  19.678  0.00  0.00    +0.000 S 
ENDBRANCH  12  13
ENDBRANCH   5  11
TORSDOF 4
ENDMDL
MODEL 3
REMARK VINA RESULT:      -6.2      4.513      8.247
REMARK  Name = 
REMARK  5 active torsions:
REMARK  status: ('A' for Active; 'I' for Inactive)
REMARK    1  A    between atoms: C_1  and  O_2
REMARK    2  A    between atoms: O_2  and  C_3
REMARK    3  A    between atoms: C_5  and  O_6
REMARK    4  A    between atoms: C_8  and  C_9
REMARK    5  A    between atoms: C_10  and  C_11
REMARK                            x       y       z     vdW  Elec       q    Type
REMARK                         _______ _______ _______ _____ _____    ______ ____
ROOT
ATOM      1  C   UNL     1       6.196   6.054  17.390  0.00  0.00    +0.000 A 
ATOM      2  C   UNL     1       6.785   5.294  18.402  0.00  0.00    +0.000 A 
ATOM      3  C   UNL     1       7.836   5.831  19.141  0.00  0.00    +0.000 A 
ATOM      4  C   UNL     1       8.302   7.119  18.892  0.00  0.00    +0.000 A 
ATOM      5  C   UNL     1       7.709   7.897  17.893  0.00  0.00    +0.000 A 
ATOM      6  C   UNL     1       6.668   7.343  17.134  0.00  0.00    +0.000 A 
ENDROOT
BRANCH   1   8
ATOM      7  C   UNL     1       5.190   4.013  16.715  0.00  0.00    +0.000 C 
ATOM      8  O   UNL     1       5.177   5.438  16.712  0.00  0.00    +0.000 OA
ENDBRANCH   1   8
BRANCH   3   9
ATOM      9  O   UNL     1       8.446   5.116  20.129  0.00  0.00    +0.000 OA
ATOM     10  H   UNL     1       7.866   4.380  20.382  0.00  0.00    +0.000 HD
ENDBRANCH   3   9
BRANCH   5  11
ATOM     11  C   UNL     1       8.239   9.240  17.606  0.00  0.00    +0.000 C 
ATOM     12  C   UNL     1       8.927   9.985  18.485  0.00  0.00    +0.000 C 
BRANCH  12  13
ATOM     13  C   UNL     1       9.378  11.303  18.178  0.00  0.00    +0.000 A 
ATOM     14  C   UNL     1       8.673  12.452  17.854  0.00  0.00    +0.000 A 
ATOM     15  C   UNL     1       9.508  13.583  17.630  0.00  0.00    +0.000 A 
ATOM     16  C   UNL     1      10.837  13.278  17.788  0.00  0.00    +0.000 A 
ATOM     17  S   UNL     1      11.072  11.640  18.206  0.00  0.00    +0.000 S 
ENDBRANCH  12  13
ENDBRANCH   5  11
TORSDOF 4
ENDMDL
MODEL 4
REMARK VINA RESULT:      -6.1      3.960      7.599
REMARK  Name = 
REMARK  5 active torsions:
REMARK  status: ('A' for Active; 'I' for Inactive)
REMARK    1  A    between atoms: C_1  and  O_2
REMARK    2  A    between atoms: O_2  and  C_3
REMARK    3  A    between atoms: C_5  and  O_6
REMARK    4  A    between atoms: C_8  and  C_9
REMARK    5  A    between atoms: C_10  and  C_11
REMARK                            x       y       z     vdW  Elec       q    Type
REMARK                         _______ _______ _______ _____ _____    ______ ____
ROOT
ATOM      1  C   UNL     1       6.331   5.068  18.531  0.00  0.00    +0.000 A 
ATOM      2  C   UNL     1       5.690   5.191  17.297  0.00  0.00    +0.000 A 
ATOM      3  C   UNL     1       5.988   6.273  16.473  0.00  0.00    +0.000 A 
ATOM      4  C   UNL     1       6.924   7.229  16.856  0.00  0.00    +0.000 A 
ATOM      5  C   UNL     1       7.587   7.107  18.081  0.00  0.00    +0.000 A 
ATOM      6  C   UNL     1       7.266   6.031  18.920  0.00  0.00    +0.000 A 
ENDROOT
BRANCH   1   8
ATOM      7  C   UNL     1       4.641   3.494  19.075  0.00  0.00    +0.000 C 
ATOM      8  O   UNL     1       5.967   3.977  19.276  0.00  0.00    +0.000 OA
ENDBRANCH   1   8
BRANCH   3   9
ATOM      9  O   UNL     1       5.373   6.435  15.266  0.00  0.00    +0.000 OA
ATOM     10  H   UNL     1       5.544   7.337  14.950  0.00  0.00    +0.000 HD
ENDBRANCH   3   9
BRANCH   5  11
ATOM     11  C   UNL     1       8.542   8.148  18.497  0.00  0.00    +0.000 C 
ATOM     12  C   UNL     1       8.392   9.457  18.245  0.00  0.00    +0.000 C 
BRANCH  12  13
ATOM     13  C   UNL     1       9.368  10.424  18.625  0.00  0.00    +0.000 A 
ATOM     14  C   UNL     1      10.343  11.072  17.881  0.00  0.00    +0.000 A 
ATOM     15  C   UNL     1      11.118  11.990  18.643  0.00  0.00    +0.000 A 
ATOM     16  C   UNL     1      10.721  12.029  19.958  0.00  0.00    +0.000 A 
ATOM     17  S   UNL     1       9.422  10.966  20.265  0.00  0.00    +0.000 S 
ENDBRANCH  12  13
ENDBRANCH   5  11
TORSDOF 4
ENDMDL
MODEL 5
REMARK VINA RESULT:      -6.1      4.047      7.415
REMARK  Name = 
REMARK  5 active torsions:
REMARK  status: ('A' for Active; 'I' for Inactive)
REMARK    1  A    between atoms: C_1  and  O_2
REMARK    2  A    between atoms: O_2  and  C_3
REMARK    3  A    between atoms: C_5  and  O_6
REMARK    4  A    between atoms: C_8  and  C_9
REMARK    5  A    between atoms: C_10  and  C_11
REMARK                            x       y       z     vdW  Elec       q    Type
REMARK                         _______ _______ _______ _____ _____    ______ ____
ROOT
ATOM      1  C   UNL     1       6.544   5.701  16.110  0.00  0.00    +0.000 A 
ATOM      2  C   UNL     1       6.075   4.721  16.986  0.00  0.00    +0.000 A 
ATOM      3  C   UNL     1       6.354   4.825  18.346  0.00  0.00    +0.000 A 
ATOM      4  C   UNL     1       7.087   5.896  18.847  0.00  0.00    +0.000 A 
ATOM      5  C   UNL     1       7.547   6.894  17.983  0.00  0.00    +0.000 A 
ATOM      6  C   UNL     1       7.286   6.774  16.611  0.00  0.00    +0.000 A 
ENDROOT
BRANCH   1   8
ATOM      7  C   UNL     1       6.201   4.158  14.341  0.00  0.00    +0.000 C 
ATOM      8  O   UNL     1       6.228   5.510  14.790  0.00  0.00    +0.000 OA
ENDBRANCH   1   8
BRANCH   3   9
ATOM      9  O   UNL     1       5.925   3.880  19.232  0.00  0.00    +0.000 OA
ATOM     10  H   UNL     1       6.657   3.661  19.830  0.00  0.00    +0.000 HD
ENDBRANCH   3   9
BRANCH   5  11
ATOM     11  C   UNL     1       8.360   8.000  18.517  0.00  0.00    +0.000 C 
ATOM     12  C   UNL     1       8.343   9.252  18.036  0.00  0.00    +0.000 C 
BRANCH  12  13
ATOM     13  C   UNL     1       9.186  10.279  18.553  0.00  0.00    +0.000 A 
ATOM     14  C   UNL     1      10.013  11.187  17.908  0.00  0.00    +0.000 A 
ATOM     15  C   UNL     1      10.685  12.070  18.799  0.00  0.00    +0.000 A 
ATOM     16  C   UNL     1      10.358  11.824  20.110  0.00  0.00    +0.000 A 
ATOM     17  S   UNL     1       9.247  10.537  20.261  0.00  0.00    +0.000 S 
ENDBRANCH  12  13
ENDBRANCH   5  11
TORSDOF 4
ENDMDL
MODEL 6
REMARK VINA RESULT:      -6.1      0.959      2.831
REMARK  Name = 
REMARK  5 active torsions:
REMARK  status: ('A' for Active; 'I' for Inactive)
REMARK    1  A    between atoms: C_1  and  O_2
REMARK    2  A    between atoms: O_2  and  C_3
REMARK    3  A    between atoms: C_5  and  O_6
REMARK    4  A    between atoms: C_8  and  C_9
REMARK    5  A    between atoms: C_10  and  C_11
REMARK                            x       y       z     vdW  Elec       q    Type
REMARK                         _______ _______ _______ _____ _____    ______ ____
ROOT
ATOM      1  C   UNL     1       6.316   4.182  14.099  0.00  0.00    +0.000 A 
ATOM      2  C   UNL     1       7.191   5.155  14.583  0.00  0.00    +0.000 A 
ATOM      3  C   UNL     1       6.995   5.685  15.855  0.00  0.00    +0.000 A 
ATOM      4  C   UNL     1       5.943   5.252  16.657  0.00  0.00    +0.000 A 
ATOM      5  C   UNL     1       5.070   4.264  16.193  0.00  0.00    +0.000 A 
ATOM      6  C   UNL     1       5.256   3.751  14.901  0.00  0.00    +0.000 A 
ENDROOT
BRANCH   1   8
ATOM      7  C   UNL     1       5.488   3.151  12.129  0.00  0.00    +0.000 C 
ATOM      8  O   UNL     1       6.584   3.727  12.835  0.00  0.00    +0.000 OA
ENDBRANCH   1   8
BRANCH   3   9
ATOM      9  O   UNL     1       7.821   6.648  16.358  0.00  0.00    +0.000 OA
ATOM     10  H   UNL     1       8.615   6.219  16.714  0.00  0.00    +0.000 HD
ENDBRANCH   3   9
BRANCH   5  11
ATOM     11  C   UNL     1       3.934   3.845  17.030  0.00  0.00    +0.000 C 
ATOM     12  C   UNL     1       3.813   4.125  18.336  0.00  0.00    +0.000 C 
BRANCH  12  13
ATOM     13  C   UNL     1       2.717   3.655  19.118  0.00  0.00    +0.000 A 
ATOM     14  C   UNL     1       1.353   3.658  18.866  0.00  0.00    +0.000 A 
ATOM     15  C   UNL     1       0.585   3.072  19.911  0.00  0.00    +0.000 A 
ATOM     16  C   UNL     1       1.375   2.630  20.943  0.00  0.00    +0.000 A 
ATOM     17  S   UNL     1       3.031   2.919  20.650  0.00  0.00    +0.000 S 
ENDBRANCH  12  13
ENDBRANCH   5  11
TORSDOF 4
ENDMDL
MODEL 7
REMARK VINA RESULT:      -6.1      4.417      8.327
REMARK  Name = 
REMARK  5 active torsions:
REMARK  status: ('A' for Active; 'I' for Inactive)
REMARK    1  A    between atoms: C_1  and  O_2
REMARK    2  A    between atoms: O_2  and  C_3
REMARK    3  A    between atoms: C_5  and  O_6
REMARK    4  A    between atoms: C_8  and  C_9
REMARK    5  A    between atoms: C_10  and  C_11
REMARK                            x       y       z     vdW  Elec       q    Type
REMARK                         _______ _______ _______ _____ _____    ______ ____
ROOT
ATOM      1  C   UNL     1       6.127   6.127  17.467  0.00  0.00    +0.000 A 
ATOM      2  C   UNL     1       6.648   5.370  18.518  0.00  0.00    +0.000 A 
ATOM      3  C   UNL     1       7.727   5.862  19.249  0.00  0.00    +0.000 A 
ATOM      4  C   UNL     1       8.287   7.101  18.955  0.00  0.00    +0.000 A 
ATOM      5  C   UNL     1       7.762   7.878  17.918  0.00  0.00    +0.000 A 
ATOM      6  C   UNL     1       6.693   7.369  17.167  0.00  0.00    +0.000 A 
ENDROOT
BRANCH   1   8
ATOM      7  C   UNL     1       4.175   4.784  17.589  0.00  0.00    +0.000 C 
ATOM      8  O   UNL     1       5.074   5.559  16.800  0.00  0.00    +0.000 OA
ENDBRANCH   1   8
BRANCH   3   9
ATOM      9  O   UNL     1       8.273   5.146  20.274  0.00  0.00    +0.000 OA
ATOM     10  H   UNL     1       9.230   5.073  20.126  0.00  0.00    +0.000 HD
ENDBRANCH   3   9
BRANCH   5  11
ATOM     11  C   UNL     1       8.390   9.167  17.585  0.00  0.00    +0.000 C 
ATOM     12  C   UNL     1       8.988   9.971  18.478  0.00  0.00    +0.000 C 
BRANCH  12  13
ATOM     13  C   UNL     1       9.539  11.235  18.116  0.00  0.00    +0.000 A 
ATOM     14  C   UNL     1      10.839  11.603  17.802  0.00  0.00    +0.000 A 
ATOM     15  C   UNL     1      10.972  12.982  17.477  0.00  0.00    +0.000 A 
ATOM     16  C   UNL     1       9.771  13.644  17.547  0.00  0.00    +0.000 A 
ATOM     17  S   UNL     1       8.494  12.606  17.999  0.00  0.00    +0.000 S 
ENDBRANCH  12  13
ENDBRANCH   5  11
TORSDOF 4
ENDMDL
MODEL 8
REMARK VINA RESULT:      -6.0      1.963      3.735
REMARK  Name = 
REMARK  5 active torsions:
REMARK  status: ('A' for Active; 'I' for Inactive)
REMARK    1  A    between atoms: C_1  and  O_2
REMARK    2  A    between atoms: O_2  and  C_3
REMARK    3  A    between atoms: C_5  and  O_6
REMARK    4  A    between atoms: C_8  and  C_9
REMARK    5  A    between atoms: C_10  and  C_11
REMARK                            x       y       z     vdW  Elec       q    Type
REMARK                         _______ _______ _______ _____ _____    ______ ____
ROOT
ATOM      1  C   UNL     1       5.926   3.560  12.747  0.00  0.00    +0.000 A 
ATOM      2  C   UNL     1       7.089   4.278  12.467  0.00  0.00    +0.000 A 
ATOM      3  C   UNL     1       7.629   5.117  13.438  0.00  0.00    +0.000 A 
ATOM      4  C   UNL     1       7.032   5.243  14.689  0.00  0.00    +0.000 A 
ATOM      5  C   UNL     1       5.877   4.515  14.989  0.00  0.00    +0.000 A 
ATOM      6  C   UNL     1       5.321   3.691  14.000  0.00  0.00    +0.000 A 
ENDROOT
BRANCH   1   8
ATOM      7  C   UNL     1       4.168   3.083  11.226  0.00  0.00    +0.000 C 
ATOM      8  O   UNL     1       5.464   2.768  11.728  0.00  0.00    +0.000 OA
ENDBRANCH   1   8
BRANCH   3   9
ATOM      9  O   UNL     1       8.757   5.846  13.198  0.00  0.00    +0.000 OA
ATOM     10  H   UNL     1       8.757   6.620  13.784  0.00  0.00    +0.000 HD
ENDBRANCH   3   9
BRANCH   5  11
ATOM     11  C   UNL     1       5.226   4.690  16.298  0.00  0.00    +0.000 C 
ATOM     12  C   UNL     1       4.580   3.717  16.958  0.00  0.00    +0.000 C 
BRANCH  12  13
ATOM     13  C   UNL     1       3.922   3.946  18.202  0.00  0.00    +0.000 A 
ATOM     14  C   UNL     1       3.553   5.127  18.831  0.00  0.00    +0.000 A 
ATOM     15  C   UNL     1       2.892   4.921  20.074  0.00  0.00    +0.000 A 
ATOM     16  C   UNL     1       2.765   3.587  20.373  0.00  0.00    +0.000 A 
ATOM     17  S   UNL     1       3.437   2.593  19.160  0.00  0.00    +0.000 S 
ENDBRANCH  12  13
ENDBRANCH   5  11
TORSDOF 4
ENDMDL
MODEL 9
REMARK VINA RESULT:      -6.0      4.616      8.333
REMARK  Name = 
REMARK  5 active torsions:
REMARK  status: ('A' for Active; 'I' for Inactive)
REMARK    1  A    between atoms: C_1  and  O_2
REMARK    2  A    between atoms: O_2  and  C_3
REMARK    3  A    between atoms: C_5  and  O_6
REMARK    4  A    between atoms: C_8  and  C_9
REMARK    5  A    between atoms: C_10  and  C_11
REMARK                            x       y       z     vdW  Elec       q    Type
REMARK                         _______ _______ _______ _____ _____    ______ ____
ROOT
ATOM      1  C   UNL     1       7.044   6.227  16.913  0.00  0.00    +0.000 A 
ATOM      2  C   UNL     1       7.260   5.412  18.025  0.00  0.00    +0.000 A 
ATOM      3  C   UNL     1       7.894   5.938  19.148  0.00  0.00    +0.000 A 
ATOM      4  C   UNL     1       8.306   7.266  19.183  0.00  0.00    +0.000 A 
ATOM      5  C   UNL     1       8.079   8.098  18.083  0.00  0.00    +0.000 A 
ATOM      6  C   UNL     1       7.464   7.559  16.944  0.00  0.00    +0.000 A 
ENDROOT
BRANCH   1   8
ATOM      7  C   UNL     1       5.825   4.354  16.116  0.00  0.00    +0.000 C 
ATOM      8  O   UNL     1       6.423   5.621  15.852  0.00  0.00    +0.000 OA
ENDBRANCH   1   8
BRANCH   3   9
ATOM      9  O   UNL     1       8.135   5.170  20.250  0.00  0.00    +0.000 OA
ATOM     10  H   UNL     1       8.726   5.659  20.846  0.00  0.00    +0.000 HD
ENDBRANCH   3   9
BRANCH   5  11
ATOM     11  C   UNL     1       8.560   9.489  18.111  0.00  0.00    +0.000 C 
ATOM     12  C   UNL     1       9.254  10.029  19.124  0.00  0.00    +0.000 C 
BRANCH  12  13
ATOM     13  C   UNL     1       9.656  11.397  19.129  0.00  0.00    +0.000 A 
ATOM     14  C   UNL     1      10.534  12.084  19.954  0.00  0.00    +0.000 A 
ATOM     15  C   UNL     1      10.674  13.458  19.612  0.00  0.00    +0.000 A 
ATOM     16  C   UNL     1       9.901  13.798  18.529  0.00  0.00    +0.000 A 
ATOM     17  S   UNL     1       9.017  12.466  17.931  0.00  0.00    +0.000 S 
ENDBRANCH  12  13
ENDBRANCH   5  11
TORSDOF 4
ENDMDL
