MODEL 1
REMARK VINA RESULT:      -7.5      0.000      0.000
REMARK  Name = 
REMARK  4 active torsions:
REMARK  status: ('A' for Active; 'I' for Inactive)
REMARK    1  A    between atoms: C_1  and  S_2
REMARK    2  A    between atoms: S_2  and  C_5
REMARK    3  A    between atoms: C_8  and  N_9
REMARK    4  A    between atoms: C_18  and  O_19
REMARK                            x       y       z     vdW  Elec       q    Type
REMARK                         _______ _______ _______ _____ _____    ______ ____
ROOT
ATOM      1  N   UNL     1       2.518   6.028  18.166  0.00  0.00    +0.000 N 
ATOM      2  C   UNL     1       3.788   5.843  17.552  0.00  0.00    +0.000 A 
ATOM      3  N   UNL     1       4.640   6.894  17.466  0.00  0.00    +0.000 NA
ATOM      4  C   UNL     1       5.855   6.556  16.962  0.00  0.00    +0.000 A 
ATOM      5  N   UNL     1       6.894   7.370  16.799  0.00  0.00    +0.000 NA
ATOM      6  O   UNL     1       7.898   6.554  16.276  0.00  0.00    +0.000 OA
ATOM      7  N   UNL     1       7.472   5.233  16.113  0.00  0.00    +0.000 NA
ATOM      8  C   UNL     1       6.209   5.231  16.537  0.00  0.00    +0.000 A 
ATOM      9  N   UNL     1       5.359   4.162  16.583  0.00  0.00    +0.000 NA
ATOM     10  C   UNL     1       4.166   4.541  17.108  0.00  0.00    +0.000 A 
ATOM     11  H   UNL     1       1.808   5.487  17.683  0.00  0.00    +0.000 HD
ENDROOT
BRANCH   1  15
ATOM     12  C   UNL     1       1.070   9.507  20.088  0.00  0.00    +0.000 A 
ATOM     13  C   UNL     1       1.391   8.373  20.836  0.00  0.00    +0.000 A 
ATOM     14  C   UNL     1       1.888   7.231  20.192  0.00  0.00    +0.000 A 
ATOM     15  C   UNL     1       2.040   7.198  18.797  0.00  0.00    +0.000 A 
ATOM     16  C   UNL     1       1.749   8.370  18.080  0.00  0.00    +0.000 A 
ATOM     17  C   UNL     1       1.243   9.510  18.707  0.00  0.00    +0.000 A 
BRANCH  12  19
ATOM     18  C   UNL     1      -0.272  10.301  22.395  0.00  0.00    +0.000 C 
ATOM     19  S   UNL     1       0.383  10.941  20.877  0.00  0.00    +0.000 S 
ATOM     20  O   UNL     1      -0.729  11.393  20.065  0.00  0.00    +0.000 OA
ATOM     21  O   UNL     1       1.477  11.832  21.202  0.00  0.00    +0.000 OA
ENDBRANCH  12  19
ENDBRANCH   1  15
BRANCH  10  22
ATOM     22  O   UNL     1       3.273   3.506  17.175  0.00  0.00    +0.000 OA
ATOM     23  H   UNL     1       2.428   3.985  17.096  0.00  0.00    +0.000 HD
ENDBRANCH  10  22
TORSDOF 3
ENDMDL
MODEL 2
REMARK VINA RESULT:      -7.4      1.460      1.488
REMARK  Name = 
REMARK  4 active torsions:
REMARK  status: ('A' for Active; 'I' for Inactive)
REMARK    1  A    between atoms: C_1  and  S_2
REMARK    2  A    between atoms: S_2  and  C_5
REMARK    3  A    between atoms: C_8  and  N_9
REMARK    4  A    between atoms: C_18  and  O_19
REMARK                            x       y       z     vdW  Elec       q    Type
REMARK                         _______ _______ _______ _____ _____    ______ ____
ROOT
ATOM      1  N   UNL     1       2.937   6.111  19.366  0.00  0.00    +0.000 N 
ATOM      2  C   UNL     1       4.103   5.720  18.652  0.00  0.00    +0.000 A 
ATOM      3  N   UNL     1       4.613   6.552  17.711  0.00  0.00    +0.000 NA
ATOM      4  C   UNL     1       5.784   6.111  17.186  0.00  0.00    +0.000 A 
ATOM      5  N   UNL     1       6.525   6.736  16.275  0.00  0.00    +0.000 NA
ATOM      6  O   UNL     1       7.625   5.899  16.084  0.00  0.00    +0.000 OA
ATOM      7  N   UNL     1       7.558   4.751  16.879  0.00  0.00    +0.000 NA
ATOM      8  C   UNL     1       6.421   4.880  17.562  0.00  0.00    +0.000 A 
ATOM      9  N   UNL     1       5.912   4.008  18.484  0.00  0.00    +0.000 NA
ATOM     10  C   UNL     1       4.753   4.496  18.992  0.00  0.00    +0.000 A 
ATOM     11  H   UNL     1       2.339   5.310  19.536  0.00  0.00    +0.000 HD
ENDROOT
BRANCH   1  15
ATOM     12  C   UNL     1       0.873   9.795  19.122  0.00  0.00    +0.000 A 
ATOM     13  C   UNL     1       0.981   9.131  20.345  0.00  0.00    +0.000 A 
ATOM     14  C   UNL     1       1.683   7.919  20.419  0.00  0.00    +0.000 A 
ATOM     15  C   UNL     1       2.256   7.346  19.273  0.00  0.00    +0.000 A 
ATOM     16  C   UNL     1       2.165   8.063  18.069  0.00  0.00    +0.000 A 
ATOM     17  C   UNL     1       1.460   9.264  17.978  0.00  0.00    +0.000 A 
BRANCH  12  19
ATOM     18  C   UNL     1      -0.689  11.533  20.638  0.00  0.00    +0.000 C 
ATOM     19  S   UNL     1      -0.063  11.298  18.996  0.00  0.00    +0.000 S 
ATOM     20  O   UNL     1      -1.189  11.037  18.120  0.00  0.00    +0.000 OA
ATOM     21  O   UNL     1       0.865  12.373  18.712  0.00  0.00    +0.000 OA
ENDBRANCH  12  19
ENDBRANCH   1  15
BRANCH  10  22
ATOM     22  O   UNL     1       4.198   3.660  19.922  0.00  0.00    +0.000 OA
ATOM     23  H   UNL     1       4.650   3.957  20.733  0.00  0.00    +0.000 HD
ENDBRANCH  10  22
TORSDOF 3
ENDMDL
MODEL 3
REMARK VINA RESULT:      -7.4      0.724      1.139
REMARK  Name = 
REMARK  4 active torsions:
REMARK  status: ('A' for Active; 'I' for Inactive)
REMARK    1  A    between atoms: C_1  and  S_2
REMARK    2  A    between atoms: S_2  and  C_5
REMARK    3  A    between atoms: C_8  and  N_9
REMARK    4  A    between atoms: C_18  and  O_19
REMARK                            x       y       z     vdW  Elec       q    Type
REMARK                         _______ _______ _______ _____ _____    ______ ____
ROOT
ATOM      1  N   UNL     1       2.515   6.069  18.194  0.00  0.00    +0.000 N 
ATOM      2  C   UNL     1       3.780   5.837  17.586  0.00  0.00    +0.000 A 
ATOM      3  N   UNL     1       4.633   6.876  17.418  0.00  0.00    +0.000 NA
ATOM      4  C   UNL     1       5.844   6.500  16.931  0.00  0.00    +0.000 A 
ATOM      5  N   UNL     1       6.884   7.298  16.701  0.00  0.00    +0.000 NA
ATOM      6  O   UNL     1       7.882   6.443  16.233  0.00  0.00    +0.000 OA
ATOM      7  N   UNL     1       7.453   5.115  16.169  0.00  0.00    +0.000 NA
ATOM      8  C   UNL     1       6.192   5.147  16.601  0.00  0.00    +0.000 A 
ATOM      9  N   UNL     1       5.340   4.086  16.731  0.00  0.00    +0.000 NA
ATOM     10  C   UNL     1       4.153   4.505  17.235  0.00  0.00    +0.000 A 
ATOM     11  H   UNL     1       1.800   5.496  17.756  0.00  0.00    +0.000 HD
ENDROOT
BRANCH   1  15
ATOM     12  C   UNL     1       1.085   9.681  19.866  0.00  0.00    +0.000 A 
ATOM     13  C   UNL     1       1.367   8.590  20.689  0.00  0.00    +0.000 A 
ATOM     14  C   UNL     1       1.858   7.403  20.127  0.00  0.00    +0.000 A 
ATOM     15  C   UNL     1       2.043   7.283  18.741  0.00  0.00    +0.000 A 
ATOM     16  C   UNL     1       1.791   8.415  17.948  0.00  0.00    +0.000 A 
ATOM     17  C   UNL     1       1.292   9.599  18.493  0.00  0.00    +0.000 A 
BRANCH  12  19
ATOM     18  C   UNL     1      -0.073  12.102  19.120  0.00  0.00    +0.000 C 
ATOM     19  S   UNL     1       0.406  11.172  20.551  0.00  0.00    +0.000 S 
ATOM     20  O   UNL     1       1.488  11.882  21.205  0.00  0.00    +0.000 OA
ATOM     21  O   UNL     1      -0.795  10.816  21.277  0.00  0.00    +0.000 OA
ENDBRANCH  12  19
ENDBRANCH   1  15
BRANCH  10  22
ATOM     22  O   UNL     1       3.258   3.480  17.384  0.00  0.00    +0.000 OA
ATOM     23  H   UNL     1       2.437   3.902  17.070  0.00  0.00    +0.000 HD
ENDBRANCH  10  22
TORSDOF 3
ENDMDL
MODEL 4
REMARK VINA RESULT:      -7.4      0.836      1.364
REMARK  Name = 
REMARK  4 active torsions:
REMARK  status: ('A' for Active; 'I' for Inactive)
REMARK    1  A    between atoms: C_1  and  S_2
REMARK    2  A    between atoms: S_2  and  C_5
REMARK    3  A    between atoms: C_8  and  N_9
REMARK    4  A    between atoms: C_18  and  O_19
REMARK                            x       y       z     vdW  Elec       q    Type
REMARK                         _______ _______ _______ _____ _____    ______ ____
ROOT
ATOM      1  N   UNL     1       2.530   6.029  18.200  0.00  0.00    +0.000 N 
ATOM      2  C   UNL     1       3.789   5.814  17.575  0.00  0.00    +0.000 A 
ATOM      3  N   UNL     1       4.643   6.857  17.433  0.00  0.00    +0.000 NA
ATOM      4  C   UNL     1       5.849   6.494  16.925  0.00  0.00    +0.000 A 
ATOM      5  N   UNL     1       6.889   7.296  16.713  0.00  0.00    +0.000 NA
ATOM      6  O   UNL     1       7.881   6.455  16.209  0.00  0.00    +0.000 OA
ATOM      7  N   UNL     1       7.449   5.131  16.106  0.00  0.00    +0.000 NA
ATOM      8  C   UNL     1       6.192   5.151  16.549  0.00  0.00    +0.000 A 
ATOM      9  N   UNL     1       5.339   4.088  16.651  0.00  0.00    +0.000 NA
ATOM     10  C   UNL     1       4.156   4.494  17.178  0.00  0.00    +0.000 A 
ATOM     11  H   UNL     1       1.810   5.472  17.750  0.00  0.00    +0.000 HD
ENDROOT
BRANCH   1  15
ATOM     12  C   UNL     1       1.155   9.634  19.934  0.00  0.00    +0.000 A 
ATOM     13  C   UNL     1       1.356   9.550  18.555  0.00  0.00    +0.000 A 
ATOM     14  C   UNL     1       1.794   8.344  17.987  0.00  0.00    +0.000 A 
ATOM     15  C   UNL     1       2.065   7.226  18.790  0.00  0.00    +0.000 A 
ATOM     16  C   UNL     1       1.810   7.332  20.167  0.00  0.00    +0.000 A 
ATOM     17  C   UNL     1       1.385   8.528  20.747  0.00  0.00    +0.000 A 
BRANCH  12  19
ATOM     18  C   UNL     1      -0.974  11.426  20.040  0.00  0.00    +0.000 C 
ATOM     19  S   UNL     1       0.659  11.167  20.678  0.00  0.00    +0.000 S 
ATOM     20  O   UNL     1       1.518  12.207  20.145  0.00  0.00    +0.000 OA
ATOM     21  O   UNL     1       0.553  10.951  22.106  0.00  0.00    +0.000 OA
ENDBRANCH  12  19
ENDBRANCH   1  15
BRANCH  10  22
ATOM     22  O   UNL     1       3.260   3.466  17.301  0.00  0.00    +0.000 OA
ATOM     23  H   UNL     1       2.440   3.956  17.495  0.00  0.00    +0.000 HD
ENDBRANCH  10  22
TORSDOF 3
ENDMDL
MODEL 5
REMARK VINA RESULT:      -7.4      1.369      2.009
REMARK  Name = 
REMARK  4 active torsions:
REMARK  status: ('A' for Active; 'I' for Inactive)
REMARK    1  A    between atoms: C_1  and  S_2
REMARK    2  A    between atoms: S_2  and  C_5
REMARK    3  A    between atoms: C_8  and  N_9
REMARK    4  A    between atoms: C_18  and  O_19
REMARK                            x       y       z     vdW  Elec       q    Type
REMARK                         _______ _______ _______ _____ _____    ______ ____
ROOT
ATOM      1  N   UNL     1       2.931   6.061  19.374  0.00  0.00    +0.000 N 
ATOM      2  C   UNL     1       4.098   5.699  18.647  0.00  0.00    +0.000 A 
ATOM      3  N   UNL     1       4.625   6.580  17.761  0.00  0.00    +0.000 NA
ATOM      4  C   UNL     1       5.796   6.157  17.220  0.00  0.00    +0.000 A 
ATOM      5  N   UNL     1       6.552   6.826  16.353  0.00  0.00    +0.000 NA
ATOM      6  O   UNL     1       7.643   5.989  16.122  0.00  0.00    +0.000 OA
ATOM      7  N   UNL     1       7.557   4.797  16.846  0.00  0.00    +0.000 NA
ATOM      8  C   UNL     1       6.415   4.898  17.527  0.00  0.00    +0.000 A 
ATOM      9  N   UNL     1       5.889   3.979  18.391  0.00  0.00    +0.000 NA
ATOM     10  C   UNL     1       4.732   4.450  18.918  0.00  0.00    +0.000 A 
ATOM     11  H   UNL     1       2.322   5.258  19.491  0.00  0.00    +0.000 HD
ENDROOT
BRANCH   1  15
ATOM     12  C   UNL     1       0.959   9.801  19.267  0.00  0.00    +0.000 A 
ATOM     13  C   UNL     1       1.513   9.266  18.103  0.00  0.00    +0.000 A 
ATOM     14  C   UNL     1       2.149   8.017  18.145  0.00  0.00    +0.000 A 
ATOM     15  C   UNL     1       2.264   7.307  19.350  0.00  0.00    +0.000 A 
ATOM     16  C   UNL     1       1.657   7.854  20.492  0.00  0.00    +0.000 A 
ATOM     17  C   UNL     1       1.031   9.101  20.467  0.00  0.00    +0.000 A 
BRANCH  12  19
ATOM     18  C   UNL     1       1.495  12.463  18.645  0.00  0.00    +0.000 C 
ATOM     19  S   UNL     1       0.204  11.408  19.247  0.00  0.00    +0.000 S 
ATOM     20  O   UNL     1      -0.071  11.776  20.622  0.00  0.00    +0.000 OA
ATOM     21  O   UNL     1      -0.854  11.386  18.258  0.00  0.00    +0.000 OA
ENDBRANCH  12  19
ENDBRANCH   1  15
BRANCH  10  22
ATOM     22  O   UNL     1       4.159   3.566  19.792  0.00  0.00    +0.000 OA
ATOM     23  H   UNL     1       4.511   3.889  20.642  0.00  0.00    +0.000 HD
ENDBRANCH  10  22
TORSDOF 3
ENDMDL
MODEL 6
REMARK VINA RESULT:      -7.4      1.429      1.914
REMARK  Name = 
REMARK  4 active torsions:
REMARK  status: ('A' for Active; 'I' for Inactive)
REMARK    1  A    between atoms: C_1  and  S_2
REMARK    2  A    between atoms: S_2  and  C_5
REMARK    3  A    between atoms: C_8  and  N_9
REMARK    4  A    between atoms: C_18  and  O_19
REMARK                            x       y       z     vdW  Elec       q    Type
REMARK                         _______ _______ _______ _____ _____    ______ ____
ROOT
ATOM      1  N   UNL     1       2.934   6.061  19.393  0.00  0.00    +0.000 N 
ATOM      2  C   UNL     1       4.102   5.705  18.665  0.00  0.00    +0.000 A 
ATOM      3  N   UNL     1       4.620   6.585  17.773  0.00  0.00    +0.000 NA
ATOM      4  C   UNL     1       5.793   6.169  17.231  0.00  0.00    +0.000 A 
ATOM      5  N   UNL     1       6.541   6.840  16.360  0.00  0.00    +0.000 NA
ATOM      6  O   UNL     1       7.638   6.011  16.130  0.00  0.00    +0.000 OA
ATOM      7  N   UNL     1       7.563   4.821  16.859  0.00  0.00    +0.000 NA
ATOM      8  C   UNL     1       6.422   4.916  17.543  0.00  0.00    +0.000 A 
ATOM      9  N   UNL     1       5.906   3.998  18.412  0.00  0.00    +0.000 NA
ATOM     10  C   UNL     1       4.745   4.462  18.940  0.00  0.00    +0.000 A 
ATOM     11  H   UNL     1       2.331   5.253  19.515  0.00  0.00    +0.000 HD
ENDROOT
BRANCH   1  15
ATOM     12  C   UNL     1       0.931   9.785  19.273  0.00  0.00    +0.000 A 
ATOM     13  C   UNL     1       1.477   9.243  18.108  0.00  0.00    +0.000 A 
ATOM     14  C   UNL     1       2.123   7.999  18.155  0.00  0.00    +0.000 A 
ATOM     15  C   UNL     1       2.257   7.301  19.364  0.00  0.00    +0.000 A 
ATOM     16  C   UNL     1       1.657   7.854  20.508  0.00  0.00    +0.000 A 
ATOM     17  C   UNL     1       1.022   9.096  20.478  0.00  0.00    +0.000 A 
BRANCH  12  19
ATOM     18  C   UNL     1      -1.268  11.139  18.229  0.00  0.00    +0.000 C 
ATOM     19  S   UNL     1       0.163  11.385  19.246  0.00  0.00    +0.000 S 
ATOM     20  O   UNL     1       1.060  12.285  18.546  0.00  0.00    +0.000 OA
ATOM     21  O   UNL     1      -0.287  11.681  20.590  0.00  0.00    +0.000 OA
ENDBRANCH  12  19
ENDBRANCH   1  15
BRANCH  10  22
ATOM     22  O   UNL     1       4.182   3.577  19.820  0.00  0.00    +0.000 OA
ATOM     23  H   UNL     1       4.190   4.102  20.642  0.00  0.00    +0.000 HD
ENDBRANCH  10  22
TORSDOF 3
ENDMDL
MODEL 7
REMARK VINA RESULT:      -7.2      3.758      7.646
REMARK  Name = 
REMARK  4 active torsions:
REMARK  status: ('A' for Active; 'I' for Inactive)
REMARK    1  A    between atoms: C_1  and  S_2
REMARK    2  A    between atoms: S_2  and  C_5
REMARK    3  A    between atoms: C_8  and  N_9
REMARK    4  A    between atoms: C_18  and  O_19
REMARK                            x       y       z     vdW  Elec       q    Type
REMARK                         _______ _______ _______ _____ _____    ______ ____
ROOT
ATOM      1  N   UNL     1       1.438   8.716  18.306  0.00  0.00    +0.000 N 
ATOM      2  C   UNL     1       0.767   9.382  19.367  0.00  0.00    +0.000 A 
ATOM      3  N   UNL     1       1.041   9.031  20.648  0.00  0.00    +0.000 NA
ATOM      4  C   UNL     1       0.419   9.818  21.563  0.00  0.00    +0.000 A 
ATOM      5  N   UNL     1       0.531   9.729  22.885  0.00  0.00    +0.000 NA
ATOM      6  O   UNL     1      -0.274  10.758  23.374  0.00  0.00    +0.000 OA
ATOM      7  N   UNL     1      -0.889  11.480  22.347  0.00  0.00    +0.000 NA
ATOM      8  C   UNL     1      -0.461  10.901  21.225  0.00  0.00    +0.000 A 
ATOM      9  N   UNL     1      -0.780  11.255  19.944  0.00  0.00    +0.000 NA
ATOM     10  C   UNL     1      -0.124  10.455  19.066  0.00  0.00    +0.000 A 
ATOM     11  H   UNL     1       0.812   8.580  17.519  0.00  0.00    +0.000 HD
ENDROOT
BRANCH   1  15
ATOM     12  C   UNL     1       4.485   5.806  18.690  0.00  0.00    +0.000 A 
ATOM     13  C   UNL     1       3.408   5.817  19.579  0.00  0.00    +0.000 A 
ATOM     14  C   UNL     1       2.394   6.775  19.432  0.00  0.00    +0.000 A 
ATOM     15  C   UNL     1       2.459   7.745  18.420  0.00  0.00    +0.000 A 
ATOM     16  C   UNL     1       3.533   7.677  17.517  0.00  0.00    +0.000 A 
ATOM     17  C   UNL     1       4.555   6.737  17.658  0.00  0.00    +0.000 A 
BRANCH  12  19
ATOM     18  C   UNL     1       6.483   4.490  17.264  0.00  0.00    +0.000 C 
ATOM     19  S   UNL     1       5.808   4.641  18.896  0.00  0.00    +0.000 S 
ATOM     20  O   UNL     1       5.215   3.368  19.255  0.00  0.00    +0.000 OA
ATOM     21  O   UNL     1       6.811   5.257  19.740  0.00  0.00    +0.000 OA
ENDBRANCH  12  19
ENDBRANCH   1  15
BRANCH  10  22
ATOM     22  O   UNL     1      -0.409  10.766  17.764  0.00  0.00    +0.000 OA
ATOM     23  H   UNL     1      -1.109  11.434  17.881  0.00  0.00    +0.000 HD
ENDBRANCH  10  22
TORSDOF 3
ENDMDL
MODEL 8
REMARK VINA RESULT:      -7.1      3.776      7.756
REMARK  Name = 
REMARK  4 active torsions:
REMARK  status: ('A' for Active; 'I' for Inactive)
REMARK    1  A    between atoms: C_1  and  S_2
REMARK    2  A    between atoms: S_2  and  C_5
REMARK    3  A    between atoms: C_8  and  N_9
REMARK    4  A    between atoms: C_18  and  O_19
REMARK                            x       y       z     vdW  Elec       q    Type
REMARK                         _______ _______ _______ _____ _____    ______ ____
ROOT
ATOM      1  N   UNL     1       1.613   8.988  18.398  0.00  0.00    +0.000 N 
ATOM      2  C   UNL     1       0.980   9.586  19.522  0.00  0.00    +0.000 A 
ATOM      3  N   UNL     1       1.081   8.987  20.735  0.00  0.00    +0.000 NA
ATOM      4  C   UNL     1       0.530   9.716  21.739  0.00  0.00    +0.000 A 
ATOM      5  N   UNL     1       0.514   9.395  23.029  0.00  0.00    +0.000 NA
ATOM      6  O   UNL     1      -0.140  10.462  23.646  0.00  0.00    +0.000 OA
ATOM      7  N   UNL     1      -0.532  11.441  22.730  0.00  0.00    +0.000 NA
ATOM      8  C   UNL     1      -0.119  10.983  21.549  0.00  0.00    +0.000 A 
ATOM      9  N   UNL     1      -0.263  11.593  20.334  0.00  0.00    +0.000 NA
ATOM     10  C   UNL     1       0.315  10.838  19.366  0.00  0.00    +0.000 A 
ATOM     11  H   UNL     1       1.040   9.099  17.567  0.00  0.00    +0.000 HD
ENDROOT
BRANCH   1  15
ATOM     12  C   UNL     1       4.088   5.559  18.347  0.00  0.00    +0.000 A 
ATOM     13  C   UNL     1       4.294   6.587  17.425  0.00  0.00    +0.000 A 
ATOM     14  C   UNL     1       3.479   7.728  17.462  0.00  0.00    +0.000 A 
ATOM     15  C   UNL     1       2.437   7.840  18.395  0.00  0.00    +0.000 A 
ATOM     16  C   UNL     1       2.287   6.807  19.335  0.00  0.00    +0.000 A 
ATOM     17  C   UNL     1       3.083   5.662  19.303  0.00  0.00    +0.000 A 
BRANCH  12  19
ATOM     18  C   UNL     1       4.280   3.007  19.448  0.00  0.00    +0.000 C 
ATOM     19  S   UNL     1       5.069   4.080  18.278  0.00  0.00    +0.000 S 
ATOM     20  O   UNL     1       6.386   4.408  18.788  0.00  0.00    +0.000 OA
ATOM     21  O   UNL     1       4.905   3.504  16.960  0.00  0.00    +0.000 OA
ENDBRANCH  12  19
ENDBRANCH   1  15
BRANCH  10  22
ATOM     22  O   UNL     1       0.198  11.403  18.125  0.00  0.00    +0.000 OA
ATOM     23  H   UNL     1      -0.750  11.626  18.110  0.00  0.00    +0.000 HD
ENDBRANCH  10  22
TORSDOF 3
ENDMDL
MODEL 9
REMARK VINA RESULT:      -7.0      3.688      7.756
REMARK  Name = 
REMARK  4 active torsions:
REMARK  status: ('A' for Active; 'I' for Inactive)
REMARK    1  A    between atoms: C_1  and  S_2
REMARK    2  A    between atoms: S_2  and  C_5
REMARK    3  A    between atoms: C_8  and  N_9
REMARK    4  A    between atoms: C_18  and  O_19
REMARK                            x       y       z     vdW  Elec       q    Type
REMARK                         _______ _______ _______ _____ _____    ______ ____
ROOT
ATOM      1  N   UNL     1       1.597   8.927  18.375  0.00  0.00    +0.000 N 
ATOM      2  C   UNL     1       0.982   9.508  19.518  0.00  0.00    +0.000 A 
ATOM      3  N   UNL     1       1.133   8.910  20.726  0.00  0.00    +0.000 NA
ATOM      4  C   UNL     1       0.593   9.624  21.747  0.00  0.00    +0.000 A 
ATOM      5  N   UNL     1       0.622   9.301  23.037  0.00  0.00    +0.000 NA
ATOM      6  O   UNL     1      -0.040  10.350  23.675  0.00  0.00    +0.000 OA
ATOM      7  N   UNL     1      -0.483  11.321  22.772  0.00  0.00    +0.000 NA
ATOM      8  C   UNL     1      -0.093  10.875  21.578  0.00  0.00    +0.000 A 
ATOM      9  N   UNL     1      -0.287  11.482  20.370  0.00  0.00    +0.000 NA
ATOM     10  C   UNL     1       0.282  10.744  19.384  0.00  0.00    +0.000 A 
ATOM     11  H   UNL     1       0.998   9.026  17.561  0.00  0.00    +0.000 HD
ENDROOT
BRANCH   1  15
ATOM     12  C   UNL     1       4.159   5.564  18.248  0.00  0.00    +0.000 A 
ATOM     13  C   UNL     1       4.412   6.671  17.435  0.00  0.00    +0.000 A 
ATOM     14  C   UNL     1       3.567   7.788  17.498  0.00  0.00    +0.000 A 
ATOM     15  C   UNL     1       2.449   7.801  18.346  0.00  0.00    +0.000 A 
ATOM     16  C   UNL     1       2.250   6.689  19.181  0.00  0.00    +0.000 A 
ATOM     17  C   UNL     1       3.076   5.566  19.121  0.00  0.00    +0.000 A 
BRANCH  12  19
ATOM     18  C   UNL     1       6.783   4.771  17.752  0.00  0.00    +0.000 C 
ATOM     19  S   UNL     1       5.181   4.117  18.138  0.00  0.00    +0.000 S 
ATOM     20  O   UNL     1       4.725   3.348  16.997  0.00  0.00    +0.000 OA
ATOM     21  O   UNL     1       5.246   3.522  19.457  0.00  0.00    +0.000 OA
ENDBRANCH  12  19
ENDBRANCH   1  15
BRANCH  10  22
ATOM     22  O   UNL     1       0.116  11.307  18.148  0.00  0.00    +0.000 OA
ATOM     23  H   UNL     1       0.837  11.963  18.144  0.00  0.00    +0.000 HD
ENDBRANCH  10  22
TORSDOF 3
ENDMDL
