MODEL 1
REMARK VINA RESULT:      -7.9      0.000      0.000
REMARK  Name = 
REMARK  12 active torsions:
REMARK  status: ('A' for Active; 'I' for Inactive)
REMARK    1  A    between atoms: C_1  and  O_2
REMARK    2  A    between atoms: O_2  and  C_3
REMARK    3  A    between atoms: C_3  and  C_5
REMARK    4  A    between atoms: C_5  and  C_6
REMARK    5  A    between atoms: C_6  and  C_7
REMARK    6  A    between atoms: C_7  and  C_8
REMARK    7  A    between atoms: C_14  and  C_15
REMARK    8  A    between atoms: C_15  and  N_16
REMARK    9  A    between atoms: N_16  and  S_17
REMARK   10  A    between atoms: S_17  and  C_20
REMARK   11  A    between atoms: C_23  and  O_24
REMARK   12  A    between atoms: O_24  and  C_25
REMARK                            x       y       z     vdW  Elec       q    Type
REMARK                         _______ _______ _______ _____ _____    ______ ____
ROOT
ATOM      1  C   UNL     1       6.953   4.941  15.103  0.00  0.00    +0.000 C 
ATOM      2  O   UNL     1       7.919   5.543  14.632  0.00  0.00    +0.000 OA
ATOM      3  N   UNL     1       6.350   5.340  16.290  0.00  0.00    +0.000 N 
ATOM      4  C   UNL     1       6.799   6.577  16.925  0.00  0.00    +0.000 C 
ATOM      5  C   UNL     1       7.389   6.289  18.299  0.00  0.00    +0.000 C 
ATOM      6  C   UNL     1       6.403   5.506  19.163  0.00  0.00    +0.000 C 
ATOM      7  C   UNL     1       5.886   4.238  18.452  0.00  0.00    +0.000 C 
ATOM      8  C   UNL     1       5.349   4.583  17.050  0.00  0.00    +0.000 C 
ENDROOT
BRANCH   1   9
ATOM      9  C   UNL     1       6.360   3.737  14.384  0.00  0.00    +0.000 C 
BRANCH   9  10
ATOM     10  C   UNL     1       5.274   4.152  13.385  0.00  0.00    +0.000 C 
BRANCH  10  11
ATOM     11  C   UNL     1       5.674   3.860  11.946  0.00  0.00    +0.000 C 
BRANCH  11  12
ATOM     12  C   UNL     1       5.010   2.597  11.458  0.00  0.00    +0.000 C 
ATOM     13  O   UNL     1       5.580   1.519  11.351  0.00  0.00    +0.000 OA
BRANCH  12  15
ATOM     14  C   UNL     1       3.470   3.811  10.179  0.00  0.00    +0.000 C 
ATOM     15  O   UNL     1       3.695   2.822  11.185  0.00  0.00    +0.000 OA
ENDBRANCH  12  15
ENDBRANCH  11  12
ENDBRANCH  10  11
ENDBRANCH   9  10
ENDBRANCH   1   9
BRANCH   7  16
ATOM     16  C   UNL     1       4.823   3.573  19.339  0.00  0.00    +0.000 C 
BRANCH  16  17
ATOM     17  N   UNL     1       4.059   2.568  18.591  0.00  0.00    +0.000 NA
ATOM     18  H   UNL     1       4.214   1.585  18.816  0.00  0.00    +0.000 HD
BRANCH  17  19
ATOM     19  S   UNL     1       2.402   2.858  18.398  0.00  0.00    +0.000 S 
ATOM     20  O   UNL     1       2.172   2.921  16.972  0.00  0.00    +0.000 OA
ATOM     21  O   UNL     1       1.686   1.937  19.248  0.00  0.00    +0.000 OA
BRANCH  19  22
ATOM     22  C   UNL     1       2.222   4.502  19.042  0.00  0.00    +0.000 A 
ATOM     23  C   UNL     1       2.466   5.594  18.209  0.00  0.00    +0.000 A 
ATOM     24  C   UNL     1       2.320   6.887  18.717  0.00  0.00    +0.000 A 
ATOM     25  C   UNL     1       1.906   7.091  20.037  0.00  0.00    +0.000 A 
ATOM     26  C   UNL     1       1.659   5.993  20.863  0.00  0.00    +0.000 A 
ATOM     27  C   UNL     1       1.813   4.693  20.366  0.00  0.00    +0.000 A 
BRANCH  25  28
ATOM     28  O   UNL     1       1.817   8.401  20.420  0.00  0.00    +0.000 OA
ATOM     29  C   UNL     1       0.848   8.689  21.422  0.00  0.00    +0.000 C 
ENDBRANCH  25  28
ENDBRANCH  19  22
ENDBRANCH  17  19
ENDBRANCH  16  17
ENDBRANCH   7  16
TORSDOF 10
ENDMDL
MODEL 2
REMARK VINA RESULT:      -7.4      3.268      8.488
REMARK  Name = 
REMARK  12 active torsions:
REMARK  status: ('A' for Active; 'I' for Inactive)
REMARK    1  A    between atoms: C_1  and  O_2
REMARK    2  A    between atoms: O_2  and  C_3
REMARK    3  A    between atoms: C_3  and  C_5
REMARK    4  A    between atoms: C_5  and  C_6
REMARK    5  A    between atoms: C_6  and  C_7
REMARK    6  A    between atoms: C_7  and  C_8
REMARK    7  A    between atoms: C_14  and  C_15
REMARK    8  A    between atoms: C_15  and  N_16
REMARK    9  A    between atoms: N_16  and  S_17
REMARK   10  A    between atoms: S_17  and  C_20
REMARK   11  A    between atoms: C_23  and  O_24
REMARK   12  A    between atoms: O_24  and  C_25
REMARK                            x       y       z     vdW  Elec       q    Type
REMARK                         _______ _______ _______ _____ _____    ______ ____
ROOT
ATOM      1  C   UNL     1       1.468   8.454  20.395  0.00  0.00    +0.000 C 
ATOM      2  O   UNL     1       1.274   9.489  19.756  0.00  0.00    +0.000 OA
ATOM      3  N   UNL     1       2.101   7.353  19.832  0.00  0.00    +0.000 N 
ATOM      4  C   UNL     1       2.658   7.475  18.487  0.00  0.00    +0.000 C 
ATOM      5  C   UNL     1       1.967   6.513  17.532  0.00  0.00    +0.000 C 
ATOM      6  C   UNL     1       2.019   5.083  18.064  0.00  0.00    +0.000 C 
ATOM      7  C   UNL     1       1.490   4.980  19.510  0.00  0.00    +0.000 C 
ATOM      8  C   UNL     1       2.189   6.010  20.418  0.00  0.00    +0.000 C 
ENDROOT
BRANCH   1   9
ATOM      9  C   UNL     1       1.038   8.347  21.853  0.00  0.00    +0.000 C 
BRANCH   9  10
ATOM     10  C   UNL     1      -0.399   8.838  22.057  0.00  0.00    +0.000 C 
BRANCH  10  11
ATOM     11  C   UNL     1      -0.523   9.778  23.248  0.00  0.00    +0.000 C 
BRANCH  11  12
ATOM     12  C   UNL     1      -0.817  11.182  22.785  0.00  0.00    +0.000 C 
ATOM     13  O   UNL     1      -0.037  11.870  22.140  0.00  0.00    +0.000 OA
BRANCH  12  15
ATOM     14  C   UNL     1      -2.692  12.488  22.271  0.00  0.00    +0.000 C 
ATOM     15  O   UNL     1      -2.072  11.557  23.160  0.00  0.00    +0.000 OA
ENDBRANCH  12  15
ENDBRANCH  11  12
ENDBRANCH  10  11
ENDBRANCH   9  10
ENDBRANCH   1   9
BRANCH   7  16
ATOM     16  C   UNL     1       1.680   3.539  20.005  0.00  0.00    +0.000 C 
BRANCH  16  17
ATOM     17  N   UNL     1       3.034   3.331  20.531  0.00  0.00    +0.000 NA
ATOM     18  H   UNL     1       3.129   3.039  21.504  0.00  0.00    +0.000 HD
BRANCH  17  19
ATOM     19  S   UNL     1       4.102   2.448  19.559  0.00  0.00    +0.000 S 
ATOM     20  O   UNL     1       5.073   1.867  20.460  0.00  0.00    +0.000 OA
ATOM     21  O   UNL     1       3.318   1.640  18.656  0.00  0.00    +0.000 OA
BRANCH  19  22
ATOM     22  C   UNL     1       4.924   3.721  18.635  0.00  0.00    +0.000 A 
ATOM     23  C   UNL     1       5.566   4.756  19.316  0.00  0.00    +0.000 A 
ATOM     24  C   UNL     1       6.214   5.755  18.587  0.00  0.00    +0.000 A 
ATOM     25  C   UNL     1       6.248   5.708  17.189  0.00  0.00    +0.000 A 
ATOM     26  C   UNL     1       5.608   4.666  16.515  0.00  0.00    +0.000 A 
ATOM     27  C   UNL     1       4.945   3.667  17.238  0.00  0.00    +0.000 A 
BRANCH  25  28
ATOM     28  O   UNL     1       6.899   6.751  16.591  0.00  0.00    +0.000 OA
ATOM     29  C   UNL     1       7.552   7.661  17.470  0.00  0.00    +0.000 C 
ENDBRANCH  25  28
ENDBRANCH  19  22
ENDBRANCH  17  19
ENDBRANCH  16  17
ENDBRANCH   7  16
TORSDOF 10
ENDMDL
MODEL 3
REMARK VINA RESULT:      -7.3      1.293      1.993
REMARK  Name = 
REMARK  12 active torsions:
REMARK  status: ('A' for Active; 'I' for Inactive)
REMARK    1  A    between atoms: C_1  and  O_2
REMARK    2  A    between atoms: O_2  and  C_3
REMARK    3  A    between atoms: C_3  and  C_5
REMARK    4  A    between atoms: C_5  and  C_6
REMARK    5  A    between atoms: C_6  and  C_7
REMARK    6  A    between atoms: C_7  and  C_8
REMARK    7  A    between atoms: C_14  and  C_15
REMARK    8  A    between atoms: C_15  and  N_16
REMARK    9  A    between atoms: N_16  and  S_17
REMARK   10  A    between atoms: S_17  and  C_20
REMARK   11  A    between atoms: C_23  and  O_24
REMARK   12  A    between atoms: O_24  and  C_25
REMARK                            x       y       z     vdW  Elec       q    Type
REMARK                         _______ _______ _______ _____ _____    ______ ____
ROOT
ATOM      1  C   UNL     1       6.204   5.015  15.447  0.00  0.00    +0.000 C 
ATOM      2  O   UNL     1       7.190   5.752  15.401  0.00  0.00    +0.000 OA
ATOM      3  N   UNL     1       5.419   4.912  16.589  0.00  0.00    +0.000 N 
ATOM      4  C   UNL     1       5.703   5.793  17.718  0.00  0.00    +0.000 C 
ATOM      5  C   UNL     1       6.110   4.982  18.941  0.00  0.00    +0.000 C 
ATOM      6  C   UNL     1       5.060   3.923  19.268  0.00  0.00    +0.000 C 
ATOM      7  C   UNL     1       4.721   3.043  18.047  0.00  0.00    +0.000 C 
ATOM      8  C   UNL     1       4.367   3.918  16.829  0.00  0.00    +0.000 C 
ENDROOT
BRANCH   1   9
ATOM      9  C   UNL     1       5.786   4.197  14.231  0.00  0.00    +0.000 C 
BRANCH   9  10
ATOM     10  C   UNL     1       6.963   3.954  13.281  0.00  0.00    +0.000 C 
BRANCH  10  11
ATOM     11  C   UNL     1       6.523   3.879  11.826  0.00  0.00    +0.000 C 
BRANCH  11  12
ATOM     12  C   UNL     1       5.333   2.963  11.679  0.00  0.00    +0.000 C 
ATOM     13  O   UNL     1       4.193   3.350  11.463  0.00  0.00    +0.000 OA
BRANCH  12  15
ATOM     14  C   UNL     1       6.721   1.265  10.858  0.00  0.00    +0.000 C 
ATOM     15  O   UNL     1       5.715   1.661  11.792  0.00  0.00    +0.000 OA
ENDBRANCH  12  15
ENDBRANCH  11  12
ENDBRANCH  10  11
ENDBRANCH   9  10
ENDBRANCH   1   9
BRANCH   7  16
ATOM     16  C   UNL     1       3.584   2.084  18.430  0.00  0.00    +0.000 C 
BRANCH  16  17
ATOM     17  N   UNL     1       3.084   2.364  19.781  0.00  0.00    +0.000 NA
ATOM     18  H   UNL     1       3.691   2.880  20.418  0.00  0.00    +0.000 HD
BRANCH  17  19
ATOM     19  S   UNL     1       1.499   2.945  19.900  0.00  0.00    +0.000 S 
ATOM     20  O   UNL     1       0.785   2.392  18.770  0.00  0.00    +0.000 OA
ATOM     21  O   UNL     1       1.052   2.744  21.259  0.00  0.00    +0.000 OA
BRANCH  19  22
ATOM     22  C   UNL     1       1.702   4.683  19.607  0.00  0.00    +0.000 A 
ATOM     23  C   UNL     1       1.759   5.558  20.693  0.00  0.00    +0.000 A 
ATOM     24  C   UNL     1       1.923   6.925  20.461  0.00  0.00    +0.000 A 
ATOM     25  C   UNL     1       2.058   7.415  19.157  0.00  0.00    +0.000 A 
ATOM     26  C   UNL     1       2.006   6.532  18.077  0.00  0.00    +0.000 A 
ATOM     27  C   UNL     1       1.830   5.161  18.300  0.00  0.00    +0.000 A 
BRANCH  25  28
ATOM     28  O   UNL     1       2.195   8.772  19.060  0.00  0.00    +0.000 OA
ATOM     29  C   UNL     1       1.625   9.372  17.902  0.00  0.00    +0.000 C 
ENDBRANCH  25  28
ENDBRANCH  19  22
ENDBRANCH  17  19
ENDBRANCH  16  17
ENDBRANCH   7  16
TORSDOF 10
ENDMDL
MODEL 4
REMARK VINA RESULT:      -7.2      0.753      1.498
REMARK  Name = 
REMARK  12 active torsions:
REMARK  status: ('A' for Active; 'I' for Inactive)
REMARK    1  A    between atoms: C_1  and  O_2
REMARK    2  A    between atoms: O_2  and  C_3
REMARK    3  A    between atoms: C_3  and  C_5
REMARK    4  A    between atoms: C_5  and  C_6
REMARK    5  A    between atoms: C_6  and  C_7
REMARK    6  A    between atoms: C_7  and  C_8
REMARK    7  A    between atoms: C_14  and  C_15
REMARK    8  A    between atoms: C_15  and  N_16
REMARK    9  A    between atoms: N_16  and  S_17
REMARK   10  A    between atoms: S_17  and  C_20
REMARK   11  A    between atoms: C_23  and  O_24
REMARK   12  A    between atoms: O_24  and  C_25
REMARK                            x       y       z     vdW  Elec       q    Type
REMARK                         _______ _______ _______ _____ _____    ______ ____
ROOT
ATOM      1  C   UNL     1       6.830   5.104  15.218  0.00  0.00    +0.000 C 
ATOM      2  O   UNL     1       7.878   5.552  14.751  0.00  0.00    +0.000 OA
ATOM      3  N   UNL     1       6.377   5.465  16.481  0.00  0.00    +0.000 N 
ATOM      4  C   UNL     1       7.102   6.496  17.219  0.00  0.00    +0.000 C 
ATOM      5  C   UNL     1       7.680   5.926  18.507  0.00  0.00    +0.000 C 
ATOM      6  C   UNL     1       6.592   5.256  19.343  0.00  0.00    +0.000 C 
ATOM      7  C   UNL     1       5.789   4.218  18.532  0.00  0.00    +0.000 C 
ATOM      8  C   UNL     1       5.275   4.836  17.218  0.00  0.00    +0.000 C 
ENDROOT
BRANCH   1   9
ATOM      9  C   UNL     1       5.966   4.144  14.410  0.00  0.00    +0.000 C 
BRANCH   9  10
ATOM     10  C   UNL     1       6.302   4.199  12.916  0.00  0.00    +0.000 C 
BRANCH  10  11
ATOM     11  C   UNL     1       6.435   2.812  12.304  0.00  0.00    +0.000 C 
BRANCH  11  12
ATOM     12  C   UNL     1       5.201   2.463  11.510  0.00  0.00    +0.000 C 
ATOM     13  O   UNL     1       4.164   3.111  11.536  0.00  0.00    +0.000 OA
BRANCH  12  15
ATOM     14  C   UNL     1       6.469   0.514  11.232  0.00  0.00    +0.000 C 
ATOM     15  O   UNL     1       5.418   1.354  10.750  0.00  0.00    +0.000 OA
ENDBRANCH  12  15
ENDBRANCH  11  12
ENDBRANCH  10  11
ENDBRANCH   9  10
ENDBRANCH   1   9
BRANCH   7  16
ATOM     16  C   UNL     1       4.651   3.676  19.409  0.00  0.00    +0.000 C 
BRANCH  16  17
ATOM     17  N   UNL     1       3.895   2.628  18.713  0.00  0.00    +0.000 NA
ATOM     18  H   UNL     1       3.976   1.671  19.058  0.00  0.00    +0.000 HD
BRANCH  17  19
ATOM     19  S   UNL     1       2.279   2.972  18.346  0.00  0.00    +0.000 S 
ATOM     20  O   UNL     1       2.208   3.062  16.905  0.00  0.00    +0.000 OA
ATOM     21  O   UNL     1       1.448   2.060  19.097  0.00  0.00    +0.000 OA
BRANCH  19  22
ATOM     22  C   UNL     1       2.076   4.610  18.996  0.00  0.00    +0.000 A 
ATOM     23  C   UNL     1       1.660   4.776  20.318  0.00  0.00    +0.000 A 
ATOM     24  C   UNL     1       1.504   6.066  20.829  0.00  0.00    +0.000 A 
ATOM     25  C   UNL     1       1.788   7.184  20.038  0.00  0.00    +0.000 A 
ATOM     26  C   UNL     1       2.209   7.010  18.718  0.00  0.00    +0.000 A 
ATOM     27  C   UNL     1       2.357   5.720  18.194  0.00  0.00    +0.000 A 
BRANCH  25  28
ATOM     28  O   UNL     1       1.580   8.391  20.646  0.00  0.00    +0.000 OA
ATOM     29  C   UNL     1       1.419   9.505  19.774  0.00  0.00    +0.000 C 
ENDBRANCH  25  28
ENDBRANCH  19  22
ENDBRANCH  17  19
ENDBRANCH  16  17
ENDBRANCH   7  16
TORSDOF 10
ENDMDL
MODEL 5
REMARK VINA RESULT:      -7.2      1.574      2.198
REMARK  Name = 
REMARK  12 active torsions:
REMARK  status: ('A' for Active; 'I' for Inactive)
REMARK    1  A    between atoms: C_1  and  O_2
REMARK    2  A    between atoms: O_2  and  C_3
REMARK    3  A    between atoms: C_3  and  C_5
REMARK    4  A    between atoms: C_5  and  C_6
REMARK    5  A    between atoms: C_6  and  C_7
REMARK    6  A    between atoms: C_7  and  C_8
REMARK    7  A    between atoms: C_14  and  C_15
REMARK    8  A    between atoms: C_15  and  N_16
REMARK    9  A    between atoms: N_16  and  S_17
REMARK   10  A    between atoms: S_17  and  C_20
REMARK   11  A    between atoms: C_23  and  O_24
REMARK   12  A    between atoms: O_24  and  C_25
REMARK                            x       y       z     vdW  Elec       q    Type
REMARK                         _______ _______ _______ _____ _____    ______ ____
ROOT
ATOM      1  C   UNL     1       6.942   4.952  15.052  0.00  0.00    +0.000 C 
ATOM      2  O   UNL     1       7.918   5.537  14.579  0.00  0.00    +0.000 OA
ATOM      3  N   UNL     1       6.328   5.381  16.222  0.00  0.00    +0.000 N 
ATOM      4  C   UNL     1       6.777   6.629  16.835  0.00  0.00    +0.000 C 
ATOM      5  C   UNL     1       7.348   6.369  18.222  0.00  0.00    +0.000 C 
ATOM      6  C   UNL     1       6.347   5.611  19.091  0.00  0.00    +0.000 C 
ATOM      7  C   UNL     1       5.830   4.331  18.403  0.00  0.00    +0.000 C 
ATOM      8  C   UNL     1       5.313   4.647  16.987  0.00  0.00    +0.000 C 
ENDROOT
BRANCH   1   9
ATOM      9  C   UNL     1       6.349   3.735  14.353  0.00  0.00    +0.000 C 
BRANCH   9  10
ATOM     10  C   UNL     1       5.936   4.055  12.913  0.00  0.00    +0.000 C 
BRANCH  10  11
ATOM     11  C   UNL     1       6.718   3.238  11.894  0.00  0.00    +0.000 C 
BRANCH  11  12
ATOM     12  C   UNL     1       5.857   2.140  11.322  0.00  0.00    +0.000 C 
ATOM     13  O   UNL     1       4.642   2.216  11.199  0.00  0.00    +0.000 OA
BRANCH  12  15
ATOM     14  C   UNL     1       6.054  -0.192  11.261  0.00  0.00    +0.000 C 
ATOM     15  O   UNL     1       6.622   1.080  10.943  0.00  0.00    +0.000 OA
ENDBRANCH  12  15
ENDBRANCH  11  12
ENDBRANCH  10  11
ENDBRANCH   9  10
ENDBRANCH   1   9
BRANCH   7  16
ATOM     16  C   UNL     1       4.752   3.693  19.292  0.00  0.00    +0.000 C 
BRANCH  16  17
ATOM     17  N   UNL     1       4.042   4.708  20.078  0.00  0.00    +0.000 NA
ATOM     18  H   UNL     1       4.405   5.661  20.068  0.00  0.00    +0.000 HD
BRANCH  17  19
ATOM     19  S   UNL     1       2.355   4.734  19.942  0.00  0.00    +0.000 S 
ATOM     20  O   UNL     1       2.048   4.120  18.669  0.00  0.00    +0.000 OA
ATOM     21  O   UNL     1       1.800   4.243  21.181  0.00  0.00    +0.000 OA
BRANCH  19  22
ATOM     22  C   UNL     1       2.008   6.469  19.798  0.00  0.00    +0.000 A 
ATOM     23  C   UNL     1       1.439   7.145  20.878  0.00  0.00    +0.000 A 
ATOM     24  C   UNL     1       1.169   8.510  20.764  0.00  0.00    +0.000 A 
ATOM     25  C   UNL     1       1.490   9.204  19.592  0.00  0.00    +0.000 A 
ATOM     26  C   UNL     1       2.064   8.521  18.518  0.00  0.00    +0.000 A 
ATOM     27  C   UNL     1       2.327   7.150  18.620  0.00  0.00    +0.000 A 
BRANCH  25  28
ATOM     28  O   UNL     1       1.162  10.532  19.597  0.00  0.00    +0.000 OA
ATOM     29  C   UNL     1       0.368  10.978  18.504  0.00  0.00    +0.000 C 
ENDBRANCH  25  28
ENDBRANCH  19  22
ENDBRANCH  17  19
ENDBRANCH  16  17
ENDBRANCH   7  16
TORSDOF 10
ENDMDL
MODEL 6
REMARK VINA RESULT:      -7.2      1.630      2.239
REMARK  Name = 
REMARK  12 active torsions:
REMARK  status: ('A' for Active; 'I' for Inactive)
REMARK    1  A    between atoms: C_1  and  O_2
REMARK    2  A    between atoms: O_2  and  C_3
REMARK    3  A    between atoms: C_3  and  C_5
REMARK    4  A    between atoms: C_5  and  C_6
REMARK    5  A    between atoms: C_6  and  C_7
REMARK    6  A    between atoms: C_7  and  C_8
REMARK    7  A    between atoms: C_14  and  C_15
REMARK    8  A    between atoms: C_15  and  N_16
REMARK    9  A    between atoms: N_16  and  S_17
REMARK   10  A    between atoms: S_17  and  C_20
REMARK   11  A    between atoms: C_23  and  O_24
REMARK   12  A    between atoms: O_24  and  C_25
REMARK                            x       y       z     vdW  Elec       q    Type
REMARK                         _______ _______ _______ _____ _____    ______ ____
ROOT
ATOM      1  C   UNL     1       6.330   4.782  14.748  0.00  0.00    +0.000 C 
ATOM      2  O   UNL     1       7.453   5.188  14.446  0.00  0.00    +0.000 OA
ATOM      3  N   UNL     1       5.779   5.018  16.002  0.00  0.00    +0.000 N 
ATOM      4  C   UNL     1       6.503   5.876  16.937  0.00  0.00    +0.000 C 
ATOM      5  C   UNL     1       6.897   5.095  18.183  0.00  0.00    +0.000 C 
ATOM      6  C   UNL     1       5.680   4.427  18.817  0.00  0.00    +0.000 C 
ATOM      7  C   UNL     1       4.886   3.579  17.801  0.00  0.00    +0.000 C 
ATOM      8  C   UNL     1       4.560   4.405  16.542  0.00  0.00    +0.000 C 
ENDROOT
BRANCH   1   9
ATOM      9  C   UNL     1       5.481   4.017  13.741  0.00  0.00    +0.000 C 
BRANCH   9  10
ATOM     10  C   UNL     1       6.320   3.509  12.564  0.00  0.00    +0.000 C 
BRANCH  10  11
ATOM     11  C   UNL     1       5.633   2.376  11.814  0.00  0.00    +0.000 C 
BRANCH  11  12
ATOM     12  C   UNL     1       6.645   1.553  11.057  0.00  0.00    +0.000 C 
ATOM     13  O   UNL     1       7.823   1.861  10.930  0.00  0.00    +0.000 OA
BRANCH  12  15
ATOM     14  C   UNL     1       6.043  -0.667  11.496  0.00  0.00    +0.000 C 
ATOM     15  O   UNL     1       6.071   0.419  10.568  0.00  0.00    +0.000 OA
ENDBRANCH  12  15
ENDBRANCH  11  12
ENDBRANCH  10  11
ENDBRANCH   9  10
ENDBRANCH   1   9
BRANCH   7  16
ATOM     16  C   UNL     1       3.624   3.036  18.488  0.00  0.00    +0.000 C 
BRANCH  16  17
ATOM     17  N   UNL     1       3.621   3.352  19.921  0.00  0.00    +0.000 NA
ATOM     18  H   UNL     1       4.372   3.942  20.282  0.00  0.00    +0.000 HD
BRANCH  17  19
ATOM     19  S   UNL     1       2.143   3.830  20.592  0.00  0.00    +0.000 S 
ATOM     20  O   UNL     1       1.126   3.071  19.898  0.00  0.00    +0.000 OA
ATOM     21  O   UNL     1       2.274   3.795  22.030  0.00  0.00    +0.000 OA
BRANCH  19  22
ATOM     22  C   UNL     1       2.007   5.518  20.063  0.00  0.00    +0.000 A 
ATOM     23  C   UNL     1       1.660   6.501  20.990  0.00  0.00    +0.000 A 
ATOM     24  C   UNL     1       1.556   7.829  20.573  0.00  0.00    +0.000 A 
ATOM     25  C   UNL     1       1.825   8.181  19.246  0.00  0.00    +0.000 A 
ATOM     26  C   UNL     1       2.177   7.193  18.325  0.00  0.00    +0.000 A 
ATOM     27  C   UNL     1       2.272   5.857  18.732  0.00  0.00    +0.000 A 
BRANCH  25  28
ATOM     28  O   UNL     1       1.673   9.510  18.957  0.00  0.00    +0.000 OA
ATOM     29  C   UNL     1       0.449   9.871  18.326  0.00  0.00    +0.000 C 
ENDBRANCH  25  28
ENDBRANCH  19  22
ENDBRANCH  17  19
ENDBRANCH  16  17
ENDBRANCH   7  16
TORSDOF 10
ENDMDL
MODEL 7
REMARK VINA RESULT:      -7.0      3.903      6.337
REMARK  Name = 
REMARK  12 active torsions:
REMARK  status: ('A' for Active; 'I' for Inactive)
REMARK    1  A    between atoms: C_1  and  O_2
REMARK    2  A    between atoms: O_2  and  C_3
REMARK    3  A    between atoms: C_3  and  C_5
REMARK    4  A    between atoms: C_5  and  C_6
REMARK    5  A    between atoms: C_6  and  C_7
REMARK    6  A    between atoms: C_7  and  C_8
REMARK    7  A    between atoms: C_14  and  C_15
REMARK    8  A    between atoms: C_15  and  N_16
REMARK    9  A    between atoms: N_16  and  S_17
REMARK   10  A    between atoms: S_17  and  C_20
REMARK   11  A    between atoms: C_23  and  O_24
REMARK   12  A    between atoms: O_24  and  C_25
REMARK                            x       y       z     vdW  Elec       q    Type
REMARK                         _______ _______ _______ _____ _____    ______ ____
ROOT
ATOM      1  C   UNL     1       3.857   4.115  17.817  0.00  0.00    +0.000 C 
ATOM      2  O   UNL     1       3.645   2.936  17.532  0.00  0.00    +0.000 OA
ATOM      3  N   UNL     1       3.454   4.658  19.031  0.00  0.00    +0.000 N 
ATOM      4  C   UNL     1       2.876   3.773  20.040  0.00  0.00    +0.000 C 
ATOM      5  C   UNL     1       1.438   4.171  20.341  0.00  0.00    +0.000 C 
ATOM      6  C   UNL     1       1.349   5.645  20.729  0.00  0.00    +0.000 C 
ATOM      7  C   UNL     1       2.024   6.563  19.687  0.00  0.00    +0.000 C 
ATOM      8  C   UNL     1       3.456   6.082  19.386  0.00  0.00    +0.000 C 
ENDROOT
BRANCH   1   9
ATOM      9  C   UNL     1       4.597   5.029  16.850  0.00  0.00    +0.000 C 
BRANCH   9  10
ATOM     10  C   UNL     1       4.991   4.295  15.565  0.00  0.00    +0.000 C 
BRANCH  10  11
ATOM     11  C   UNL     1       6.461   3.899  15.555  0.00  0.00    +0.000 C 
BRANCH  11  12
ATOM     12  C   UNL     1       7.296   4.945  16.251  0.00  0.00    +0.000 C 
ATOM     13  O   UNL     1       7.447   6.087  15.839  0.00  0.00    +0.000 OA
BRANCH  12  15
ATOM     14  C   UNL     1       7.705   5.323  18.525  0.00  0.00    +0.000 C 
ATOM     15  O   UNL     1       7.824   4.447  17.403  0.00  0.00    +0.000 OA
ENDBRANCH  12  15
ENDBRANCH  11  12
ENDBRANCH  10  11
ENDBRANCH   9  10
ENDBRANCH   1   9
BRANCH   7  16
ATOM     16  C   UNL     1       1.988   8.009  20.205  0.00  0.00    +0.000 C 
BRANCH  16  17
ATOM     17  N   UNL     1       0.763   8.696  19.780  0.00  0.00    +0.000 NA
ATOM     18  H   UNL     1       0.071   8.927  20.495  0.00  0.00    +0.000 HD
BRANCH  17  19
ATOM     19  S   UNL     1       0.951  10.002  18.720  0.00  0.00    +0.000 S 
ATOM     20  O   UNL     1       1.561  11.060  19.495  0.00  0.00    +0.000 OA
ATOM     21  O   UNL     1       1.547   9.506  17.502  0.00  0.00    +0.000 OA
BRANCH  19  22
ATOM     22  C   UNL     1      -0.727  10.477  18.393  0.00  0.00    +0.000 A 
ATOM     23  C   UNL     1      -1.443   9.817  17.393  0.00  0.00    +0.000 A 
ATOM     24  C   UNL     1      -2.765  10.191  17.139  0.00  0.00    +0.000 A 
ATOM     25  C   UNL     1      -3.379  11.195  17.895  0.00  0.00    +0.000 A 
ATOM     26  C   UNL     1      -2.658  11.846  18.897  0.00  0.00    +0.000 A 
ATOM     27  C   UNL     1      -1.329  11.486  19.151  0.00  0.00    +0.000 A 
BRANCH  25  28
ATOM     28  O   UNL     1      -4.668  11.480  17.539  0.00  0.00    +0.000 OA
ATOM     29  C   UNL     1      -5.680  10.873  18.337  0.00  0.00    +0.000 C 
ENDBRANCH  25  28
ENDBRANCH  19  22
ENDBRANCH  17  19
ENDBRANCH  16  17
ENDBRANCH   7  16
TORSDOF 10
ENDMDL
MODEL 8
REMARK VINA RESULT:      -6.9      3.244      8.998
REMARK  Name = 
REMARK  12 active torsions:
REMARK  status: ('A' for Active; 'I' for Inactive)
REMARK    1  A    between atoms: C_1  and  O_2
REMARK    2  A    between atoms: O_2  and  C_3
REMARK    3  A    between atoms: C_3  and  C_5
REMARK    4  A    between atoms: C_5  and  C_6
REMARK    5  A    between atoms: C_6  and  C_7
REMARK    6  A    between atoms: C_7  and  C_8
REMARK    7  A    between atoms: C_14  and  C_15
REMARK    8  A    between atoms: C_15  and  N_16
REMARK    9  A    between atoms: N_16  and  S_17
REMARK   10  A    between atoms: S_17  and  C_20
REMARK   11  A    between atoms: C_23  and  O_24
REMARK   12  A    between atoms: O_24  and  C_25
REMARK                            x       y       z     vdW  Elec       q    Type
REMARK                         _______ _______ _______ _____ _____    ______ ____
ROOT
ATOM      1  C   UNL     1      -0.122   9.497  20.491  0.00  0.00    +0.000 C 
ATOM      2  O   UNL     1      -0.796  10.328  19.880  0.00  0.00    +0.000 OA
ATOM      3  N   UNL     1       1.073   9.005  19.982  0.00  0.00    +0.000 N 
ATOM      4  C   UNL     1       1.602   9.584  18.749  0.00  0.00    +0.000 C 
ATOM      5  C   UNL     1       1.672   8.531  17.651  0.00  0.00    +0.000 C 
ATOM      6  C   UNL     1       2.461   7.310  18.115  0.00  0.00    +0.000 C 
ATOM      7  C   UNL     1       1.935   6.750  19.454  0.00  0.00    +0.000 C 
ATOM      8  C   UNL     1       1.837   7.869  20.508  0.00  0.00    +0.000 C 
ENDROOT
BRANCH   1   9
ATOM      9  C   UNL     1      -0.566   8.987  21.856  0.00  0.00    +0.000 C 
BRANCH   9  10
ATOM     10  C   UNL     1      -0.310  10.020  22.958  0.00  0.00    +0.000 C 
BRANCH  10  11
ATOM     11  C   UNL     1      -1.498  10.948  23.165  0.00  0.00    +0.000 C 
BRANCH  11  12
ATOM     12  C   UNL     1      -1.105  12.379  22.894  0.00  0.00    +0.000 C 
ATOM     13  O   UNL     1      -1.774  13.348  23.226  0.00  0.00    +0.000 OA
BRANCH  12  15
ATOM     14  C   UNL     1       0.352  13.673  21.596  0.00  0.00    +0.000 C 
ATOM     15  O   UNL     1       0.098  12.433  22.259  0.00  0.00    +0.000 OA
ENDBRANCH  12  15
ENDBRANCH  11  12
ENDBRANCH  10  11
ENDBRANCH   9  10
ENDBRANCH   1   9
BRANCH   7  16
ATOM     16  C   UNL     1       2.847   5.600  19.902  0.00  0.00    +0.000 C 
BRANCH  16  17
ATOM     17  N   UNL     1       2.272   4.296  19.550  0.00  0.00    +0.000 NA
ATOM     18  H   UNL     1       1.257   4.229  19.464  0.00  0.00    +0.000 HD
BRANCH  17  19
ATOM     19  S   UNL     1       3.013   3.453  18.284  0.00  0.00    +0.000 S 
ATOM     20  O   UNL     1       3.418   2.180  18.835  0.00  0.00    +0.000 OA
ATOM     21  O   UNL     1       2.156   3.546  17.125  0.00  0.00    +0.000 OA
BRANCH  19  22
ATOM     22  C   UNL     1       4.482   4.405  17.995  0.00  0.00    +0.000 A 
ATOM     23  C   UNL     1       4.664   5.027  16.760  0.00  0.00    +0.000 A 
ATOM     24  C   UNL     1       5.820   5.778  16.536  0.00  0.00    +0.000 A 
ATOM     25  C   UNL     1       6.775   5.932  17.546  0.00  0.00    +0.000 A 
ATOM     26  C   UNL     1       6.584   5.311  18.781  0.00  0.00    +0.000 A 
ATOM     27  C   UNL     1       5.433   4.547  19.010  0.00  0.00    +0.000 A 
BRANCH  25  28
ATOM     28  O   UNL     1       7.869   6.676  17.199  0.00  0.00    +0.000 OA
ATOM     29  C   UNL     1       7.818   8.055  17.550  0.00  0.00    +0.000 C 
ENDBRANCH  25  28
ENDBRANCH  19  22
ENDBRANCH  17  19
ENDBRANCH  16  17
ENDBRANCH   7  16
TORSDOF 10
ENDMDL
MODEL 9
REMARK VINA RESULT:      -6.9      3.938      6.364
REMARK  Name = 
REMARK  12 active torsions:
REMARK  status: ('A' for Active; 'I' for Inactive)
REMARK    1  A    between atoms: C_1  and  O_2
REMARK    2  A    between atoms: O_2  and  C_3
REMARK    3  A    between atoms: C_3  and  C_5
REMARK    4  A    between atoms: C_5  and  C_6
REMARK    5  A    between atoms: C_6  and  C_7
REMARK    6  A    between atoms: C_7  and  C_8
REMARK    7  A    between atoms: C_14  and  C_15
REMARK    8  A    between atoms: C_15  and  N_16
REMARK    9  A    between atoms: N_16  and  S_17
REMARK   10  A    between atoms: S_17  and  C_20
REMARK   11  A    between atoms: C_23  and  O_24
REMARK   12  A    between atoms: O_24  and  C_25
REMARK                            x       y       z     vdW  Elec       q    Type
REMARK                         _______ _______ _______ _____ _____    ______ ____
ROOT
ATOM      1  C   UNL     1       3.229   3.756  18.206  0.00  0.00    +0.000 C 
ATOM      2  O   UNL     1       2.871   2.703  18.735  0.00  0.00    +0.000 OA
ATOM      3  N   UNL     1       3.268   4.954  18.909  0.00  0.00    +0.000 N 
ATOM      4  C   UNL     1       2.996   4.935  20.344  0.00  0.00    +0.000 C 
ATOM      5  C   UNL     1       1.755   5.755  20.664  0.00  0.00    +0.000 C 
ATOM      6  C   UNL     1       1.877   7.171  20.106  0.00  0.00    +0.000 C 
ATOM      7  C   UNL     1       2.232   7.176  18.604  0.00  0.00    +0.000 C 
ATOM      8  C   UNL     1       3.463   6.290  18.334  0.00  0.00    +0.000 C 
ENDROOT
BRANCH   1   9
ATOM      9  C   UNL     1       3.670   3.784  16.748  0.00  0.00    +0.000 C 
BRANCH   9  10
ATOM     10  C   UNL     1       5.196   3.737  16.616  0.00  0.00    +0.000 C 
BRANCH  10  11
ATOM     11  C   UNL     1       5.711   4.687  15.545  0.00  0.00    +0.000 C 
BRANCH  11  12
ATOM     12  C   UNL     1       7.206   4.852  15.658  0.00  0.00    +0.000 C 
ATOM     13  O   UNL     1       7.865   4.487  16.622  0.00  0.00    +0.000 OA
BRANCH  12  15
ATOM     14  C   UNL     1       7.219   4.868  13.317  0.00  0.00    +0.000 C 
ATOM     15  O   UNL     1       7.711   5.432  14.534  0.00  0.00    +0.000 OA
ENDBRANCH  12  15
ENDBRANCH  11  12
ENDBRANCH  10  11
ENDBRANCH   9  10
ENDBRANCH   1   9
BRANCH   7  16
ATOM     16  C   UNL     1       2.444   8.628  18.151  0.00  0.00    +0.000 C 
BRANCH  16  17
ATOM     17  N   UNL     1       1.166   9.337  18.021  0.00  0.00    +0.000 NA
ATOM     18  H   UNL     1       0.308   8.785  18.046  0.00  0.00    +0.000 HD
BRANCH  17  19
ATOM     19  S   UNL     1       0.974  10.739  18.950  0.00  0.00    +0.000 S 
ATOM     20  O   UNL     1       1.240  10.349  20.318  0.00  0.00    +0.000 OA
ATOM     21  O   UNL     1       1.702  11.805  18.304  0.00  0.00    +0.000 OA
BRANCH  19  22
ATOM     22  C   UNL     1      -0.766  11.057  18.812  0.00  0.00    +0.000 A 
ATOM     23  C   UNL     1      -1.362  11.985  19.667  0.00  0.00    +0.000 A 
ATOM     24  C   UNL     1      -2.731  12.237  19.555  0.00  0.00    +0.000 A 
ATOM     25  C   UNL     1      -3.496  11.590  18.579  0.00  0.00    +0.000 A 
ATOM     26  C   UNL     1      -2.891  10.666  17.724  0.00  0.00    +0.000 A 
ATOM     27  C   UNL     1      -1.522  10.399  17.838  0.00  0.00    +0.000 A 
BRANCH  25  28
ATOM     28  O   UNL     1      -4.826  11.908  18.581  0.00  0.00    +0.000 OA
ATOM     29  C   UNL     1      -5.681  11.006  17.887  0.00  0.00    +0.000 C 
ENDBRANCH  25  28
ENDBRANCH  19  22
ENDBRANCH  17  19
ENDBRANCH  16  17
ENDBRANCH   7  16
TORSDOF 10
ENDMDL
