MODEL 1
REMARK VINA RESULT:      -7.8      0.000      0.000
REMARK  Name = 
REMARK  7 active torsions:
REMARK  status: ('A' for Active; 'I' for Inactive)
REMARK    1  A    between atoms: C_1  and  C_2
REMARK    2  A    between atoms: C_2  and  N_3
REMARK    3  A    between atoms: C_5  and  C_6
REMARK    4  A    between atoms: C_9  and  O_10
REMARK    5  A    between atoms: O_10  and  C_11
REMARK    6  A    between atoms: C_15  and  C_16
REMARK    7  A    between atoms: C_21  and  C_22
REMARK                            x       y       z     vdW  Elec       q    Type
REMARK                         _______ _______ _______ _____ _____    ______ ____
ROOT
ATOM      1  N   UNL     1       1.347   8.671  20.152  0.00  0.00    +0.000 N 
ATOM      2  C   UNL     1       1.934   7.488  19.772  0.00  0.00    +0.000 A 
ATOM      3  C   UNL     1       2.428   7.623  18.497  0.00  0.00    +0.000 A 
ATOM      4  C   UNL     1       1.946   8.874  18.025  0.00  0.00    +0.000 A 
ATOM      5  C   UNL     1       1.313   9.541  19.076  0.00  0.00    +0.000 A 
ENDROOT
BRANCH   5   6
ATOM      6  C   UNL     1       0.701  10.863  19.084  0.00  0.00    +0.000 C 
ATOM      7  O   UNL     1       1.276  11.834  19.566  0.00  0.00    +0.000 OA
ATOM      8  N   UNL     1      -0.587  10.975  18.535  0.00  0.00    +0.000 N 
ATOM      9  C   UNL     1      -1.327  12.221  18.678  0.00  0.00    +0.000 C 
ATOM     10  C   UNL     1      -2.825  11.955  18.861  0.00  0.00    +0.000 C 
ATOM     11  C   UNL     1      -3.406  10.960  17.839  0.00  0.00    +0.000 C 
ATOM     12  C   UNL     1      -4.796  10.492  18.276  0.00  0.00    +0.000 C 
ATOM     13  C   UNL     1      -2.496   9.740  17.633  0.00  0.00    +0.000 C 
ATOM     14  C   UNL     1      -1.044  10.140  17.428  0.00  0.00    +0.000 C 
ENDBRANCH   5   6
BRANCH   3  15
ATOM     15  C   UNL     1       3.246   6.602  17.861  0.00  0.00    +0.000 A 
ATOM     16  C   UNL     1       4.399   6.942  17.154  0.00  0.00    +0.000 A 
ATOM     17  C   UNL     1       5.151   5.947  16.518  0.00  0.00    +0.000 A 
ATOM     18  C   UNL     1       4.784   4.604  16.605  0.00  0.00    +0.000 A 
ATOM     19  C   UNL     1       3.642   4.253  17.323  0.00  0.00    +0.000 A 
ATOM     20  C   UNL     1       2.886   5.247  17.951  0.00  0.00    +0.000 A 
BRANCH  18  21
ATOM     21  O   UNL     1       5.579   3.731  15.915  0.00  0.00    +0.000 OA
ATOM     22  C   UNL     1       5.904   4.110  14.582  0.00  0.00    +0.000 C 
ENDBRANCH  18  21
ENDBRANCH   3  15
BRANCH   1  24
ATOM     23  C   UNL     1      -0.491   8.622  21.823  0.00  0.00    +0.000 C 
ATOM     24  C   UNL     1       0.963   8.976  21.523  0.00  0.00    +0.000 C 
ENDBRANCH   1  24
TORSDOF 4
ENDMDL
MODEL 2
REMARK VINA RESULT:      -7.7      0.228      1.009
REMARK  Name = 
REMARK  7 active torsions:
REMARK  status: ('A' for Active; 'I' for Inactive)
REMARK    1  A    between atoms: C_1  and  C_2
REMARK    2  A    between atoms: C_2  and  N_3
REMARK    3  A    between atoms: C_5  and  C_6
REMARK    4  A    between atoms: C_9  and  O_10
REMARK    5  A    between atoms: O_10  and  C_11
REMARK    6  A    between atoms: C_15  and  C_16
REMARK    7  A    between atoms: C_21  and  C_22
REMARK                            x       y       z     vdW  Elec       q    Type
REMARK                         _______ _______ _______ _____ _____    ______ ____
ROOT
ATOM      1  N   UNL     1       1.281   8.876  20.090  0.00  0.00    +0.000 N 
ATOM      2  C   UNL     1       1.875   7.684  19.754  0.00  0.00    +0.000 A 
ATOM      3  C   UNL     1       2.343   7.765  18.464  0.00  0.00    +0.000 A 
ATOM      4  C   UNL     1       1.834   8.987  17.944  0.00  0.00    +0.000 A 
ATOM      5  C   UNL     1       1.213   9.694  18.975  0.00  0.00    +0.000 A 
ENDROOT
BRANCH   5   6
ATOM      6  C   UNL     1       0.583  11.007  18.935  0.00  0.00    +0.000 C 
ATOM      7  O   UNL     1       1.164  12.011  19.333  0.00  0.00    +0.000 OA
ATOM      8  N   UNL     1      -0.728  11.072  18.437  0.00  0.00    +0.000 N 
ATOM      9  C   UNL     1      -1.480  12.316  18.541  0.00  0.00    +0.000 C 
ATOM     10  C   UNL     1      -2.964  12.043  18.804  0.00  0.00    +0.000 C 
ATOM     11  C   UNL     1      -3.575  10.983  17.867  0.00  0.00    +0.000 C 
ATOM     12  C   UNL     1      -4.938  10.526  18.391  0.00  0.00    +0.000 C 
ATOM     13  C   UNL     1      -2.658   9.764  17.692  0.00  0.00    +0.000 C 
ATOM     14  C   UNL     1      -1.222  10.168  17.401  0.00  0.00    +0.000 C 
ENDBRANCH   5   6
BRANCH   3  15
ATOM     15  C   UNL     1       3.162   6.726  17.860  0.00  0.00    +0.000 A 
ATOM     16  C   UNL     1       2.807   5.381  17.961  0.00  0.00    +0.000 A 
ATOM     17  C   UNL     1       3.630   4.394  17.405  0.00  0.00    +0.000 A 
ATOM     18  C   UNL     1       4.794   4.735  16.717  0.00  0.00    +0.000 A 
ATOM     19  C   UNL     1       5.149   6.077  16.597  0.00  0.00    +0.000 A 
ATOM     20  C   UNL     1       4.332   7.063  17.160  0.00  0.00    +0.000 A 
BRANCH  18  21
ATOM     21  O   UNL     1       5.530   3.681  16.249  0.00  0.00    +0.000 OA
ATOM     22  C   UNL     1       6.176   3.885  14.997  0.00  0.00    +0.000 C 
ENDBRANCH  18  21
ENDBRANCH   3  15
BRANCH   1  24
ATOM     23  C   UNL     1      -0.404   8.624  21.899  0.00  0.00    +0.000 C 
ATOM     24  C   UNL     1       0.920   9.240  21.453  0.00  0.00    +0.000 C 
ENDBRANCH   1  24
TORSDOF 4
ENDMDL
MODEL 3
REMARK VINA RESULT:      -7.0      1.231      1.595
REMARK  Name = 
REMARK  7 active torsions:
REMARK  status: ('A' for Active; 'I' for Inactive)
REMARK    1  A    between atoms: C_1  and  C_2
REMARK    2  A    between atoms: C_2  and  N_3
REMARK    3  A    between atoms: C_5  and  C_6
REMARK    4  A    between atoms: C_9  and  O_10
REMARK    5  A    between atoms: O_10  and  C_11
REMARK    6  A    between atoms: C_15  and  C_16
REMARK    7  A    between atoms: C_21  and  C_22
REMARK                            x       y       z     vdW  Elec       q    Type
REMARK                         _______ _______ _______ _____ _____    ______ ____
ROOT
ATOM      1  N   UNL     1       0.452   8.690  20.776  0.00  0.00    +0.000 N 
ATOM      2  C   UNL     1       1.166   7.562  20.454  0.00  0.00    +0.000 A 
ATOM      3  C   UNL     1       2.001   7.846  19.399  0.00  0.00    +0.000 A 
ATOM      4  C   UNL     1       1.629   9.143  18.951  0.00  0.00    +0.000 A 
ATOM      5  C   UNL     1       0.697   9.680  19.841  0.00  0.00    +0.000 A 
ENDROOT
BRANCH   5   6
ATOM      6  C   UNL     1       0.059  10.990  19.819  0.00  0.00    +0.000 C 
ATOM      7  O   UNL     1       0.522  11.939  20.443  0.00  0.00    +0.000 OA
ATOM      8  N   UNL     1      -1.120  11.116  19.067  0.00  0.00    +0.000 N 
ATOM      9  C   UNL     1      -1.904  12.340  19.152  0.00  0.00    +0.000 C 
ATOM     10  C   UNL     1      -3.404  12.041  19.064  0.00  0.00    +0.000 C 
ATOM     11  C   UNL     1      -3.781  11.100  17.905  0.00  0.00    +0.000 C 
ATOM     12  C   UNL     1      -5.213  10.587  18.074  0.00  0.00    +0.000 C 
ATOM     13  C   UNL     1      -2.820   9.907  17.788  0.00  0.00    +0.000 C 
ATOM     14  C   UNL     1      -1.365  10.340  17.854  0.00  0.00    +0.000 C 
ENDBRANCH   5   6
BRANCH   3  15
ATOM     15  C   UNL     1       3.004   6.909  18.918  0.00  0.00    +0.000 A 
ATOM     16  C   UNL     1       3.341   5.775  19.656  0.00  0.00    +0.000 A 
ATOM     17  C   UNL     1       4.336   4.907  19.193  0.00  0.00    +0.000 A 
ATOM     18  C   UNL     1       4.982   5.138  17.979  0.00  0.00    +0.000 A 
ATOM     19  C   UNL     1       4.641   6.261  17.226  0.00  0.00    +0.000 A 
ATOM     20  C   UNL     1       3.653   7.133  17.693  0.00  0.00    +0.000 A 
BRANCH  18  21
ATOM     21  O   UNL     1       5.958   4.237  17.651  0.00  0.00    +0.000 OA
ATOM     22  C   UNL     1       7.293   4.729  17.690  0.00  0.00    +0.000 C 
ENDBRANCH  18  21
ENDBRANCH   3  15
BRANCH   1  24
ATOM     23  C   UNL     1       0.483   9.459  23.139  0.00  0.00    +0.000 C 
ATOM     24  C   UNL     1      -0.320   8.830  22.003  0.00  0.00    +0.000 C 
ENDBRANCH   1  24
TORSDOF 4
ENDMDL
MODEL 4
REMARK VINA RESULT:      -7.0      1.851      2.918
REMARK  Name = 
REMARK  7 active torsions:
REMARK  status: ('A' for Active; 'I' for Inactive)
REMARK    1  A    between atoms: C_1  and  C_2
REMARK    2  A    between atoms: C_2  and  N_3
REMARK    3  A    between atoms: C_5  and  C_6
REMARK    4  A    between atoms: C_9  and  O_10
REMARK    5  A    between atoms: O_10  and  C_11
REMARK    6  A    between atoms: C_15  and  C_16
REMARK    7  A    between atoms: C_21  and  C_22
REMARK                            x       y       z     vdW  Elec       q    Type
REMARK                         _______ _______ _______ _____ _____    ______ ____
ROOT
ATOM      1  N   UNL     1       2.048   5.597  19.670  0.00  0.00    +0.000 N 
ATOM      2  C   UNL     1       2.669   4.907  18.657  0.00  0.00    +0.000 A 
ATOM      3  C   UNL     1       3.469   5.772  17.951  0.00  0.00    +0.000 A 
ATOM      4  C   UNL     1       3.164   7.071  18.442  0.00  0.00    +0.000 A 
ATOM      5  C   UNL     1       2.313   6.950  19.542  0.00  0.00    +0.000 A 
ENDROOT
BRANCH   5   6
ATOM      6  C   UNL     1       1.765   7.997  20.394  0.00  0.00    +0.000 C 
ATOM      7  O   UNL     1       1.921   7.982  21.611  0.00  0.00    +0.000 OA
ATOM      8  N   UNL     1       1.031   9.015  19.765  0.00  0.00    +0.000 N 
ATOM      9  C   UNL     1       0.302   9.985  20.571  0.00  0.00    +0.000 C 
ATOM     10  C   UNL     1      -1.013  10.385  19.897  0.00  0.00    +0.000 C 
ATOM     11  C   UNL     1      -0.860  10.752  18.409  0.00  0.00    +0.000 C 
ATOM     12  C   UNL     1      -2.229  10.815  17.728  0.00  0.00    +0.000 C 
ATOM     13  C   UNL     1       0.041   9.763  17.656  0.00  0.00    +0.000 C 
ATOM     14  C   UNL     1       1.329   9.477  18.412  0.00  0.00    +0.000 C 
ENDBRANCH   5   6
BRANCH   3  15
ATOM     15  C   UNL     1       4.383   5.323  16.912  0.00  0.00    +0.000 A 
ATOM     16  C   UNL     1       5.016   6.236  16.068  0.00  0.00    +0.000 A 
ATOM     17  C   UNL     1       5.863   5.780  15.051  0.00  0.00    +0.000 A 
ATOM     18  C   UNL     1       6.113   4.418  14.882  0.00  0.00    +0.000 A 
ATOM     19  C   UNL     1       5.497   3.499  15.730  0.00  0.00    +0.000 A 
ATOM     20  C   UNL     1       4.645   3.954  16.741  0.00  0.00    +0.000 A 
BRANCH  18  21
ATOM     21  O   UNL     1       6.931   4.096  13.834  0.00  0.00    +0.000 OA
ATOM     22  C   UNL     1       6.281   3.576  12.678  0.00  0.00    +0.000 C 
ENDBRANCH  18  21
ENDBRANCH   3  15
BRANCH   1  24
ATOM     23  C   UNL     1       2.077   3.721  21.299  0.00  0.00    +0.000 C 
ATOM     24  C   UNL     1       1.346   4.953  20.771  0.00  0.00    +0.000 C 
ENDBRANCH   1  24
TORSDOF 4
ENDMDL
MODEL 5
REMARK VINA RESULT:      -6.9      1.926      3.254
REMARK  Name = 
REMARK  7 active torsions:
REMARK  status: ('A' for Active; 'I' for Inactive)
REMARK    1  A    between atoms: C_1  and  C_2
REMARK    2  A    between atoms: C_2  and  N_3
REMARK    3  A    between atoms: C_5  and  C_6
REMARK    4  A    between atoms: C_9  and  O_10
REMARK    5  A    between atoms: O_10  and  C_11
REMARK    6  A    between atoms: C_15  and  C_16
REMARK    7  A    between atoms: C_21  and  C_22
REMARK                            x       y       z     vdW  Elec       q    Type
REMARK                         _______ _______ _______ _____ _____    ______ ____
ROOT
ATOM      1  N   UNL     1       1.107   9.058  20.538  0.00  0.00    +0.000 N 
ATOM      2  C   UNL     1       1.824   7.956  20.143  0.00  0.00    +0.000 A 
ATOM      3  C   UNL     1       2.047   8.029  18.789  0.00  0.00    +0.000 A 
ATOM      4  C   UNL     1       1.264   9.121  18.326  0.00  0.00    +0.000 A 
ATOM      5  C   UNL     1       0.718   9.785  19.426  0.00  0.00    +0.000 A 
ENDROOT
BRANCH   5   6
ATOM      6  C   UNL     1      -0.118  10.978  19.453  0.00  0.00    +0.000 C 
ATOM      7  O   UNL     1      -1.343  10.904  19.442  0.00  0.00    +0.000 OA
ATOM      8  N   UNL     1       0.538  12.219  19.472  0.00  0.00    +0.000 N 
ATOM      9  C   UNL     1      -0.230  13.446  19.312  0.00  0.00    +0.000 C 
ATOM     10  C   UNL     1       0.557  14.489  18.515  0.00  0.00    +0.000 C 
ATOM     11  C   UNL     1       2.005  14.681  19.005  0.00  0.00    +0.000 C 
ATOM     12  C   UNL     1       2.818  15.473  17.979  0.00  0.00    +0.000 C 
ATOM     13  C   UNL     1       2.704  13.344  19.292  0.00  0.00    +0.000 C 
ATOM     14  C   UNL     1       1.833  12.413  20.119  0.00  0.00    +0.000 C 
ENDBRANCH   5   6
BRANCH   3  15
ATOM     15  C   UNL     1       2.912   7.095  18.085  0.00  0.00    +0.000 A 
ATOM     16  C   UNL     1       2.687   5.720  18.147  0.00  0.00    +0.000 A 
ATOM     17  C   UNL     1       3.555   4.837  17.493  0.00  0.00    +0.000 A 
ATOM     18  C   UNL     1       4.633   5.311  16.747  0.00  0.00    +0.000 A 
ATOM     19  C   UNL     1       4.857   6.685  16.666  0.00  0.00    +0.000 A 
ATOM     20  C   UNL     1       3.996   7.566  17.326  0.00  0.00    +0.000 A 
BRANCH  18  21
ATOM     21  O   UNL     1       5.426   4.350  16.183  0.00  0.00    +0.000 OA
ATOM     22  C   UNL     1       5.666   4.486  14.786  0.00  0.00    +0.000 C 
ENDBRANCH  18  21
ENDBRANCH   3  15
BRANCH   1  24
ATOM     23  C   UNL     1      -0.429   9.022  22.492  0.00  0.00    +0.000 C 
ATOM     24  C   UNL     1       0.926   9.445  21.931  0.00  0.00    +0.000 C 
ENDBRANCH   1  24
TORSDOF 4
ENDMDL
MODEL 6
REMARK VINA RESULT:      -6.9      1.809      2.949
REMARK  Name = 
REMARK  7 active torsions:
REMARK  status: ('A' for Active; 'I' for Inactive)
REMARK    1  A    between atoms: C_1  and  C_2
REMARK    2  A    between atoms: C_2  and  N_3
REMARK    3  A    between atoms: C_5  and  C_6
REMARK    4  A    between atoms: C_9  and  O_10
REMARK    5  A    between atoms: O_10  and  C_11
REMARK    6  A    between atoms: C_15  and  C_16
REMARK    7  A    between atoms: C_21  and  C_22
REMARK                            x       y       z     vdW  Elec       q    Type
REMARK                         _______ _______ _______ _____ _____    ______ ____
ROOT
ATOM      1  N   UNL     1       2.032   5.739  19.759  0.00  0.00    +0.000 N 
ATOM      2  C   UNL     1       2.643   5.059  18.734  0.00  0.00    +0.000 A 
ATOM      3  C   UNL     1       3.397   5.942  17.998  0.00  0.00    +0.000 A 
ATOM      4  C   UNL     1       3.068   7.234  18.490  0.00  0.00    +0.000 A 
ATOM      5  C   UNL     1       2.253   7.097  19.615  0.00  0.00    +0.000 A 
ENDROOT
BRANCH   5   6
ATOM      6  C   UNL     1       1.699   8.134  20.475  0.00  0.00    +0.000 C 
ATOM      7  O   UNL     1       1.868   8.118  21.691  0.00  0.00    +0.000 OA
ATOM      8  N   UNL     1       0.945   9.144  19.857  0.00  0.00    +0.000 N 
ATOM      9  C   UNL     1       0.211  10.102  20.673  0.00  0.00    +0.000 C 
ATOM     10  C   UNL     1      -1.116  10.485  20.013  0.00  0.00    +0.000 C 
ATOM     11  C   UNL     1      -0.984  10.858  18.525  0.00  0.00    +0.000 C 
ATOM     12  C   UNL     1      -2.360  10.904  17.858  0.00  0.00    +0.000 C 
ATOM     13  C   UNL     1      -0.076   9.884  17.760  0.00  0.00    +0.000 C 
ATOM     14  C   UNL     1       1.223   9.613  18.501  0.00  0.00    +0.000 C 
ENDBRANCH   5   6
BRANCH   3  15
ATOM     15  C   UNL     1       4.294   5.512  16.937  0.00  0.00    +0.000 A 
ATOM     16  C   UNL     1       4.513   4.158  16.685  0.00  0.00    +0.000 A 
ATOM     17  C   UNL     1       5.409   3.767  15.684  0.00  0.00    +0.000 A 
ATOM     18  C   UNL     1       6.071   4.714  14.903  0.00  0.00    +0.000 A 
ATOM     19  C   UNL     1       5.847   6.070  15.136  0.00  0.00    +0.000 A 
ATOM     20  C   UNL     1       4.958   6.461  16.142  0.00  0.00    +0.000 A 
BRANCH  18  21
ATOM     21  O   UNL     1       6.945   4.208  13.980  0.00  0.00    +0.000 OA
ATOM     22  C   UNL     1       6.355   3.630  12.820  0.00  0.00    +0.000 C 
ENDBRANCH  18  21
ENDBRANCH   3  15
BRANCH   1  24
ATOM     23  C   UNL     1       1.182   3.586  20.663  0.00  0.00    +0.000 C 
ATOM     24  C   UNL     1       1.381   5.083  20.884  0.00  0.00    +0.000 C 
ENDBRANCH   1  24
TORSDOF 4
ENDMDL
MODEL 7
REMARK VINA RESULT:      -6.9      1.128      1.152
REMARK  Name = 
REMARK  7 active torsions:
REMARK  status: ('A' for Active; 'I' for Inactive)
REMARK    1  A    between atoms: C_1  and  C_2
REMARK    2  A    between atoms: C_2  and  N_3
REMARK    3  A    between atoms: C_5  and  C_6
REMARK    4  A    between atoms: C_9  and  O_10
REMARK    5  A    between atoms: O_10  and  C_11
REMARK    6  A    between atoms: C_15  and  C_16
REMARK    7  A    between atoms: C_21  and  C_22
REMARK                            x       y       z     vdW  Elec       q    Type
REMARK                         _______ _______ _______ _____ _____    ______ ____
ROOT
ATOM      1  N   UNL     1       0.777   9.291  20.003  0.00  0.00    +0.000 N 
ATOM      2  C   UNL     1       1.516   8.140  19.873  0.00  0.00    +0.000 A 
ATOM      3  C   UNL     1       2.159   8.157  18.659  0.00  0.00    +0.000 A 
ATOM      4  C   UNL     1       1.629   9.272  17.955  0.00  0.00    +0.000 A 
ATOM      5  C   UNL     1       0.804   9.999  18.815  0.00  0.00    +0.000 A 
ENDROOT
BRANCH   5   6
ATOM      6  C   UNL     1       0.075  11.235  18.557  0.00  0.00    +0.000 C 
ATOM      7  O   UNL     1       0.588  12.334  18.744  0.00  0.00    +0.000 OA
ATOM      8  N   UNL     1      -1.248  11.115  18.104  0.00  0.00    +0.000 N 
ATOM      9  C   UNL     1      -2.089  12.300  18.006  0.00  0.00    +0.000 C 
ATOM     10  C   UNL     1      -3.542  11.977  18.368  0.00  0.00    +0.000 C 
ATOM     11  C   UNL     1      -4.092  10.722  17.665  0.00  0.00    +0.000 C 
ATOM     12  C   UNL     1      -5.404  10.275  18.313  0.00  0.00    +0.000 C 
ATOM     13  C   UNL     1      -3.089   9.559  17.682  0.00  0.00    +0.000 C 
ATOM     14  C   UNL     1      -1.695  10.002  17.270  0.00  0.00    +0.000 C 
ENDBRANCH   5   6
BRANCH   3  15
ATOM     15  C   UNL     1       3.145   7.156  18.280  0.00  0.00    +0.000 A 
ATOM     16  C   UNL     1       3.875   7.277  17.098  0.00  0.00    +0.000 A 
ATOM     17  C   UNL     1       4.791   6.284  16.735  0.00  0.00    +0.000 A 
ATOM     18  C   UNL     1       5.015   5.179  17.555  0.00  0.00    +0.000 A 
ATOM     19  C   UNL     1       4.302   5.057  18.747  0.00  0.00    +0.000 A 
ATOM     20  C   UNL     1       3.380   6.045  19.106  0.00  0.00    +0.000 A 
BRANCH  18  21
ATOM     21  O   UNL     1       5.910   4.262  17.076  0.00  0.00    +0.000 OA
ATOM     22  C   UNL     1       7.284   4.576  17.272  0.00  0.00    +0.000 C 
ENDBRANCH  18  21
ENDBRANCH   3  15
BRANCH   1  24
ATOM     23  C   UNL     1       0.917   9.176  22.482  0.00  0.00    +0.000 C 
ATOM     24  C   UNL     1       0.189   9.732  21.261  0.00  0.00    +0.000 C 
ENDBRANCH   1  24
TORSDOF 4
ENDMDL
MODEL 8
REMARK VINA RESULT:      -6.9      2.450      8.081
REMARK  Name = 
REMARK  7 active torsions:
REMARK  status: ('A' for Active; 'I' for Inactive)
REMARK    1  A    between atoms: C_1  and  C_2
REMARK    2  A    between atoms: C_2  and  N_3
REMARK    3  A    between atoms: C_5  and  C_6
REMARK    4  A    between atoms: C_9  and  O_10
REMARK    5  A    between atoms: O_10  and  C_11
REMARK    6  A    between atoms: C_15  and  C_16
REMARK    7  A    between atoms: C_21  and  C_22
REMARK                            x       y       z     vdW  Elec       q    Type
REMARK                         _______ _______ _______ _____ _____    ______ ____
ROOT
ATOM      1  N   UNL     1       3.219   5.081  19.896  0.00  0.00    +0.000 N 
ATOM      2  C   UNL     1       2.183   5.965  20.069  0.00  0.00    +0.000 A 
ATOM      3  C   UNL     1       2.497   7.150  19.449  0.00  0.00    +0.000 A 
ATOM      4  C   UNL     1       3.857   7.032  19.055  0.00  0.00    +0.000 A 
ATOM      5  C   UNL     1       4.287   5.726  19.295  0.00  0.00    +0.000 A 
ENDROOT
BRANCH   5   6
ATOM      6  C   UNL     1       5.584   5.123  19.020  0.00  0.00    +0.000 C 
ATOM      7  O   UNL     1       6.462   5.069  19.875  0.00  0.00    +0.000 OA
ATOM      8  N   UNL     1       5.796   4.624  17.725  0.00  0.00    +0.000 N 
ATOM      9  C   UNL     1       7.126   4.180  17.329  0.00  0.00    +0.000 C 
ATOM     10  C   UNL     1       7.403   4.511  15.860  0.00  0.00    +0.000 C 
ATOM     11  C   UNL     1       6.265   4.101  14.907  0.00  0.00    +0.000 C 
ATOM     12  C   UNL     1       6.456   4.748  13.533  0.00  0.00    +0.000 C 
ATOM     13  C   UNL     1       4.881   4.472  15.460  0.00  0.00    +0.000 C 
ATOM     14  C   UNL     1       4.720   4.060  16.914  0.00  0.00    +0.000 C 
ENDBRANCH   5   6
BRANCH   3  15
ATOM     15  C   UNL     1       1.543   8.240  19.313  0.00  0.00    +0.000 A 
ATOM     16  C   UNL     1       1.288   8.821  18.071  0.00  0.00    +0.000 A 
ATOM     17  C   UNL     1       0.395   9.894  17.969  0.00  0.00    +0.000 A 
ATOM     18  C   UNL     1      -0.275  10.380  19.091  0.00  0.00    +0.000 A 
ATOM     19  C   UNL     1      -0.039   9.796  20.334  0.00  0.00    +0.000 A 
ATOM     20  C   UNL     1       0.860   8.729  20.438  0.00  0.00    +0.000 A 
BRANCH  18  21
ATOM     21  O   UNL     1      -1.096  11.451  18.869  0.00  0.00    +0.000 OA
ATOM     22  C   UNL     1      -1.882  11.394  17.683  0.00  0.00    +0.000 C 
ENDBRANCH  18  21
ENDBRANCH   3  15
BRANCH   1  24
ATOM     23  C   UNL     1       1.738   3.250  20.688  0.00  0.00    +0.000 C 
ATOM     24  C   UNL     1       3.120   3.656  20.182  0.00  0.00    +0.000 C 
ENDBRANCH   1  24
TORSDOF 4
ENDMDL
MODEL 9
REMARK VINA RESULT:      -6.9      2.479      8.135
REMARK  Name = 
REMARK  7 active torsions:
REMARK  status: ('A' for Active; 'I' for Inactive)
REMARK    1  A    between atoms: C_1  and  C_2
REMARK    2  A    between atoms: C_2  and  N_3
REMARK    3  A    between atoms: C_5  and  C_6
REMARK    4  A    between atoms: C_9  and  O_10
REMARK    5  A    between atoms: O_10  and  C_11
REMARK    6  A    between atoms: C_15  and  C_16
REMARK    7  A    between atoms: C_21  and  C_22
REMARK                            x       y       z     vdW  Elec       q    Type
REMARK                         _______ _______ _______ _____ _____    ______ ____
ROOT
ATOM      1  N   UNL     1       3.234   5.065  19.878  0.00  0.00    +0.000 N 
ATOM      2  C   UNL     1       2.195   5.942  20.068  0.00  0.00    +0.000 A 
ATOM      3  C   UNL     1       2.514   7.147  19.490  0.00  0.00    +0.000 A 
ATOM      4  C   UNL     1       3.879   7.042  19.107  0.00  0.00    +0.000 A 
ATOM      5  C   UNL     1       4.307   5.729  19.310  0.00  0.00    +0.000 A 
ENDROOT
BRANCH   5   6
ATOM      6  C   UNL     1       5.608   5.136  19.029  0.00  0.00    +0.000 C 
ATOM      7  O   UNL     1       6.493   5.098  19.878  0.00  0.00    +0.000 OA
ATOM      8  N   UNL     1       5.814   4.628  17.737  0.00  0.00    +0.000 N 
ATOM      9  C   UNL     1       7.145   4.193  17.335  0.00  0.00    +0.000 C 
ATOM     10  C   UNL     1       7.408   4.513  15.860  0.00  0.00    +0.000 C 
ATOM     11  C   UNL     1       6.266   4.084  14.920  0.00  0.00    +0.000 C 
ATOM     12  C   UNL     1       6.439   4.720  13.539  0.00  0.00    +0.000 C 
ATOM     13  C   UNL     1       4.883   4.447  15.481  0.00  0.00    +0.000 C 
ATOM     14  C   UNL     1       4.737   4.046  16.940  0.00  0.00    +0.000 C 
ENDBRANCH   5   6
BRANCH   3  15
ATOM     15  C   UNL     1       1.562   8.241  19.378  0.00  0.00    +0.000 A 
ATOM     16  C   UNL     1       0.886   8.722  20.499  0.00  0.00    +0.000 A 
ATOM     17  C   UNL     1      -0.055   9.749  20.363  0.00  0.00    +0.000 A 
ATOM     18  C   UNL     1      -0.309  10.330  19.121  0.00  0.00    +0.000 A 
ATOM     19  C   UNL     1       0.373   9.867  17.997  0.00  0.00    +0.000 A 
ATOM     20  C   UNL     1       1.307   8.834  18.131  0.00  0.00    +0.000 A 
BRANCH  18  21
ATOM     21  O   UNL     1      -1.272  11.302  19.111  0.00  0.00    +0.000 OA
ATOM     22  C   UNL     1      -2.198  11.246  18.031  0.00  0.00    +0.000 C 
ENDBRANCH  18  21
ENDBRANCH   3  15
BRANCH   1  24
ATOM     23  C   UNL     1       2.236   3.293  21.307  0.00  0.00    +0.000 C 
ATOM     24  C   UNL     1       3.132   3.632  20.118  0.00  0.00    +0.000 C 
ENDBRANCH   1  24
TORSDOF 4
ENDMDL
