MODEL 1
REMARK VINA RESULT:      -9.6      0.000      0.000
REMARK  Name = 
REMARK  9 active torsions:
REMARK  status: ('A' for Active; 'I' for Inactive)
REMARK    1  A    between atoms: C_1  and  C_2
REMARK    2  A    between atoms: C_2  and  C_3
REMARK    3  A    between atoms: C_2  and  C_4
REMARK    4  A    between atoms: C_4  and  C_5
REMARK    5  A    between atoms: C_8  and  C_9
REMARK    6  A    between atoms: C_9  and  C_10
REMARK    7  A    between atoms: C_9  and  C_11
REMARK    8  A    between atoms: N_19  and  C_20
REMARK    9  A    between atoms: C_20  and  C_21
REMARK                            x       y       z     vdW  Elec       q    Type
REMARK                         _______ _______ _______ _____ _____    ______ ____
ROOT
ATOM      1  C   UNL     1       5.170   4.647  18.678  0.00  0.00    +0.000 A 
ATOM      2  N   UNL     1       5.019   3.586  19.455  0.00  0.00    +0.000 NA
ATOM      3  C   UNL     1       3.681   3.354  19.542  0.00  0.00    +0.000 A 
ATOM      4  C   UNL     1       3.011   2.279  20.146  0.00  0.00    +0.000 A 
ATOM      5  C   UNL     1       1.625   2.183  20.004  0.00  0.00    +0.000 A 
ATOM      6  C   UNL     1       0.923   3.135  19.266  0.00  0.00    +0.000 A 
ATOM      7  C   UNL     1       1.576   4.232  18.684  0.00  0.00    +0.000 A 
ATOM      8  C   UNL     1       2.967   4.330  18.859  0.00  0.00    +0.000 A 
ATOM      9  N   UNL     1       3.935   5.244  18.452  0.00  0.00    +0.000 N 
ENDROOT
BRANCH   1  10
ATOM     10  C   UNL     1       6.486   5.011  18.016  0.00  0.00    +0.000 C 
ATOM     11  C   UNL     1       6.673   6.546  18.103  0.00  0.00    +0.000 C 
BRANCH  10  15
ATOM     12  C   UNL     1       6.402   4.146  13.748  0.00  0.00    +0.000 A 
ATOM     13  C   UNL     1       7.329   5.067  14.260  0.00  0.00    +0.000 A 
ATOM     14  C   UNL     1       7.403   5.317  15.640  0.00  0.00    +0.000 A 
ATOM     15  C   UNL     1       6.562   4.638  16.535  0.00  0.00    +0.000 A 
ATOM     16  C   UNL     1       5.671   3.686  16.012  0.00  0.00    +0.000 A 
ATOM     17  C   UNL     1       5.583   3.456  14.646  0.00  0.00    +0.000 A 
BRANCH  12  18
ATOM     18  C   UNL     1       6.287   3.834  12.281  0.00  0.00    +0.000 C 
BRANCH  18  20
ATOM     19  C   UNL     1       4.121   3.142  11.105  0.00  0.00    +0.000 C 
ATOM     20  C   UNL     1       5.302   2.691  11.972  0.00  0.00    +0.000 C 
ATOM     21  C   UNL     1       6.034   1.548  11.262  0.00  0.00    +0.000 C 
ENDBRANCH  18  20
ENDBRANCH  12  18
ENDBRANCH  10  15
ENDBRANCH   1  10
BRANCH   9  22
ATOM     22  C   UNL     1       3.626   6.437  17.666  0.00  0.00    +0.000 C 
BRANCH  22  23
ATOM     23  C   UNL     1       2.735   7.513  18.254  0.00  0.00    +0.000 A 
ATOM     24  C   UNL     1       2.241   8.639  17.584  0.00  0.00    +0.000 A 
ATOM     25  C   UNL     1       1.414   9.557  18.253  0.00  0.00    +0.000 A 
ATOM     26  C   UNL     1       1.079   9.372  19.596  0.00  0.00    +0.000 A 
ATOM     27  C   UNL     1       1.575   8.272  20.282  0.00  0.00    +0.000 A 
ATOM     28  C   UNL     1       2.392   7.357  19.616  0.00  0.00    +0.000 A 
ENDBRANCH  22  23
ENDBRANCH   9  22
TORSDOF 6
ENDMDL
MODEL 2
REMARK VINA RESULT:      -9.5      0.454      1.015
REMARK  Name = 
REMARK  9 active torsions:
REMARK  status: ('A' for Active; 'I' for Inactive)
REMARK    1  A    between atoms: C_1  and  C_2
REMARK    2  A    between atoms: C_2  and  C_3
REMARK    3  A    between atoms: C_2  and  C_4
REMARK    4  A    between atoms: C_4  and  C_5
REMARK    5  A    between atoms: C_8  and  C_9
REMARK    6  A    between atoms: C_9  and  C_10
REMARK    7  A    between atoms: C_9  and  C_11
REMARK    8  A    between atoms: N_19  and  C_20
REMARK    9  A    between atoms: C_20  and  C_21
REMARK                            x       y       z     vdW  Elec       q    Type
REMARK                         _______ _______ _______ _____ _____    ______ ____
ROOT
ATOM      1  C   UNL     1       5.021   5.072  18.566  0.00  0.00    +0.000 A 
ATOM      2  N   UNL     1       5.084   3.993  19.329  0.00  0.00    +0.000 NA
ATOM      3  C   UNL     1       3.802   3.595  19.551  0.00  0.00    +0.000 A 
ATOM      4  C   UNL     1       3.336   2.440  20.196  0.00  0.00    +0.000 A 
ATOM      5  C   UNL     1       1.965   2.174  20.197  0.00  0.00    +0.000 A 
ATOM      6  C   UNL     1       1.078   3.040  19.558  0.00  0.00    +0.000 A 
ATOM      7  C   UNL     1       1.526   4.215  18.937  0.00  0.00    +0.000 A 
ATOM      8  C   UNL     1       2.905   4.482  18.968  0.00  0.00    +0.000 A 
ATOM      9  N   UNL     1       3.705   5.513  18.483  0.00  0.00    +0.000 N 
ENDROOT
BRANCH   1  10
ATOM     10  C   UNL     1       6.205   5.603  17.779  0.00  0.00    +0.000 C 
ATOM     11  C   UNL     1       6.031   7.131  17.598  0.00  0.00    +0.000 C 
BRANCH  10  15
ATOM     12  C   UNL     1       6.396   4.174  13.668  0.00  0.00    +0.000 A 
ATOM     13  C   UNL     1       7.518   4.780  14.254  0.00  0.00    +0.000 A 
ATOM     14  C   UNL     1       7.488   5.198  15.594  0.00  0.00    +0.000 A 
ATOM     15  C   UNL     1       6.340   5.002  16.378  0.00  0.00    +0.000 A 
ATOM     16  C   UNL     1       5.241   4.354  15.791  0.00  0.00    +0.000 A 
ATOM     17  C   UNL     1       5.263   3.962  14.459  0.00  0.00    +0.000 A 
BRANCH  12  18
ATOM     18  C   UNL     1       6.377   3.700  12.241  0.00  0.00    +0.000 C 
BRANCH  18  20
ATOM     19  C   UNL     1       4.120   3.158  11.161  0.00  0.00    +0.000 C 
ATOM     20  C   UNL     1       5.310   2.623  11.966  0.00  0.00    +0.000 C 
ATOM     21  C   UNL     1       5.937   1.448  11.209  0.00  0.00    +0.000 C 
ENDBRANCH  18  20
ENDBRANCH  12  18
ENDBRANCH  10  15
ENDBRANCH   1  10
BRANCH   9  22
ATOM     22  C   UNL     1       3.172   6.667  17.762  0.00  0.00    +0.000 C 
BRANCH  22  23
ATOM     23  C   UNL     1       2.377   7.718  18.511  0.00  0.00    +0.000 A 
ATOM     24  C   UNL     1       2.028   7.684  19.866  0.00  0.00    +0.000 A 
ATOM     25  C   UNL     1       1.292   8.737  20.436  0.00  0.00    +0.000 A 
ATOM     26  C   UNL     1       0.886   9.827  19.663  0.00  0.00    +0.000 A 
ATOM     27  C   UNL     1       1.207   9.869  18.314  0.00  0.00    +0.000 A 
ATOM     28  C   UNL     1       1.943   8.826  17.749  0.00  0.00    +0.000 A 
ENDBRANCH  22  23
ENDBRANCH   9  22
TORSDOF 6
ENDMDL
MODEL 3
REMARK VINA RESULT:      -9.3      0.991      3.864
REMARK  Name = 
REMARK  9 active torsions:
REMARK  status: ('A' for Active; 'I' for Inactive)
REMARK    1  A    between atoms: C_1  and  C_2
REMARK    2  A    between atoms: C_2  and  C_3
REMARK    3  A    between atoms: C_2  and  C_4
REMARK    4  A    between atoms: C_4  and  C_5
REMARK    5  A    between atoms: C_8  and  C_9
REMARK    6  A    between atoms: C_9  and  C_10
REMARK    7  A    between atoms: C_9  and  C_11
REMARK    8  A    between atoms: N_19  and  C_20
REMARK    9  A    between atoms: C_20  and  C_21
REMARK                            x       y       z     vdW  Elec       q    Type
REMARK                         _______ _______ _______ _____ _____    ______ ____
ROOT
ATOM      1  C   UNL     1       4.806   6.478  17.694  0.00  0.00    +0.000 A 
ATOM      2  N   UNL     1       4.302   7.544  17.093  0.00  0.00    +0.000 NA
ATOM      3  C   UNL     1       3.225   7.935  17.827  0.00  0.00    +0.000 A 
ATOM      4  C   UNL     1       2.426   9.078  17.679  0.00  0.00    +0.000 A 
ATOM      5  C   UNL     1       1.441   9.340  18.635  0.00  0.00    +0.000 A 
ATOM      6  C   UNL     1       1.266   8.484  19.721  0.00  0.00    +0.000 A 
ATOM      7  C   UNL     1       2.036   7.321  19.863  0.00  0.00    +0.000 A 
ATOM      8  C   UNL     1       3.004   7.056  18.880  0.00  0.00    +0.000 A 
ATOM      9  N   UNL     1       3.929   6.035  18.678  0.00  0.00    +0.000 N 
ENDROOT
BRANCH   1  10
ATOM     10  C   UNL     1       6.209   5.963  17.434  0.00  0.00    +0.000 C 
ATOM     11  C   UNL     1       7.180   7.169  17.414  0.00  0.00    +0.000 C 
BRANCH  10  15
ATOM     12  C   UNL     1       6.439   4.160  13.475  0.00  0.00    +0.000 A 
ATOM     13  C   UNL     1       7.509   4.927  13.961  0.00  0.00    +0.000 A 
ATOM     14  C   UNL     1       7.471   5.470  15.255  0.00  0.00    +0.000 A 
ATOM     15  C   UNL     1       6.368   5.243  16.093  0.00  0.00    +0.000 A 
ATOM     16  C   UNL     1       5.326   4.436  15.609  0.00  0.00    +0.000 A 
ATOM     17  C   UNL     1       5.354   3.918  14.322  0.00  0.00    +0.000 A 
BRANCH  12  18
ATOM     18  C   UNL     1       6.432   3.548  12.101  0.00  0.00    +0.000 C 
BRANCH  18  20
ATOM     19  C   UNL     1       4.134   3.130  11.053  0.00  0.00    +0.000 C 
ATOM     20  C   UNL     1       5.283   2.545  11.882  0.00  0.00    +0.000 C 
ATOM     21  C   UNL     1       5.813   1.288  11.184  0.00  0.00    +0.000 C 
ENDBRANCH  18  20
ENDBRANCH  12  18
ENDBRANCH  10  15
ENDBRANCH   1  10
BRANCH   9  22
ATOM     22  C   UNL     1       4.067   4.893  19.579  0.00  0.00    +0.000 C 
BRANCH  22  23
ATOM     23  C   UNL     1       2.953   3.868  19.668  0.00  0.00    +0.000 A 
ATOM     24  C   UNL     1       2.411   3.138  18.604  0.00  0.00    +0.000 A 
ATOM     25  C   UNL     1       1.382   2.209  18.832  0.00  0.00    +0.000 A 
ATOM     26  C   UNL     1       0.873   2.006  20.116  0.00  0.00    +0.000 A 
ATOM     27  C   UNL     1       1.384   2.735  21.181  0.00  0.00    +0.000 A 
ATOM     28  C   UNL     1       2.411   3.653  20.955  0.00  0.00    +0.000 A 
ENDBRANCH  22  23
ENDBRANCH   9  22
TORSDOF 6
ENDMDL
MODEL 4
REMARK VINA RESULT:      -9.2      1.079      4.310
REMARK  Name = 
REMARK  9 active torsions:
REMARK  status: ('A' for Active; 'I' for Inactive)
REMARK    1  A    between atoms: C_1  and  C_2
REMARK    2  A    between atoms: C_2  and  C_3
REMARK    3  A    between atoms: C_2  and  C_4
REMARK    4  A    between atoms: C_4  and  C_5
REMARK    5  A    between atoms: C_8  and  C_9
REMARK    6  A    between atoms: C_9  and  C_10
REMARK    7  A    between atoms: C_9  and  C_11
REMARK    8  A    between atoms: N_19  and  C_20
REMARK    9  A    between atoms: C_20  and  C_21
REMARK                            x       y       z     vdW  Elec       q    Type
REMARK                         _______ _______ _______ _____ _____    ______ ____
ROOT
ATOM      1  C   UNL     1       4.355   6.411  17.985  0.00  0.00    +0.000 A 
ATOM      2  N   UNL     1       4.081   7.488  17.267  0.00  0.00    +0.000 NA
ATOM      3  C   UNL     1       3.030   8.105  17.873  0.00  0.00    +0.000 A 
ATOM      4  C   UNL     1       2.444   9.343  17.573  0.00  0.00    +0.000 A 
ATOM      5  C   UNL     1       1.446   9.838  18.416  0.00  0.00    +0.000 A 
ATOM      6  C   UNL     1       1.050   9.116  19.541  0.00  0.00    +0.000 A 
ATOM      7  C   UNL     1       1.605   7.862  19.835  0.00  0.00    +0.000 A 
ATOM      8  C   UNL     1       2.588   7.365  18.962  0.00  0.00    +0.000 A 
ATOM      9  N   UNL     1       3.345   6.198  18.917  0.00  0.00    +0.000 N 
ENDROOT
BRANCH   1  10
ATOM     10  C   UNL     1       5.671   5.660  17.888  0.00  0.00    +0.000 C 
ATOM     11  C   UNL     1       6.824   6.647  18.195  0.00  0.00    +0.000 C 
BRANCH  10  15
ATOM     12  C   UNL     1       6.225   4.217  13.816  0.00  0.00    +0.000 A 
ATOM     13  C   UNL     1       7.204   5.024  14.414  0.00  0.00    +0.000 A 
ATOM     14  C   UNL     1       7.064   5.453  15.744  0.00  0.00    +0.000 A 
ATOM     15  C   UNL     1       5.948   5.069  16.505  0.00  0.00    +0.000 A 
ATOM     16  C   UNL     1       4.999   4.225  15.906  0.00  0.00    +0.000 A 
ATOM     17  C   UNL     1       5.127   3.820  14.584  0.00  0.00    +0.000 A 
BRANCH  12  18
ATOM     18  C   UNL     1       6.329   3.722  12.399  0.00  0.00    +0.000 C 
BRANCH  18  20
ATOM     19  C   UNL     1       4.136   3.246  11.168  0.00  0.00    +0.000 C 
ATOM     20  C   UNL     1       5.262   2.672  12.035  0.00  0.00    +0.000 C 
ATOM     21  C   UNL     1       5.914   1.500  11.296  0.00  0.00    +0.000 C 
ENDBRANCH  18  20
ENDBRANCH  12  18
ENDBRANCH  10  15
ENDBRANCH   1  10
BRANCH   9  22
ATOM     22  C   UNL     1       3.225   5.129  19.906  0.00  0.00    +0.000 C 
BRANCH  22  23
ATOM     23  C   UNL     1       3.439   3.688  19.485  0.00  0.00    +0.000 A 
ATOM     24  C   UNL     1       4.381   2.800  20.016  0.00  0.00    +0.000 A 
ATOM     25  C   UNL     1       4.464   1.482  19.534  0.00  0.00    +0.000 A 
ATOM     26  C   UNL     1       3.621   1.039  18.513  0.00  0.00    +0.000 A 
ATOM     27  C   UNL     1       2.694   1.911  17.961  0.00  0.00    +0.000 A 
ATOM     28  C   UNL     1       2.607   3.218  18.444  0.00  0.00    +0.000 A 
ENDBRANCH  22  23
ENDBRANCH   9  22
TORSDOF 6
ENDMDL
MODEL 5
REMARK VINA RESULT:      -9.1      0.979      4.145
REMARK  Name = 
REMARK  9 active torsions:
REMARK  status: ('A' for Active; 'I' for Inactive)
REMARK    1  A    between atoms: C_1  and  C_2
REMARK    2  A    between atoms: C_2  and  C_3
REMARK    3  A    between atoms: C_2  and  C_4
REMARK    4  A    between atoms: C_4  and  C_5
REMARK    5  A    between atoms: C_8  and  C_9
REMARK    6  A    between atoms: C_9  and  C_10
REMARK    7  A    between atoms: C_9  and  C_11
REMARK    8  A    between atoms: N_19  and  C_20
REMARK    9  A    between atoms: C_20  and  C_21
REMARK                            x       y       z     vdW  Elec       q    Type
REMARK                         _______ _______ _______ _____ _____    ______ ____
ROOT
ATOM      1  C   UNL     1       4.346   6.449  17.943  0.00  0.00    +0.000 A 
ATOM      2  N   UNL     1       4.080   7.524  17.219  0.00  0.00    +0.000 NA
ATOM      3  C   UNL     1       3.038   8.156  17.826  0.00  0.00    +0.000 A 
ATOM      4  C   UNL     1       2.463   9.399  17.521  0.00  0.00    +0.000 A 
ATOM      5  C   UNL     1       1.474   9.910  18.365  0.00  0.00    +0.000 A 
ATOM      6  C   UNL     1       1.076   9.199  19.496  0.00  0.00    +0.000 A 
ATOM      7  C   UNL     1       1.620   7.941  19.796  0.00  0.00    +0.000 A 
ATOM      8  C   UNL     1       2.594   7.429  18.922  0.00  0.00    +0.000 A 
ATOM      9  N   UNL     1       3.338   6.253  18.881  0.00  0.00    +0.000 N 
ENDROOT
BRANCH   1  10
ATOM     10  C   UNL     1       5.653   5.684  17.845  0.00  0.00    +0.000 C 
ATOM     11  C   UNL     1       6.819   6.663  18.128  0.00  0.00    +0.000 C 
BRANCH  10  15
ATOM     12  C   UNL     1       6.191   4.208  13.782  0.00  0.00    +0.000 A 
ATOM     13  C   UNL     1       7.237   4.885  14.427  0.00  0.00    +0.000 A 
ATOM     14  C   UNL     1       7.096   5.321  15.755  0.00  0.00    +0.000 A 
ATOM     15  C   UNL     1       5.912   5.072  16.467  0.00  0.00    +0.000 A 
ATOM     16  C   UNL     1       4.892   4.352  15.823  0.00  0.00    +0.000 A 
ATOM     17  C   UNL     1       5.023   3.942  14.503  0.00  0.00    +0.000 A 
BRANCH  12  18
ATOM     18  C   UNL     1       6.291   3.712  12.366  0.00  0.00    +0.000 C 
BRANCH  18  20
ATOM     19  C   UNL     1       4.119   3.199  11.113  0.00  0.00    +0.000 C 
ATOM     20  C   UNL     1       5.234   2.650  12.010  0.00  0.00    +0.000 C 
ATOM     21  C   UNL     1       5.901   1.463  11.308  0.00  0.00    +0.000 C 
ENDBRANCH  18  20
ENDBRANCH  12  18
ENDBRANCH  10  15
ENDBRANCH   1  10
BRANCH   9  22
ATOM     22  C   UNL     1       3.212   5.192  19.878  0.00  0.00    +0.000 C 
BRANCH  22  23
ATOM     23  C   UNL     1       2.548   3.882  19.500  0.00  0.00    +0.000 A 
ATOM     24  C   UNL     1       1.184   3.585  19.601  0.00  0.00    +0.000 A 
ATOM     25  C   UNL     1       0.700   2.326  19.204  0.00  0.00    +0.000 A 
ATOM     26  C   UNL     1       1.568   1.348  18.716  0.00  0.00    +0.000 A 
ATOM     27  C   UNL     1       2.926   1.617  18.627  0.00  0.00    +0.000 A 
ATOM     28  C   UNL     1       3.406   2.870  19.015  0.00  0.00    +0.000 A 
ENDBRANCH  22  23
ENDBRANCH   9  22
TORSDOF 6
ENDMDL
MODEL 6
REMARK VINA RESULT:      -9.0      2.452      5.200
REMARK  Name = 
REMARK  9 active torsions:
REMARK  status: ('A' for Active; 'I' for Inactive)
REMARK    1  A    between atoms: C_1  and  C_2
REMARK    2  A    between atoms: C_2  and  C_3
REMARK    3  A    between atoms: C_2  and  C_4
REMARK    4  A    between atoms: C_4  and  C_5
REMARK    5  A    between atoms: C_8  and  C_9
REMARK    6  A    between atoms: C_9  and  C_10
REMARK    7  A    between atoms: C_9  and  C_11
REMARK    8  A    between atoms: N_19  and  C_20
REMARK    9  A    between atoms: C_20  and  C_21
REMARK                            x       y       z     vdW  Elec       q    Type
REMARK                         _______ _______ _______ _____ _____    ______ ____
ROOT
ATOM      1  C   UNL     1       5.041   4.942  17.692  0.00  0.00    +0.000 A 
ATOM      2  N   UNL     1       5.101   3.744  18.252  0.00  0.00    +0.000 NA
ATOM      3  C   UNL     1       3.823   3.390  18.556  0.00  0.00    +0.000 A 
ATOM      4  C   UNL     1       3.341   2.169  19.051  0.00  0.00    +0.000 A 
ATOM      5  C   UNL     1       1.961   1.988  19.172  0.00  0.00    +0.000 A 
ATOM      6  C   UNL     1       1.081   3.001  18.797  0.00  0.00    +0.000 A 
ATOM      7  C   UNL     1       1.550   4.239  18.331  0.00  0.00    +0.000 A 
ATOM      8  C   UNL     1       2.941   4.415  18.241  0.00  0.00    +0.000 A 
ATOM      9  N   UNL     1       3.762   5.467  17.842  0.00  0.00    +0.000 N 
ENDROOT
BRANCH   1  10
ATOM     10  C   UNL     1       6.171   5.532  16.869  0.00  0.00    +0.000 C 
ATOM     11  C   UNL     1       7.239   4.434  16.641  0.00  0.00    +0.000 C 
BRANCH  10  15
ATOM     12  C   UNL     1       8.489   8.787  18.602  0.00  0.00    +0.000 A 
ATOM     13  C   UNL     1       7.562   9.051  17.582  0.00  0.00    +0.000 A 
ATOM     14  C   UNL     1       6.771   8.020  17.051  0.00  0.00    +0.000 A 
ATOM     15  C   UNL     1       6.880   6.709  17.541  0.00  0.00    +0.000 A 
ATOM     16  C   UNL     1       7.780   6.470  18.593  0.00  0.00    +0.000 A 
ATOM     17  C   UNL     1       8.579   7.485  19.102  0.00  0.00    +0.000 A 
BRANCH  12  18
ATOM     18  C   UNL     1       9.356   9.854  19.213  0.00  0.00    +0.000 C 
BRANCH  18  20
ATOM     19  C   UNL     1       9.086  12.394  19.386  0.00  0.00    +0.000 C 
ATOM     20  C   UNL     1       9.306  11.195  18.456  0.00  0.00    +0.000 C 
ATOM     21  C   UNL     1      10.606  11.402  17.674  0.00  0.00    +0.000 C 
ENDBRANCH  18  20
ENDBRANCH  12  18
ENDBRANCH  10  15
ENDBRANCH   1  10
BRANCH   9  22
ATOM     22  C   UNL     1       3.245   6.757  17.392  0.00  0.00    +0.000 C 
BRANCH  22  23
ATOM     23  C   UNL     1       2.458   7.627  18.353  0.00  0.00    +0.000 A 
ATOM     24  C   UNL     1       2.254   7.382  19.716  0.00  0.00    +0.000 A 
ATOM     25  C   UNL     1       1.506   8.281  20.495  0.00  0.00    +0.000 A 
ATOM     26  C   UNL     1       0.946   9.426  19.925  0.00  0.00    +0.000 A 
ATOM     27  C   UNL     1       1.122   9.677  18.572  0.00  0.00    +0.000 A 
ATOM     28  C   UNL     1       1.870   8.786  17.799  0.00  0.00    +0.000 A 
ENDBRANCH  22  23
ENDBRANCH   9  22
TORSDOF 6
ENDMDL
MODEL 7
REMARK VINA RESULT:      -9.0      1.136      4.106
REMARK  Name = 
REMARK  9 active torsions:
REMARK  status: ('A' for Active; 'I' for Inactive)
REMARK    1  A    between atoms: C_1  and  C_2
REMARK    2  A    between atoms: C_2  and  C_3
REMARK    3  A    between atoms: C_2  and  C_4
REMARK    4  A    between atoms: C_4  and  C_5
REMARK    5  A    between atoms: C_8  and  C_9
REMARK    6  A    between atoms: C_9  and  C_10
REMARK    7  A    between atoms: C_9  and  C_11
REMARK    8  A    between atoms: N_19  and  C_20
REMARK    9  A    between atoms: C_20  and  C_21
REMARK                            x       y       z     vdW  Elec       q    Type
REMARK                         _______ _______ _______ _____ _____    ______ ____
ROOT
ATOM      1  C   UNL     1       4.384   6.722  17.751  0.00  0.00    +0.000 A 
ATOM      2  N   UNL     1       3.895   7.774  17.113  0.00  0.00    +0.000 NA
ATOM      3  C   UNL     1       2.875   8.253  17.875  0.00  0.00    +0.000 A 
ATOM      4  C   UNL     1       2.118   9.421  17.699  0.00  0.00    +0.000 A 
ATOM      5  C   UNL     1       1.195   9.781  18.684  0.00  0.00    +0.000 A 
ATOM      6  C   UNL     1       1.040   8.996  19.827  0.00  0.00    +0.000 A 
ATOM      7  C   UNL     1       1.767   7.809  20.000  0.00  0.00    +0.000 A 
ATOM      8  C   UNL     1       2.671   7.447  18.987  0.00  0.00    +0.000 A 
ATOM      9  N   UNL     1       3.541   6.375  18.800  0.00  0.00    +0.000 N 
ENDROOT
BRANCH   1  10
ATOM     10  C   UNL     1       5.750   6.131  17.453  0.00  0.00    +0.000 C 
ATOM     11  C   UNL     1       6.790   7.278  17.438  0.00  0.00    +0.000 C 
BRANCH  10  15
ATOM     12  C   UNL     1       6.327   4.001  13.697  0.00  0.00    +0.000 A 
ATOM     13  C   UNL     1       5.415   3.516  14.646  0.00  0.00    +0.000 A 
ATOM     14  C   UNL     1       5.180   4.220  15.838  0.00  0.00    +0.000 A 
ATOM     15  C   UNL     1       5.841   5.431  16.095  0.00  0.00    +0.000 A 
ATOM     16  C   UNL     1       6.717   5.927  15.115  0.00  0.00    +0.000 A 
ATOM     17  C   UNL     1       6.966   5.219  13.947  0.00  0.00    +0.000 A 
BRANCH  12  18
ATOM     18  C   UNL     1       6.610   3.293  12.400  0.00  0.00    +0.000 C 
BRANCH  18  20
ATOM     19  C   UNL     1       4.370   3.143  11.171  0.00  0.00    +0.000 C 
ATOM     20  C   UNL     1       5.459   2.381  11.934  0.00  0.00    +0.000 C 
ATOM     21  C   UNL     1       6.007   1.265  11.040  0.00  0.00    +0.000 C 
ENDBRANCH  18  20
ENDBRANCH  12  18
ENDBRANCH  10  15
ENDBRANCH   1  10
BRANCH   9  22
ATOM     22  C   UNL     1       3.678   5.281  19.760  0.00  0.00    +0.000 C 
BRANCH  22  23
ATOM     23  C   UNL     1       2.759   4.079  19.663  0.00  0.00    +0.000 A 
ATOM     24  C   UNL     1       2.704   3.160  18.608  0.00  0.00    +0.000 A 
ATOM     25  C   UNL     1       1.805   2.081  18.653  0.00  0.00    +0.000 A 
ATOM     26  C   UNL     1       0.944   1.912  19.739  0.00  0.00    +0.000 A 
ATOM     27  C   UNL     1       0.970   2.824  20.785  0.00  0.00    +0.000 A 
ATOM     28  C   UNL     1       1.868   3.892  20.743  0.00  0.00    +0.000 A 
ENDBRANCH  22  23
ENDBRANCH   9  22
TORSDOF 6
ENDMDL
MODEL 8
REMARK VINA RESULT:      -8.8      2.463      5.219
REMARK  Name = 
REMARK  9 active torsions:
REMARK  status: ('A' for Active; 'I' for Inactive)
REMARK    1  A    between atoms: C_1  and  C_2
REMARK    2  A    between atoms: C_2  and  C_3
REMARK    3  A    between atoms: C_2  and  C_4
REMARK    4  A    between atoms: C_4  and  C_5
REMARK    5  A    between atoms: C_8  and  C_9
REMARK    6  A    between atoms: C_9  and  C_10
REMARK    7  A    between atoms: C_9  and  C_11
REMARK    8  A    between atoms: N_19  and  C_20
REMARK    9  A    between atoms: C_20  and  C_21
REMARK                            x       y       z     vdW  Elec       q    Type
REMARK                         _______ _______ _______ _____ _____    ______ ____
ROOT
ATOM      1  C   UNL     1       5.160   5.142  18.110  0.00  0.00    +0.000 A 
ATOM      2  N   UNL     1       5.340   4.086  18.887  0.00  0.00    +0.000 NA
ATOM      3  C   UNL     1       4.115   3.745  19.373  0.00  0.00    +0.000 A 
ATOM      4  C   UNL     1       3.750   2.629  20.140  0.00  0.00    +0.000 A 
ATOM      5  C   UNL     1       2.399   2.416  20.423  0.00  0.00    +0.000 A 
ATOM      6  C   UNL     1       1.430   3.295  19.938  0.00  0.00    +0.000 A 
ATOM      7  C   UNL     1       1.783   4.432  19.197  0.00  0.00    +0.000 A 
ATOM      8  C   UNL     1       3.148   4.647  18.944  0.00  0.00    +0.000 A 
ATOM      9  N   UNL     1       3.869   5.631  18.272  0.00  0.00    +0.000 N 
ENDROOT
BRANCH   1  10
ATOM     10  C   UNL     1       6.181   5.602  17.086  0.00  0.00    +0.000 C 
ATOM     11  C   UNL     1       7.085   4.400  16.718  0.00  0.00    +0.000 C 
BRANCH  10  15
ATOM     12  C   UNL     1       8.523   8.909  18.684  0.00  0.00    +0.000 A 
ATOM     13  C   UNL     1       8.663   7.623  19.226  0.00  0.00    +0.000 A 
ATOM     14  C   UNL     1       7.954   6.537  18.687  0.00  0.00    +0.000 A 
ATOM     15  C   UNL     1       7.104   6.716  17.585  0.00  0.00    +0.000 A 
ATOM     16  C   UNL     1       7.009   8.001  17.025  0.00  0.00    +0.000 A 
ATOM     17  C   UNL     1       7.693   9.078  17.572  0.00  0.00    +0.000 A 
BRANCH  12  18
ATOM     18  C   UNL     1       9.265  10.104  19.216  0.00  0.00    +0.000 C 
BRANCH  18  20
ATOM     19  C   UNL     1       8.886  12.597  18.773  0.00  0.00    +0.000 C 
ATOM     20  C   UNL     1       9.375  11.260  18.203  0.00  0.00    +0.000 C 
ATOM     21  C   UNL     1      10.827  11.415  17.743  0.00  0.00    +0.000 C 
ENDBRANCH  18  20
ENDBRANCH  12  18
ENDBRANCH  10  15
ENDBRANCH   1  10
BRANCH   9  22
ATOM     22  C   UNL     1       3.239   6.781  17.627  0.00  0.00    +0.000 C 
BRANCH  22  23
ATOM     23  C   UNL     1       2.412   7.746  18.454  0.00  0.00    +0.000 A 
ATOM     24  C   UNL     1       2.188   7.674  19.833  0.00  0.00    +0.000 A 
ATOM     25  C   UNL     1       1.404   8.647  20.477  0.00  0.00    +0.000 A 
ATOM     26  C   UNL     1       0.825   9.691  19.754  0.00  0.00    +0.000 A 
ATOM     27  C   UNL     1       1.019   9.768  18.382  0.00  0.00    +0.000 A 
ATOM     28  C   UNL     1       1.804   8.805  17.744  0.00  0.00    +0.000 A 
ENDBRANCH  22  23
ENDBRANCH   9  22
TORSDOF 6
ENDMDL
MODEL 9
REMARK VINA RESULT:      -8.7      0.526      1.404
REMARK  Name = 
REMARK  9 active torsions:
REMARK  status: ('A' for Active; 'I' for Inactive)
REMARK    1  A    between atoms: C_1  and  C_2
REMARK    2  A    between atoms: C_2  and  C_3
REMARK    3  A    between atoms: C_2  and  C_4
REMARK    4  A    between atoms: C_4  and  C_5
REMARK    5  A    between atoms: C_8  and  C_9
REMARK    6  A    between atoms: C_9  and  C_10
REMARK    7  A    between atoms: C_9  and  C_11
REMARK    8  A    between atoms: N_19  and  C_20
REMARK    9  A    between atoms: C_20  and  C_21
REMARK                            x       y       z     vdW  Elec       q    Type
REMARK                         _______ _______ _______ _____ _____    ______ ____
ROOT
ATOM      1  C   UNL     1       5.138   4.713  18.595  0.00  0.00    +0.000 A 
ATOM      2  N   UNL     1       5.074   3.634  19.358  0.00  0.00    +0.000 NA
ATOM      3  C   UNL     1       3.753   3.388  19.577  0.00  0.00    +0.000 A 
ATOM      4  C   UNL     1       3.156   2.295  20.221  0.00  0.00    +0.000 A 
ATOM      5  C   UNL     1       1.763   2.190  20.220  0.00  0.00    +0.000 A 
ATOM      6  C   UNL     1       0.983   3.152  19.579  0.00  0.00    +0.000 A 
ATOM      7  C   UNL     1       1.566   4.267  18.959  0.00  0.00    +0.000 A 
ATOM      8  C   UNL     1       2.967   4.372  18.992  0.00  0.00    +0.000 A 
ATOM      9  N   UNL     1       3.882   5.304  18.509  0.00  0.00    +0.000 N 
ENDROOT
BRANCH   1  10
ATOM     10  C   UNL     1       6.377   5.103  17.810  0.00  0.00    +0.000 C 
ATOM     11  C   UNL     1       6.620   6.621  17.995  0.00  0.00    +0.000 C 
BRANCH  10  15
ATOM     12  C   UNL     1       6.281   4.104  13.571  0.00  0.00    +0.000 A 
ATOM     13  C   UNL     1       5.186   3.793  14.391  0.00  0.00    +0.000 A 
ATOM     14  C   UNL     1       5.181   4.155  15.748  0.00  0.00    +0.000 A 
ATOM     15  C   UNL     1       6.265   4.851  16.306  0.00  0.00    +0.000 A 
ATOM     16  C   UNL     1       7.334   5.196  15.461  0.00  0.00    +0.000 A 
ATOM     17  C   UNL     1       7.348   4.817  14.126  0.00  0.00    +0.000 A 
BRANCH  12  18
ATOM     18  C   UNL     1       6.335   3.748  12.111  0.00  0.00    +0.000 C 
BRANCH  18  20
ATOM     19  C   UNL     1       5.222   1.669  11.116  0.00  0.00    +0.000 C 
ATOM     20  C   UNL     1       6.443   2.233  11.852  0.00  0.00    +0.000 C 
ATOM     21  C   UNL     1       7.702   1.932  11.034  0.00  0.00    +0.000 C 
ENDBRANCH  18  20
ENDBRANCH  12  18
ENDBRANCH  10  15
ENDBRANCH   1  10
BRANCH   9  22
ATOM     22  C   UNL     1       3.487   6.511  17.786  0.00  0.00    +0.000 C 
BRANCH  22  23
ATOM     23  C   UNL     1       2.603   7.538  18.467  0.00  0.00    +0.000 A 
ATOM     24  C   UNL     1       2.213   7.536  19.811  0.00  0.00    +0.000 A 
ATOM     25  C   UNL     1       1.393   8.560  20.315  0.00  0.00    +0.000 A 
ATOM     26  C   UNL     1       0.943   9.588  19.485  0.00  0.00    +0.000 A 
ATOM     27  C   UNL     1       1.303   9.597  18.144  0.00  0.00    +0.000 A 
ATOM     28  C   UNL     1       2.123   8.583  17.646  0.00  0.00    +0.000 A 
ENDBRANCH  22  23
ENDBRANCH   9  22
TORSDOF 6
ENDMDL
