MODEL 1
REMARK VINA RESULT:      -8.0      0.000      0.000
REMARK  Name = 
REMARK  7 active torsions:
REMARK  status: ('A' for Active; 'I' for Inactive)
REMARK    1  A    between atoms: C_1  and  O_2
REMARK    2  A    between atoms: O_2  and  C_3
REMARK    3  A    between atoms: C_6  and  N_7
REMARK    4  A    between atoms: C_8  and  C_10
REMARK    5  A    between atoms: C_13  and  C_14
REMARK    6  A    between atoms: C_23  and  O_24
REMARK    7  A    between atoms: O_24  and  C_25
REMARK                            x       y       z     vdW  Elec       q    Type
REMARK                         _______ _______ _______ _____ _____    ______ ____
ROOT
ATOM      1  N   UNL     1       7.522   8.487  17.558  0.00  0.00    +0.000 N 
ATOM      2  C   UNL     1       7.606   7.182  18.012  0.00  0.00    +0.000 C 
ATOM      3  O   UNL     1       8.330   6.793  18.927  0.00  0.00    +0.000 OA
ATOM      4  H   UNL     1       6.919   8.633  16.756  0.00  0.00    +0.000 HD
ENDROOT
BRANCH   1   8
ATOM      5  C   UNL     1       9.717  11.875  18.852  0.00  0.00    +0.000 A 
ATOM      6  C   UNL     1       9.880  10.641  19.492  0.00  0.00    +0.000 A 
ATOM      7  C   UNL     1       9.161   9.517  19.084  0.00  0.00    +0.000 A 
ATOM      8  C   UNL     1       8.233   9.602  18.053  0.00  0.00    +0.000 A 
ATOM      9  C   UNL     1       7.992  10.860  17.482  0.00  0.00    +0.000 A 
ATOM     10  C   UNL     1       8.722  12.002  17.872  0.00  0.00    +0.000 A 
BRANCH   5  12
ATOM     11  C   UNL     1      11.708  13.079  18.432  0.00  0.00    +0.000 C 
ATOM     12  O   UNL     1      10.502  12.946  19.186  0.00  0.00    +0.000 OA
ENDBRANCH   5  12
BRANCH  10  13
ATOM     13  O   UNL     1       8.343  13.123  17.177  0.00  0.00    +0.000 OA
ATOM     14  C   UNL     1       7.418  14.022  17.773  0.00  0.00    +0.000 C 
ENDBRANCH  10  13
ENDBRANCH   1   8
BRANCH   2  15
ATOM     15  C   UNL     1       6.751   6.248  17.305  0.00  0.00    +0.000 A 
ATOM     16  C   UNL     1       6.886   5.710  16.041  0.00  0.00    +0.000 A 
ATOM     17  C   UNL     1       5.798   4.832  15.855  0.00  0.00    +0.000 A 
ATOM     18  C   UNL     1       5.051   4.872  17.015  0.00  0.00    +0.000 A 
ATOM     19  O   UNL     1       5.625   5.747  17.900  0.00  0.00    +0.000 OA
BRANCH  18  20
ATOM     20  C   UNL     1       3.848   4.177  17.470  0.00  0.00    +0.000 A 
ATOM     21  C   UNL     1       2.679   4.901  17.764  0.00  0.00    +0.000 A 
ATOM     22  C   UNL     1       1.511   4.243  18.157  0.00  0.00    +0.000 A 
ATOM     23  C   UNL     1       1.506   2.859  18.263  0.00  0.00    +0.000 A 
ATOM     24  F   UNL     1       0.382   2.227  18.625  0.00  0.00    +0.000 F 
ATOM     25  C   UNL     1       2.650   2.121  17.993  0.00  0.00    +0.000 A 
ATOM     26  C   UNL     1       3.819   2.780  17.600  0.00  0.00    +0.000 A 
ENDBRANCH  18  20
ENDBRANCH   2  15
TORSDOF 5
ENDMDL
MODEL 2
REMARK VINA RESULT:      -7.9      0.482      1.099
REMARK  Name = 
REMARK  7 active torsions:
REMARK  status: ('A' for Active; 'I' for Inactive)
REMARK    1  A    between atoms: C_1  and  O_2
REMARK    2  A    between atoms: O_2  and  C_3
REMARK    3  A    between atoms: C_6  and  N_7
REMARK    4  A    between atoms: C_8  and  C_10
REMARK    5  A    between atoms: C_13  and  C_14
REMARK    6  A    between atoms: C_23  and  O_24
REMARK    7  A    between atoms: O_24  and  C_25
REMARK                            x       y       z     vdW  Elec       q    Type
REMARK                         _______ _______ _______ _____ _____    ______ ____
ROOT
ATOM      1  N   UNL     1       7.544   8.472  17.569  0.00  0.00    +0.000 N 
ATOM      2  C   UNL     1       7.626   7.161  18.008  0.00  0.00    +0.000 C 
ATOM      3  O   UNL     1       8.351   6.761  18.917  0.00  0.00    +0.000 OA
ATOM      4  H   UNL     1       6.939   8.628  16.770  0.00  0.00    +0.000 HD
ENDROOT
BRANCH   1   8
ATOM      5  C   UNL     1       9.751  11.839  18.896  0.00  0.00    +0.000 A 
ATOM      6  C   UNL     1       9.900  10.601  19.531  0.00  0.00    +0.000 A 
ATOM      7  C   UNL     1       9.177   9.484  19.113  0.00  0.00    +0.000 A 
ATOM      8  C   UNL     1       8.258   9.580  18.074  0.00  0.00    +0.000 A 
ATOM      9  C   UNL     1       8.031  10.842  17.507  0.00  0.00    +0.000 A 
ATOM     10  C   UNL     1       8.765  11.977  17.908  0.00  0.00    +0.000 A 
BRANCH   5  12
ATOM     11  C   UNL     1      10.077  13.671  20.354  0.00  0.00    +0.000 C 
ATOM     12  O   UNL     1      10.540  12.904  19.241  0.00  0.00    +0.000 OA
ENDBRANCH   5  12
BRANCH  10  13
ATOM     13  O   UNL     1       8.399  13.104  17.215  0.00  0.00    +0.000 OA
ATOM     14  C   UNL     1       7.250  13.827  17.634  0.00  0.00    +0.000 C 
ENDBRANCH  10  13
ENDBRANCH   1   8
BRANCH   2  15
ATOM     15  C   UNL     1       6.768   6.238  17.293  0.00  0.00    +0.000 A 
ATOM     16  C   UNL     1       6.916   5.686  16.036  0.00  0.00    +0.000 A 
ATOM     17  C   UNL     1       5.816   4.827  15.836  0.00  0.00    +0.000 A 
ATOM     18  C   UNL     1       5.048   4.890  16.982  0.00  0.00    +0.000 A 
ATOM     19  O   UNL     1       5.621   5.762  17.871  0.00  0.00    +0.000 OA
BRANCH  18  20
ATOM     20  C   UNL     1       3.825   4.221  17.419  0.00  0.00    +0.000 A 
ATOM     21  C   UNL     1       3.788   2.820  17.541  0.00  0.00    +0.000 A 
ATOM     22  C   UNL     1       2.639   2.172  18.000  0.00  0.00    +0.000 A 
ATOM     23  C   UNL     1       1.518   2.920  18.335  0.00  0.00    +0.000 A 
ATOM     24  F   UNL     1       0.422   2.300  18.790  0.00  0.00    +0.000 F 
ATOM     25  C   UNL     1       1.523   4.302  18.211  0.00  0.00    +0.000 A 
ATOM     26  C   UNL     1       2.672   4.950  17.752  0.00  0.00    +0.000 A 
ENDBRANCH  18  20
ENDBRANCH   2  15
TORSDOF 5
ENDMDL
MODEL 3
REMARK VINA RESULT:      -7.9      5.703      8.264
REMARK  Name = 
REMARK  7 active torsions:
REMARK  status: ('A' for Active; 'I' for Inactive)
REMARK    1  A    between atoms: C_1  and  O_2
REMARK    2  A    between atoms: O_2  and  C_3
REMARK    3  A    between atoms: C_6  and  N_7
REMARK    4  A    between atoms: C_8  and  C_10
REMARK    5  A    between atoms: C_13  and  C_14
REMARK    6  A    between atoms: C_23  and  O_24
REMARK    7  A    between atoms: O_24  and  C_25
REMARK                            x       y       z     vdW  Elec       q    Type
REMARK                         _______ _______ _______ _____ _____    ______ ____
ROOT
ATOM      1  N   UNL     1       3.278   6.613  18.674  0.00  0.00    +0.000 N 
ATOM      2  C   UNL     1       2.568   7.766  18.383  0.00  0.00    +0.000 C 
ATOM      3  O   UNL     1       2.622   8.385  17.323  0.00  0.00    +0.000 OA
ATOM      4  H   UNL     1       3.165   6.256  19.617  0.00  0.00    +0.000 HD
ENDROOT
BRANCH   1   8
ATOM      5  C   UNL     1       5.995   4.753  16.005  0.00  0.00    +0.000 A 
ATOM      6  C   UNL     1       4.782   4.133  16.323  0.00  0.00    +0.000 A 
ATOM      7  C   UNL     1       3.878   4.727  17.205  0.00  0.00    +0.000 A 
ATOM      8  C   UNL     1       4.177   5.937  17.822  0.00  0.00    +0.000 A 
ATOM      9  C   UNL     1       5.436   6.506  17.585  0.00  0.00    +0.000 A 
ATOM     10  C   UNL     1       6.354   5.927  16.685  0.00  0.00    +0.000 A 
BRANCH   5  12
ATOM     11  C   UNL     1       6.224   3.957  13.790  0.00  0.00    +0.000 C 
ATOM     12  O   UNL     1       6.828   4.218  15.059  0.00  0.00    +0.000 OA
ENDBRANCH   5  12
BRANCH  10  13
ATOM     13  O   UNL     1       7.514   6.652  16.587  0.00  0.00    +0.000 OA
ATOM     14  C   UNL     1       7.712   7.756  17.458  0.00  0.00    +0.000 C 
ENDBRANCH  10  13
ENDBRANCH   1   8
BRANCH   2  15
ATOM     15  C   UNL     1       1.717   8.231  19.461  0.00  0.00    +0.000 A 
ATOM     16  C   UNL     1       1.562   7.735  20.741  0.00  0.00    +0.000 A 
ATOM     17  C   UNL     1       0.636   8.576  21.393  0.00  0.00    +0.000 A 
ATOM     18  C   UNL     1       0.271   9.548  20.483  0.00  0.00    +0.000 A 
ATOM     19  O   UNL     1       0.921   9.332  19.296  0.00  0.00    +0.000 OA
BRANCH  18  20
ATOM     20  C   UNL     1      -0.604  10.717  20.547  0.00  0.00    +0.000 A 
ATOM     21  C   UNL     1      -1.244  11.187  19.386  0.00  0.00    +0.000 A 
ATOM     22  C   UNL     1      -2.117  12.277  19.443  0.00  0.00    +0.000 A 
ATOM     23  C   UNL     1      -2.351  12.905  20.659  0.00  0.00    +0.000 A 
ATOM     24  F   UNL     1      -3.199  13.939  20.716  0.00  0.00    +0.000 F 
ATOM     25  C   UNL     1      -1.721  12.470  21.817  0.00  0.00    +0.000 A 
ATOM     26  C   UNL     1      -0.849  11.380  21.760  0.00  0.00    +0.000 A 
ENDBRANCH  18  20
ENDBRANCH   2  15
TORSDOF 5
ENDMDL
MODEL 4
REMARK VINA RESULT:      -7.8      3.035      4.070
REMARK  Name = 
REMARK  7 active torsions:
REMARK  status: ('A' for Active; 'I' for Inactive)
REMARK    1  A    between atoms: C_1  and  O_2
REMARK    2  A    between atoms: O_2  and  C_3
REMARK    3  A    between atoms: C_6  and  N_7
REMARK    4  A    between atoms: C_8  and  C_10
REMARK    5  A    between atoms: C_13  and  C_14
REMARK    6  A    between atoms: C_23  and  O_24
REMARK    7  A    between atoms: O_24  and  C_25
REMARK                            x       y       z     vdW  Elec       q    Type
REMARK                         _______ _______ _______ _____ _____    ______ ____
ROOT
ATOM      1  N   UNL     1       9.130   9.213  19.155  0.00  0.00    +0.000 N 
ATOM      2  C   UNL     1       8.207   8.982  18.148  0.00  0.00    +0.000 C 
ATOM      3  O   UNL     1       7.663   9.850  17.470  0.00  0.00    +0.000 OA
ATOM      4  H   UNL     1       9.444   8.391  19.659  0.00  0.00    +0.000 HD
ENDROOT
BRANCH   1   8
ATOM      5  C   UNL     1      10.402  13.037  20.471  0.00  0.00    +0.000 A 
ATOM      6  C   UNL     1      10.870  12.515  19.259  0.00  0.00    +0.000 A 
ATOM      7  C   UNL     1      10.467  11.256  18.813  0.00  0.00    +0.000 A 
ATOM      8  C   UNL     1       9.619  10.467  19.582  0.00  0.00    +0.000 A 
ATOM      9  C   UNL     1       9.234  10.944  20.843  0.00  0.00    +0.000 A 
ATOM     10  C   UNL     1       9.619  12.221  21.301  0.00  0.00    +0.000 A 
BRANCH   5  12
ATOM     11  C   UNL     1       9.903  15.340  20.276  0.00  0.00    +0.000 C 
ATOM     12  O   UNL     1      10.716  14.315  20.851  0.00  0.00    +0.000 OA
ENDBRANCH   5  12
BRANCH  10  13
ATOM     13  O   UNL     1       9.122  12.498  22.549  0.00  0.00    +0.000 OA
ATOM     14  C   UNL     1       7.833  13.085  22.663  0.00  0.00    +0.000 C 
ENDBRANCH  10  13
ENDBRANCH   1   8
BRANCH   2  15
ATOM     15  C   UNL     1       7.899   7.582  17.933  0.00  0.00    +0.000 A 
ATOM     16  C   UNL     1       7.914   6.526  18.825  0.00  0.00    +0.000 A 
ATOM     17  C   UNL     1       7.499   5.384  18.109  0.00  0.00    +0.000 A 
ATOM     18  C   UNL     1       7.247   5.795  16.815  0.00  0.00    +0.000 A 
ATOM     19  O   UNL     1       7.502   7.136  16.701  0.00  0.00    +0.000 OA
BRANCH  18  20
ATOM     20  C   UNL     1       6.756   5.118  15.616  0.00  0.00    +0.000 A 
ATOM     21  C   UNL     1       7.456   5.234  14.401  0.00  0.00    +0.000 A 
ATOM     22  C   UNL     1       7.022   4.556  13.259  0.00  0.00    +0.000 A 
ATOM     23  C   UNL     1       5.883   3.764  13.323  0.00  0.00    +0.000 A 
ATOM     24  F   UNL     1       5.476   3.103  12.232  0.00  0.00    +0.000 F 
ATOM     25  C   UNL     1       5.166   3.645  14.505  0.00  0.00    +0.000 A 
ATOM     26  C   UNL     1       5.601   4.322  15.647  0.00  0.00    +0.000 A 
ENDBRANCH  18  20
ENDBRANCH   2  15
TORSDOF 5
ENDMDL
MODEL 5
REMARK VINA RESULT:      -7.8      5.701      8.207
REMARK  Name = 
REMARK  7 active torsions:
REMARK  status: ('A' for Active; 'I' for Inactive)
REMARK    1  A    between atoms: C_1  and  O_2
REMARK    2  A    between atoms: O_2  and  C_3
REMARK    3  A    between atoms: C_6  and  N_7
REMARK    4  A    between atoms: C_8  and  C_10
REMARK    5  A    between atoms: C_13  and  C_14
REMARK    6  A    between atoms: C_23  and  O_24
REMARK    7  A    between atoms: O_24  and  C_25
REMARK                            x       y       z     vdW  Elec       q    Type
REMARK                         _______ _______ _______ _____ _____    ______ ____
ROOT
ATOM      1  N   UNL     1       3.391   6.608  18.676  0.00  0.00    +0.000 N 
ATOM      2  C   UNL     1       2.578   7.702  18.431  0.00  0.00    +0.000 C 
ATOM      3  O   UNL     1       2.528   8.327  17.373  0.00  0.00    +0.000 OA
ATOM      4  H   UNL     1       3.356   6.240  19.620  0.00  0.00    +0.000 HD
ENDROOT
BRANCH   1   8
ATOM      5  C   UNL     1       6.128   4.988  15.874  0.00  0.00    +0.000 A 
ATOM      6  C   UNL     1       4.905   4.352  16.116  0.00  0.00    +0.000 A 
ATOM      7  C   UNL     1       3.995   4.867  17.039  0.00  0.00    +0.000 A 
ATOM      8  C   UNL     1       4.296   6.008  17.774  0.00  0.00    +0.000 A 
ATOM      9  C   UNL     1       5.563   6.585  17.609  0.00  0.00    +0.000 A 
ATOM     10  C   UNL     1       6.488   6.086  16.668  0.00  0.00    +0.000 A 
BRANCH   5  12
ATOM     11  C   UNL     1       6.327   3.927  13.770  0.00  0.00    +0.000 C 
ATOM     12  O   UNL     1       6.969   4.538  14.891  0.00  0.00    +0.000 OA
ENDBRANCH   5  12
BRANCH  10  13
ATOM     13  O   UNL     1       7.656   6.806  16.655  0.00  0.00    +0.000 OA
ATOM     14  C   UNL     1       7.769   7.950  17.490  0.00  0.00    +0.000 C 
ENDBRANCH  10  13
ENDBRANCH   1   8
BRANCH   2  15
ATOM     15  C   UNL     1       1.750   8.094  19.554  0.00  0.00    +0.000 A 
ATOM     16  C   UNL     1       1.537   7.455  20.760  0.00  0.00    +0.000 A 
ATOM     17  C   UNL     1       0.671   8.278  21.509  0.00  0.00    +0.000 A 
ATOM     18  C   UNL     1       0.396   9.383  20.727  0.00  0.00    +0.000 A 
ATOM     19  O   UNL     1       1.046   9.267  19.526  0.00  0.00    +0.000 OA
BRANCH  18  20
ATOM     20  C   UNL     1      -0.385  10.600  20.934  0.00  0.00    +0.000 A 
ATOM     21  C   UNL     1      -0.734  11.006  22.234  0.00  0.00    +0.000 A 
ATOM     22  C   UNL     1      -1.443  12.191  22.447  0.00  0.00    +0.000 A 
ATOM     23  C   UNL     1      -1.811  12.974  21.361  0.00  0.00    +0.000 A 
ATOM     24  F   UNL     1      -2.477  14.118  21.566  0.00  0.00    +0.000 F 
ATOM     25  C   UNL     1      -1.492  12.589  20.066  0.00  0.00    +0.000 A 
ATOM     26  C   UNL     1      -0.783  11.404  19.854  0.00  0.00    +0.000 A 
ENDBRANCH  18  20
ENDBRANCH   2  15
TORSDOF 5
ENDMDL
MODEL 6
REMARK VINA RESULT:      -7.7      5.224      8.180
REMARK  Name = 
REMARK  7 active torsions:
REMARK  status: ('A' for Active; 'I' for Inactive)
REMARK    1  A    between atoms: C_1  and  O_2
REMARK    2  A    between atoms: O_2  and  C_3
REMARK    3  A    between atoms: C_6  and  N_7
REMARK    4  A    between atoms: C_8  and  C_10
REMARK    5  A    between atoms: C_13  and  C_14
REMARK    6  A    between atoms: C_23  and  O_24
REMARK    7  A    between atoms: O_24  and  C_25
REMARK                            x       y       z     vdW  Elec       q    Type
REMARK                         _______ _______ _______ _____ _____    ______ ____
ROOT
ATOM      1  N   UNL     1       3.140   6.925  18.482  0.00  0.00    +0.000 N 
ATOM      2  C   UNL     1       2.543   6.616  19.693  0.00  0.00    +0.000 C 
ATOM      3  O   UNL     1       2.696   5.566  20.313  0.00  0.00    +0.000 OA
ATOM      4  H   UNL     1       2.865   7.811  18.072  0.00  0.00    +0.000 HD
ENDROOT
BRANCH   1   8
ATOM      5  C   UNL     1       5.832   4.638  16.138  0.00  0.00    +0.000 A 
ATOM      6  C   UNL     1       4.584   4.114  16.494  0.00  0.00    +0.000 A 
ATOM      7  C   UNL     1       3.688   4.849  17.270  0.00  0.00    +0.000 A 
ATOM      8  C   UNL     1       4.028   6.111  17.745  0.00  0.00    +0.000 A 
ATOM      9  C   UNL     1       5.317   6.593  17.478  0.00  0.00    +0.000 A 
ATOM     10  C   UNL     1       6.228   5.869  16.682  0.00  0.00    +0.000 A 
BRANCH   5  12
ATOM     11  C   UNL     1       6.413   4.160  13.897  0.00  0.00    +0.000 C 
ATOM     12  O   UNL     1       6.662   3.956  15.289  0.00  0.00    +0.000 OA
ENDBRANCH   5  12
BRANCH  10  13
ATOM     13  O   UNL     1       7.423   6.527  16.531  0.00  0.00    +0.000 OA
ATOM     14  C   UNL     1       7.761   7.559  17.446  0.00  0.00    +0.000 C 
ENDBRANCH  10  13
ENDBRANCH   1   8
BRANCH   2  15
ATOM     15  C   UNL     1       1.676   7.655  20.212  0.00  0.00    +0.000 A 
ATOM     16  C   UNL     1       0.966   7.704  21.396  0.00  0.00    +0.000 A 
ATOM     17  C   UNL     1       0.310   8.953  21.426  0.00  0.00    +0.000 A 
ATOM     18  C   UNL     1       0.652   9.609  20.260  0.00  0.00    +0.000 A 
ATOM     19  O   UNL     1       1.477   8.814  19.510  0.00  0.00    +0.000 OA
BRANCH  18  20
ATOM     20  C   UNL     1       0.344  10.930  19.716  0.00  0.00    +0.000 A 
ATOM     21  C   UNL     1       1.176  12.027  20.006  0.00  0.00    +0.000 A 
ATOM     22  C   UNL     1       0.917  13.285  19.455  0.00  0.00    +0.000 A 
ATOM     23  C   UNL     1      -0.176  13.455  18.617  0.00  0.00    +0.000 A 
ATOM     24  F   UNL     1      -0.415  14.656  18.076  0.00  0.00    +0.000 F 
ATOM     25  C   UNL     1      -1.021  12.392  18.325  0.00  0.00    +0.000 A 
ATOM     26  C   UNL     1      -0.762  11.135  18.876  0.00  0.00    +0.000 A 
ENDBRANCH  18  20
ENDBRANCH   2  15
TORSDOF 5
ENDMDL
MODEL 7
REMARK VINA RESULT:      -7.7      5.616      8.251
REMARK  Name = 
REMARK  7 active torsions:
REMARK  status: ('A' for Active; 'I' for Inactive)
REMARK    1  A    between atoms: C_1  and  O_2
REMARK    2  A    between atoms: O_2  and  C_3
REMARK    3  A    between atoms: C_6  and  N_7
REMARK    4  A    between atoms: C_8  and  C_10
REMARK    5  A    between atoms: C_13  and  C_14
REMARK    6  A    between atoms: C_23  and  O_24
REMARK    7  A    between atoms: O_24  and  C_25
REMARK                            x       y       z     vdW  Elec       q    Type
REMARK                         _______ _______ _______ _____ _____    ______ ____
ROOT
ATOM      1  N   UNL     1       3.441   6.495  18.806  0.00  0.00    +0.000 N 
ATOM      2  C   UNL     1       2.601   7.576  18.595  0.00  0.00    +0.000 C 
ATOM      3  O   UNL     1       2.504   8.206  17.544  0.00  0.00    +0.000 OA
ATOM      4  H   UNL     1       3.444   6.121  19.748  0.00  0.00    +0.000 HD
ENDROOT
BRANCH   1   8
ATOM      5  C   UNL     1       6.111   4.939  15.904  0.00  0.00    +0.000 A 
ATOM      6  C   UNL     1       4.900   4.291  16.169  0.00  0.00    +0.000 A 
ATOM      7  C   UNL     1       4.012   4.784  17.125  0.00  0.00    +0.000 A 
ATOM      8  C   UNL     1       4.325   5.916  17.870  0.00  0.00    +0.000 A 
ATOM      9  C   UNL     1       5.583   6.505  17.679  0.00  0.00    +0.000 A 
ATOM     10  C   UNL     1       6.485   6.028  16.706  0.00  0.00    +0.000 A 
BRANCH   5  12
ATOM     11  C   UNL     1       6.258   3.931  13.770  0.00  0.00    +0.000 C 
ATOM     12  O   UNL     1       6.928   4.511  14.892  0.00  0.00    +0.000 OA
ENDBRANCH   5  12
BRANCH  10  13
ATOM     13  O   UNL     1       7.647   6.757  16.672  0.00  0.00    +0.000 OA
ATOM     14  C   UNL     1       7.752   7.922  17.478  0.00  0.00    +0.000 C 
ENDBRANCH  10  13
ENDBRANCH   1   8
BRANCH   2  15
ATOM     15  C   UNL     1       1.805   7.946  19.748  0.00  0.00    +0.000 A 
ATOM     16  C   UNL     1       1.351   7.169  20.795  0.00  0.00    +0.000 A 
ATOM     17  C   UNL     1       0.651   8.029  21.667  0.00  0.00    +0.000 A 
ATOM     18  C   UNL     1       0.712   9.292  21.113  0.00  0.00    +0.000 A 
ATOM     19  O   UNL     1       1.407   9.243  19.933  0.00  0.00    +0.000 OA
BRANCH  18  20
ATOM     20  C   UNL     1       0.231  10.606  21.535  0.00  0.00    +0.000 A 
ATOM     21  C   UNL     1       0.707  11.771  20.905  0.00  0.00    +0.000 A 
ATOM     22  C   UNL     1       0.223  13.029  21.270  0.00  0.00    +0.000 A 
ATOM     23  C   UNL     1      -0.736  13.132  22.269  0.00  0.00    +0.000 A 
ATOM     24  F   UNL     1      -1.212  14.337  22.607  0.00  0.00    +0.000 F 
ATOM     25  C   UNL     1      -1.212  12.000  22.916  0.00  0.00    +0.000 A 
ATOM     26  C   UNL     1      -0.727  10.742  22.551  0.00  0.00    +0.000 A 
ENDBRANCH  18  20
ENDBRANCH   2  15
TORSDOF 5
ENDMDL
MODEL 8
REMARK VINA RESULT:      -7.5      6.089      9.287
REMARK  Name = 
REMARK  7 active torsions:
REMARK  status: ('A' for Active; 'I' for Inactive)
REMARK    1  A    between atoms: C_1  and  O_2
REMARK    2  A    between atoms: O_2  and  C_3
REMARK    3  A    between atoms: C_6  and  N_7
REMARK    4  A    between atoms: C_8  and  C_10
REMARK    5  A    between atoms: C_13  and  C_14
REMARK    6  A    between atoms: C_23  and  O_24
REMARK    7  A    between atoms: O_24  and  C_25
REMARK                            x       y       z     vdW  Elec       q    Type
REMARK                         _______ _______ _______ _____ _____    ______ ____
ROOT
ATOM      1  N   UNL     1       2.288   7.126  19.793  0.00  0.00    +0.000 N 
ATOM      2  C   UNL     1       2.155   7.914  18.662  0.00  0.00    +0.000 C 
ATOM      3  O   UNL     1       2.447   7.570  17.518  0.00  0.00    +0.000 OA
ATOM      4  H   UNL     1       2.057   7.578  20.671  0.00  0.00    +0.000 HD
ENDROOT
BRANCH   1   8
ATOM      5  C   UNL     1       3.785   3.160  19.760  0.00  0.00    +0.000 A 
ATOM      6  C   UNL     1       2.507   3.429  20.263  0.00  0.00    +0.000 A 
ATOM      7  C   UNL     1       2.000   4.728  20.288  0.00  0.00    +0.000 A 
ATOM      8  C   UNL     1       2.769   5.800  19.848  0.00  0.00    +0.000 A 
ATOM      9  C   UNL     1       4.087   5.545  19.443  0.00  0.00    +0.000 A 
ATOM     10  C   UNL     1       4.608   4.236  19.397  0.00  0.00    +0.000 A 
BRANCH   5  12
ATOM     11  C   UNL     1       3.866   1.207  18.430  0.00  0.00    +0.000 C 
ATOM     12  O   UNL     1       4.233   1.872  19.640  0.00  0.00    +0.000 OA
ENDBRANCH   5  12
BRANCH  10  13
ATOM     13  O   UNL     1       5.907   4.208  18.955  0.00  0.00    +0.000 OA
ATOM     14  C   UNL     1       6.191   4.618  17.626  0.00  0.00    +0.000 C 
ENDBRANCH  10  13
ENDBRANCH   1   8
BRANCH   2  15
ATOM     15  C   UNL     1       1.630   9.240  18.918  0.00  0.00    +0.000 A 
ATOM     16  C   UNL     1       1.865  10.428  18.252  0.00  0.00    +0.000 A 
ATOM     17  C   UNL     1       1.080  11.412  18.887  0.00  0.00    +0.000 A 
ATOM     18  C   UNL     1       0.399  10.781  19.909  0.00  0.00    +0.000 A 
ATOM     19  O   UNL     1       0.743   9.455  19.938  0.00  0.00    +0.000 OA
BRANCH  18  20
ATOM     20  C   UNL     1      -0.587  11.223  20.893  0.00  0.00    +0.000 A 
ATOM     21  C   UNL     1      -0.509  10.776  22.224  0.00  0.00    +0.000 A 
ATOM     22  C   UNL     1      -1.420  11.226  23.183  0.00  0.00    +0.000 A 
ATOM     23  C   UNL     1      -2.416  12.121  22.816  0.00  0.00    +0.000 A 
ATOM     24  F   UNL     1      -3.279  12.564  23.739  0.00  0.00    +0.000 F 
ATOM     25  C   UNL     1      -2.524  12.566  21.506  0.00  0.00    +0.000 A 
ATOM     26  C   UNL     1      -1.613  12.116  20.547  0.00  0.00    +0.000 A 
ENDBRANCH  18  20
ENDBRANCH   2  15
TORSDOF 5
ENDMDL
MODEL 9
REMARK VINA RESULT:      -7.5      6.096      8.629
REMARK  Name = 
REMARK  7 active torsions:
REMARK  status: ('A' for Active; 'I' for Inactive)
REMARK    1  A    between atoms: C_1  and  O_2
REMARK    2  A    between atoms: O_2  and  C_3
REMARK    3  A    between atoms: C_6  and  N_7
REMARK    4  A    between atoms: C_8  and  C_10
REMARK    5  A    between atoms: C_13  and  C_14
REMARK    6  A    between atoms: C_23  and  O_24
REMARK    7  A    between atoms: O_24  and  C_25
REMARK                            x       y       z     vdW  Elec       q    Type
REMARK                         _______ _______ _______ _____ _____    ______ ____
ROOT
ATOM      1  N   UNL     1       2.129   7.564  18.458  0.00  0.00    +0.000 N 
ATOM      2  C   UNL     1       1.883   8.846  17.995  0.00  0.00    +0.000 C 
ATOM      3  O   UNL     1       2.510   9.411  17.102  0.00  0.00    +0.000 OA
ATOM      4  H   UNL     1       1.557   7.264  19.240  0.00  0.00    +0.000 HD
ENDROOT
BRANCH   1   8
ATOM      5  C   UNL     1       5.127   5.004  16.900  0.00  0.00    +0.000 A 
ATOM      6  C   UNL     1       3.947   4.469  17.429  0.00  0.00    +0.000 A 
ATOM      7  C   UNL     1       2.952   5.296  17.952  0.00  0.00    +0.000 A 
ATOM      8  C   UNL     1       3.124   6.675  17.997  0.00  0.00    +0.000 A 
ATOM      9  C   UNL     1       4.349   7.202  17.565  0.00  0.00    +0.000 A 
ATOM     10  C   UNL     1       5.358   6.382  17.019  0.00  0.00    +0.000 A 
BRANCH   5  12
ATOM     11  C   UNL     1       5.965   4.134  14.868  0.00  0.00    +0.000 C 
ATOM     12  O   UNL     1       6.051   4.196  16.293  0.00  0.00    +0.000 OA
ENDBRANCH   5  12
BRANCH  10  13
ATOM     13  O   UNL     1       6.465   7.100  16.643  0.00  0.00    +0.000 OA
ATOM     14  C   UNL     1       7.498   7.320  17.593  0.00  0.00    +0.000 C 
ENDBRANCH  10  13
ENDBRANCH   1   8
BRANCH   2  15
ATOM     15  C   UNL     1       0.789   9.522  18.664  0.00  0.00    +0.000 A 
ATOM     16  C   UNL     1       0.687   9.960  19.970  0.00  0.00    +0.000 A 
ATOM     17  C   UNL     1      -0.573  10.582  20.093  0.00  0.00    +0.000 A 
ATOM     18  C   UNL     1      -1.181  10.498  18.856  0.00  0.00    +0.000 A 
ATOM     19  O   UNL     1      -0.356   9.839  17.983  0.00  0.00    +0.000 OA
BRANCH  18  20
ATOM     20  C   UNL     1      -2.453  10.977  18.319  0.00  0.00    +0.000 A 
ATOM     21  C   UNL     1      -2.824  10.671  16.997  0.00  0.00    +0.000 A 
ATOM     22  C   UNL     1      -4.057  11.086  16.487  0.00  0.00    +0.000 A 
ATOM     23  C   UNL     1      -4.922  11.813  17.293  0.00  0.00    +0.000 A 
ATOM     24  F   UNL     1      -6.110  12.197  16.808  0.00  0.00    +0.000 F 
ATOM     25  C   UNL     1      -4.575  12.141  18.595  0.00  0.00    +0.000 A 
ATOM     26  C   UNL     1      -3.342  11.726  19.106  0.00  0.00    +0.000 A 
ENDBRANCH  18  20
ENDBRANCH   2  15
TORSDOF 5
ENDMDL
