MODEL 1
REMARK VINA RESULT:      -8.3      0.000      0.000
REMARK  Name = 
REMARK  6 active torsions:
REMARK  status: ('A' for Active; 'I' for Inactive)
REMARK    1  A    between atoms: C_1  and  O_2
REMARK    2  A    between atoms: O_2  and  C_3
REMARK    3  A    between atoms: C_7  and  C_8
REMARK    4  A    between atoms: C_9  and  C_10
REMARK    5  A    between atoms: C_12  and  C_13
REMARK    6  A    between atoms: C_15  and  N_16
REMARK                            x       y       z     vdW  Elec       q    Type
REMARK                         _______ _______ _______ _____ _____    ______ ____
ROOT
ATOM      1  C   UNL     1       7.230   7.413  17.363  0.00  0.00    +0.000 A 
ATOM      2  N   UNL     1       7.532   6.593  16.364  0.00  0.00    +0.000 NA
ATOM      3  C   UNL     1       6.607   5.578  16.436  0.00  0.00    +0.000 A 
ATOM      4  C   UNL     1       5.746   5.777  17.496  0.00  0.00    +0.000 A 
ATOM      5  O   UNL     1       6.157   6.942  18.098  0.00  0.00    +0.000 OA
ENDROOT
BRANCH   4   6
ATOM      6  N   UNL     1       4.651   5.156  18.008  0.00  0.00    +0.000 N 
ATOM      7  C   UNL     1       4.435   3.711  17.925  0.00  0.00    +0.000 C 
ATOM      8  C   UNL     1       3.058   3.414  17.330  0.00  0.00    +0.000 C 
ATOM      9  C   UNL     1       1.950   4.182  18.048  0.00  0.00    +0.000 C 
ATOM     10  C   UNL     1       2.277   5.672  18.133  0.00  0.00    +0.000 C 
ATOM     11  C   UNL     1       3.651   5.905  18.765  0.00  0.00    +0.000 C 
ENDBRANCH   4   6
BRANCH   1  13
ATOM     12  C   UNL     1       8.604   8.914  18.727  0.00  0.00    +0.000 C 
ATOM     13  C   UNL     1       7.898   8.654  17.610  0.00  0.00    +0.000 C 
BRANCH  12  18
ATOM     14  C   UNL     1      10.285  12.315  18.292  0.00  0.00    +0.000 A 
ATOM     15  C   UNL     1      10.513  12.663  19.622  0.00  0.00    +0.000 A 
ATOM     16  C   UNL     1      10.121  11.803  20.647  0.00  0.00    +0.000 A 
ATOM     17  C   UNL     1       9.503  10.585  20.341  0.00  0.00    +0.000 A 
ATOM     18  C   UNL     1       9.276  10.205  19.010  0.00  0.00    +0.000 A 
ATOM     19  C   UNL     1       9.656  11.099  17.993  0.00  0.00    +0.000 A 
BRANCH  14  21
ATOM     20  C   UNL     1      12.115  13.195  17.056  0.00  0.00    +0.000 C 
ATOM     21  O   UNL     1      10.730  13.234  17.378  0.00  0.00    +0.000 OA
ENDBRANCH  14  21
ENDBRANCH  12  18
ENDBRANCH   1  13
BRANCH   3  22
ATOM     22  C   UNL     1       6.544   4.553  15.441  0.00  0.00    +0.000 C 
ATOM     23  N   UNL     1       6.456   3.717  14.642  0.00  0.00    +0.000 NA
ENDBRANCH   3  22
TORSDOF 5
ENDMDL
MODEL 2
REMARK VINA RESULT:      -8.2      0.755      1.293
REMARK  Name = 
REMARK  6 active torsions:
REMARK  status: ('A' for Active; 'I' for Inactive)
REMARK    1  A    between atoms: C_1  and  O_2
REMARK    2  A    between atoms: O_2  and  C_3
REMARK    3  A    between atoms: C_7  and  C_8
REMARK    4  A    between atoms: C_9  and  C_10
REMARK    5  A    between atoms: C_12  and  C_13
REMARK    6  A    between atoms: C_15  and  N_16
REMARK                            x       y       z     vdW  Elec       q    Type
REMARK                         _______ _______ _______ _____ _____    ______ ____
ROOT
ATOM      1  C   UNL     1       7.352   6.986  17.636  0.00  0.00    +0.000 A 
ATOM      2  N   UNL     1       7.649   6.354  16.507  0.00  0.00    +0.000 NA
ATOM      3  C   UNL     1       6.532   5.611  16.203  0.00  0.00    +0.000 A 
ATOM      4  C   UNL     1       5.555   5.783  17.163  0.00  0.00    +0.000 A 
ATOM      5  O   UNL     1       6.088   6.649  18.088  0.00  0.00    +0.000 OA
ENDROOT
BRANCH   4   6
ATOM      6  N   UNL     1       4.280   5.358  17.359  0.00  0.00    +0.000 N 
ATOM      7  C   UNL     1       3.203   6.235  17.819  0.00  0.00    +0.000 C 
ATOM      8  C   UNL     1       2.506   5.625  19.036  0.00  0.00    +0.000 C 
ATOM      9  C   UNL     1       2.084   4.179  18.784  0.00  0.00    +0.000 C 
ATOM     10  C   UNL     1       3.252   3.346  18.260  0.00  0.00    +0.000 C 
ATOM     11  C   UNL     1       3.887   3.991  17.027  0.00  0.00    +0.000 C 
ENDBRANCH   4   6
BRANCH   1  13
ATOM     12  C   UNL     1       8.278   9.235  17.924  0.00  0.00    +0.000 C 
ATOM     13  C   UNL     1       8.212   7.936  18.272  0.00  0.00    +0.000 C 
BRANCH  12  18
ATOM     14  C   UNL     1      10.905  11.961  18.429  0.00  0.00    +0.000 A 
ATOM     15  C   UNL     1      10.857  12.113  19.814  0.00  0.00    +0.000 A 
ATOM     16  C   UNL     1       9.978  11.341  20.573  0.00  0.00    +0.000 A 
ATOM     17  C   UNL     1       9.146  10.406  19.944  0.00  0.00    +0.000 A 
ATOM     18  C   UNL     1       9.186  10.224  18.554  0.00  0.00    +0.000 A 
ATOM     19  C   UNL     1      10.062  11.031  17.806  0.00  0.00    +0.000 A 
BRANCH  14  21
ATOM     20  C   UNL     1      11.319  13.641  16.799  0.00  0.00    +0.000 C 
ATOM     21  O   UNL     1      11.820  12.762  17.799  0.00  0.00    +0.000 OA
ENDBRANCH  14  21
ENDBRANCH  12  18
ENDBRANCH   1  13
BRANCH   3  22
ATOM     22  C   UNL     1       6.435   4.875  14.980  0.00  0.00    +0.000 C 
ATOM     23  N   UNL     1       6.376   4.308  13.971  0.00  0.00    +0.000 NA
ENDBRANCH   3  22
TORSDOF 5
ENDMDL
MODEL 3
REMARK VINA RESULT:      -8.2      1.155      1.922
REMARK  Name = 
REMARK  6 active torsions:
REMARK  status: ('A' for Active; 'I' for Inactive)
REMARK    1  A    between atoms: C_1  and  O_2
REMARK    2  A    between atoms: O_2  and  C_3
REMARK    3  A    between atoms: C_7  and  C_8
REMARK    4  A    between atoms: C_9  and  C_10
REMARK    5  A    between atoms: C_12  and  C_13
REMARK    6  A    between atoms: C_15  and  N_16
REMARK                            x       y       z     vdW  Elec       q    Type
REMARK                         _______ _______ _______ _____ _____    ______ ____
ROOT
ATOM      1  C   UNL     1       7.450   6.956  17.780  0.00  0.00    +0.000 A 
ATOM      2  N   UNL     1       7.554   6.459  16.553  0.00  0.00    +0.000 NA
ATOM      3  C   UNL     1       6.486   5.601  16.418  0.00  0.00    +0.000 A 
ATOM      4  C   UNL     1       5.738   5.568  17.578  0.00  0.00    +0.000 A 
ATOM      5  O   UNL     1       6.366   6.421  18.454  0.00  0.00    +0.000 OA
ENDROOT
BRANCH   4   6
ATOM      6  N   UNL     1       4.595   4.965  17.997  0.00  0.00    +0.000 N 
ATOM      7  C   UNL     1       4.298   3.552  17.757  0.00  0.00    +0.000 C 
ATOM      8  C   UNL     1       2.923   3.403  17.103  0.00  0.00    +0.000 C 
ATOM      9  C   UNL     1       1.842   4.159  17.874  0.00  0.00    +0.000 C 
ATOM     10  C   UNL     1       2.253   5.609  18.123  0.00  0.00    +0.000 C 
ATOM     11  C   UNL     1       3.619   5.690  18.806  0.00  0.00    +0.000 C 
ENDBRANCH   4   6
BRANCH   1  13
ATOM     12  C   UNL     1       8.224   9.268  18.016  0.00  0.00    +0.000 C 
ATOM     13  C   UNL     1       8.320   7.958  18.313  0.00  0.00    +0.000 C 
BRANCH  12  18
ATOM     14  C   UNL     1      10.064  11.653  20.363  0.00  0.00    +0.000 A 
ATOM     15  C   UNL     1      10.928  12.282  19.468  0.00  0.00    +0.000 A 
ATOM     16  C   UNL     1      10.914  11.931  18.118  0.00  0.00    +0.000 A 
ATOM     17  C   UNL     1      10.027  10.950  17.660  0.00  0.00    +0.000 A 
ATOM     18  C   UNL     1       9.137  10.313  18.538  0.00  0.00    +0.000 A 
ATOM     19  C   UNL     1       9.186  10.664  19.898  0.00  0.00    +0.000 A 
BRANCH  14  21
ATOM     20  C   UNL     1       9.000  12.704  22.211  0.00  0.00    +0.000 C 
ATOM     21  O   UNL     1      10.160  12.097  21.655  0.00  0.00    +0.000 OA
ENDBRANCH  14  21
ENDBRANCH  12  18
ENDBRANCH   1  13
BRANCH   3  22
ATOM     22  C   UNL     1       6.199   4.958  15.175  0.00  0.00    +0.000 C 
ATOM     23  N   UNL     1       5.934   4.420  14.182  0.00  0.00    +0.000 NA
ENDBRANCH   3  22
TORSDOF 5
ENDMDL
MODEL 4
REMARK VINA RESULT:      -7.9      1.050      1.445
REMARK  Name = 
REMARK  6 active torsions:
REMARK  status: ('A' for Active; 'I' for Inactive)
REMARK    1  A    between atoms: C_1  and  O_2
REMARK    2  A    between atoms: O_2  and  C_3
REMARK    3  A    between atoms: C_7  and  C_8
REMARK    4  A    between atoms: C_9  and  C_10
REMARK    5  A    between atoms: C_12  and  C_13
REMARK    6  A    between atoms: C_15  and  N_16
REMARK                            x       y       z     vdW  Elec       q    Type
REMARK                         _______ _______ _______ _____ _____    ______ ____
ROOT
ATOM      1  C   UNL     1       7.345   6.852  17.678  0.00  0.00    +0.000 A 
ATOM      2  N   UNL     1       7.590   6.313  16.490  0.00  0.00    +0.000 NA
ATOM      3  C   UNL     1       6.603   5.371  16.309  0.00  0.00    +0.000 A 
ATOM      4  C   UNL     1       5.761   5.330  17.403  0.00  0.00    +0.000 A 
ATOM      5  O   UNL     1       6.248   6.266  18.285  0.00  0.00    +0.000 OA
ENDROOT
BRANCH   4   6
ATOM      6  N   UNL     1       4.632   4.661  17.754  0.00  0.00    +0.000 N 
ATOM      7  C   UNL     1       3.289   5.096  17.373  0.00  0.00    +0.000 C 
ATOM      8  C   UNL     1       2.391   5.187  18.607  0.00  0.00    +0.000 C 
ATOM      9  C   UNL     1       2.432   3.904  19.436  0.00  0.00    +0.000 C 
ATOM     10  C   UNL     1       3.870   3.495  19.748  0.00  0.00    +0.000 C 
ATOM     11  C   UNL     1       4.708   3.391  18.473  0.00  0.00    +0.000 C 
ENDBRANCH   4   6
BRANCH   1  13
ATOM     12  C   UNL     1       8.015   9.206  17.782  0.00  0.00    +0.000 C 
ATOM     13  C   UNL     1       8.091   7.939  18.232  0.00  0.00    +0.000 C 
BRANCH  12  18
ATOM     14  C   UNL     1       9.554  12.665  18.281  0.00  0.00    +0.000 A 
ATOM     15  C   UNL     1      10.299  12.452  19.440  0.00  0.00    +0.000 A 
ATOM     16  C   UNL     1      10.297  11.200  20.052  0.00  0.00    +0.000 A 
ATOM     17  C   UNL     1       9.551  10.151  19.500  0.00  0.00    +0.000 A 
ATOM     18  C   UNL     1       8.805  10.336  18.327  0.00  0.00    +0.000 A 
ATOM     19  C   UNL     1       8.801  11.614  17.740  0.00  0.00    +0.000 A 
BRANCH  14  21
ATOM     20  C   UNL     1      10.190  14.930  18.621  0.00  0.00    +0.000 C 
ATOM     21  O   UNL     1       9.651  13.930  17.765  0.00  0.00    +0.000 OA
ENDBRANCH  14  21
ENDBRANCH  12  18
ENDBRANCH   1  13
BRANCH   3  22
ATOM     22  C   UNL     1       6.471   4.655  15.079  0.00  0.00    +0.000 C 
ATOM     23  N   UNL     1       6.389   4.099  14.065  0.00  0.00    +0.000 NA
ENDBRANCH   3  22
TORSDOF 5
ENDMDL
MODEL 5
REMARK VINA RESULT:      -7.8      1.285      2.293
REMARK  Name = 
REMARK  6 active torsions:
REMARK  status: ('A' for Active; 'I' for Inactive)
REMARK    1  A    between atoms: C_1  and  O_2
REMARK    2  A    between atoms: O_2  and  C_3
REMARK    3  A    between atoms: C_7  and  C_8
REMARK    4  A    between atoms: C_9  and  C_10
REMARK    5  A    between atoms: C_12  and  C_13
REMARK    6  A    between atoms: C_15  and  N_16
REMARK                            x       y       z     vdW  Elec       q    Type
REMARK                         _______ _______ _______ _____ _____    ______ ____
ROOT
ATOM      1  C   UNL     1       7.381   7.007  17.635  0.00  0.00    +0.000 A 
ATOM      2  N   UNL     1       7.685   6.431  16.478  0.00  0.00    +0.000 NA
ATOM      3  C   UNL     1       6.609   5.627  16.180  0.00  0.00    +0.000 A 
ATOM      4  C   UNL     1       5.652   5.705  17.171  0.00  0.00    +0.000 A 
ATOM      5  O   UNL     1       6.155   6.575  18.110  0.00  0.00    +0.000 OA
ENDROOT
BRANCH   4   6
ATOM      6  N   UNL     1       4.412   5.193  17.388  0.00  0.00    +0.000 N 
ATOM      7  C   UNL     1       3.261   6.011  17.771  0.00  0.00    +0.000 C 
ATOM      8  C   UNL     1       2.597   5.438  19.024  0.00  0.00    +0.000 C 
ATOM      9  C   UNL     1       2.298   3.947  18.878  0.00  0.00    +0.000 C 
ATOM     10  C   UNL     1       3.538   3.176  18.430  0.00  0.00    +0.000 C 
ATOM     11  C   UNL     1       4.136   3.777  17.157  0.00  0.00    +0.000 C 
ENDBRANCH   4   6
BRANCH   1  13
ATOM     12  C   UNL     1       8.279   9.273  17.877  0.00  0.00    +0.000 C 
ATOM     13  C   UNL     1       8.196   7.990  18.278  0.00  0.00    +0.000 C 
BRANCH  12  18
ATOM     14  C   UNL     1       9.911  11.558  20.464  0.00  0.00    +0.000 A 
ATOM     15  C   UNL     1      10.844  12.223  19.671  0.00  0.00    +0.000 A 
ATOM     16  C   UNL     1      10.943  11.928  18.312  0.00  0.00    +0.000 A 
ATOM     17  C   UNL     1      10.100  10.967  17.741  0.00  0.00    +0.000 A 
ATOM     18  C   UNL     1       9.143  10.295  18.515  0.00  0.00    +0.000 A 
ATOM     19  C   UNL     1       9.077  10.590  19.888  0.00  0.00    +0.000 A 
BRANCH  14  21
ATOM     20  C   UNL     1       8.624  12.192  22.360  0.00  0.00    +0.000 C 
ATOM     21  O   UNL     1       9.898  11.949  21.778  0.00  0.00    +0.000 OA
ENDBRANCH  14  21
ENDBRANCH  12  18
ENDBRANCH   1  13
BRANCH   3  22
ATOM     22  C   UNL     1       6.524   4.925  14.937  0.00  0.00    +0.000 C 
ATOM     23  N   UNL     1       6.493   4.361  13.925  0.00  0.00    +0.000 NA
ENDBRANCH   3  22
TORSDOF 5
ENDMDL
MODEL 6
REMARK VINA RESULT:      -7.5      1.117      1.465
REMARK  Name = 
REMARK  6 active torsions:
REMARK  status: ('A' for Active; 'I' for Inactive)
REMARK    1  A    between atoms: C_1  and  O_2
REMARK    2  A    between atoms: O_2  and  C_3
REMARK    3  A    between atoms: C_7  and  C_8
REMARK    4  A    between atoms: C_9  and  C_10
REMARK    5  A    between atoms: C_12  and  C_13
REMARK    6  A    between atoms: C_15  and  N_16
REMARK                            x       y       z     vdW  Elec       q    Type
REMARK                         _______ _______ _______ _____ _____    ______ ____
ROOT
ATOM      1  C   UNL     1       7.364   6.930  17.247  0.00  0.00    +0.000 A 
ATOM      2  N   UNL     1       7.452   6.179  16.155  0.00  0.00    +0.000 NA
ATOM      3  C   UNL     1       6.437   5.257  16.267  0.00  0.00    +0.000 A 
ATOM      4  C   UNL     1       5.737   5.441  17.442  0.00  0.00    +0.000 A 
ATOM      5  O   UNL     1       6.342   6.500  18.076  0.00  0.00    +0.000 OA
ENDROOT
BRANCH   4   6
ATOM      6  N   UNL     1       4.651   4.886  18.041  0.00  0.00    +0.000 N 
ATOM      7  C   UNL     1       4.525   3.452  18.305  0.00  0.00    +0.000 C 
ATOM      8  C   UNL     1       3.206   2.923  17.740  0.00  0.00    +0.000 C 
ATOM      9  C   UNL     1       2.014   3.761  18.198  0.00  0.00    +0.000 C 
ATOM     10  C   UNL     1       2.248   5.246  17.930  0.00  0.00    +0.000 C 
ATOM     11  C   UNL     1       3.565   5.722  18.546  0.00  0.00    +0.000 C 
ENDBRANCH   4   6
BRANCH   1  13
ATOM     12  C   UNL     1       7.711   9.261  17.912  0.00  0.00    +0.000 C 
ATOM     13  C   UNL     1       8.187   8.071  17.502  0.00  0.00    +0.000 C 
BRANCH  12  18
ATOM     14  C   UNL     1      10.503  11.569  19.121  0.00  0.00    +0.000 A 
ATOM     15  C   UNL     1      10.118  12.772  18.531  0.00  0.00    +0.000 A 
ATOM     16  C   UNL     1       8.966  12.830  17.748  0.00  0.00    +0.000 A 
ATOM     17  C   UNL     1       8.191  11.680  17.557  0.00  0.00    +0.000 A 
ATOM     18  C   UNL     1       8.549  10.461  18.151  0.00  0.00    +0.000 A 
ATOM     19  C   UNL     1       9.728  10.419  18.916  0.00  0.00    +0.000 A 
BRANCH  14  21
ATOM     20  C   UNL     1      12.332  12.887  19.873  0.00  0.00    +0.000 C 
ATOM     21  O   UNL     1      11.641  11.645  19.880  0.00  0.00    +0.000 OA
ENDBRANCH  14  21
ENDBRANCH  12  18
ENDBRANCH   1  13
BRANCH   3  22
ATOM     22  C   UNL     1       6.144   4.338  15.211  0.00  0.00    +0.000 C 
ATOM     23  N   UNL     1       5.944   3.596  14.343  0.00  0.00    +0.000 NA
ENDBRANCH   3  22
TORSDOF 5
ENDMDL
MODEL 7
REMARK VINA RESULT:      -7.3      4.849      7.752
REMARK  Name = 
REMARK  6 active torsions:
REMARK  status: ('A' for Active; 'I' for Inactive)
REMARK    1  A    between atoms: C_1  and  O_2
REMARK    2  A    between atoms: O_2  and  C_3
REMARK    3  A    between atoms: C_7  and  C_8
REMARK    4  A    between atoms: C_9  and  C_10
REMARK    5  A    between atoms: C_12  and  C_13
REMARK    6  A    between atoms: C_15  and  N_16
REMARK                            x       y       z     vdW  Elec       q    Type
REMARK                         _______ _______ _______ _____ _____    ______ ____
ROOT
ATOM      1  C   UNL     1       2.383   6.104  19.947  0.00  0.00    +0.000 A 
ATOM      2  N   UNL     1       2.730   4.913  20.419  0.00  0.00    +0.000 NA
ATOM      3  C   UNL     1       3.637   4.414  19.514  0.00  0.00    +0.000 A 
ATOM      4  C   UNL     1       3.832   5.304  18.477  0.00  0.00    +0.000 A 
ATOM      5  O   UNL     1       3.015   6.377  18.746  0.00  0.00    +0.000 OA
ENDROOT
BRANCH   4   6
ATOM      6  N   UNL     1       4.613   5.371  17.367  0.00  0.00    +0.000 N 
ATOM      7  C   UNL     1       4.585   4.367  16.303  0.00  0.00    +0.000 C 
ATOM      8  C   UNL     1       5.998   3.856  16.018  0.00  0.00    +0.000 C 
ATOM      9  C   UNL     1       6.980   5.003  15.784  0.00  0.00    +0.000 C 
ATOM     10  C   UNL     1       6.911   6.027  16.914  0.00  0.00    +0.000 C 
ATOM     11  C   UNL     1       5.480   6.522  17.130  0.00  0.00    +0.000 C 
ENDBRANCH   4   6
BRANCH   1  13
ATOM     12  C   UNL     1       1.524   8.344  20.440  0.00  0.00    +0.000 C 
ATOM     13  C   UNL     1       1.509   7.010  20.625  0.00  0.00    +0.000 C 
BRANCH  12  18
ATOM     14  C   UNL     1      -0.852  11.233  21.211  0.00  0.00    +0.000 A 
ATOM     15  C   UNL     1      -1.046  11.050  22.579  0.00  0.00    +0.000 A 
ATOM     16  C   UNL     1      -0.414   9.998  23.241  0.00  0.00    +0.000 A 
ATOM     17  C   UNL     1       0.421   9.126  22.532  0.00  0.00    +0.000 A 
ATOM     18  C   UNL     1       0.644   9.298  21.158  0.00  0.00    +0.000 A 
ATOM     19  C   UNL     1      -0.023  10.350  20.506  0.00  0.00    +0.000 A 
BRANCH  14  21
ATOM     20  C   UNL     1      -1.905  12.210  19.317  0.00  0.00    +0.000 C 
ATOM     21  O   UNL     1      -1.512  12.310  20.680  0.00  0.00    +0.000 OA
ENDBRANCH  14  21
ENDBRANCH  12  18
ENDBRANCH   1  13
BRANCH   3  22
ATOM     22  C   UNL     1       4.325   3.182  19.747  0.00  0.00    +0.000 C 
ATOM     23  N   UNL     1       4.853   2.164  19.917  0.00  0.00    +0.000 NA
ENDBRANCH   3  22
TORSDOF 5
ENDMDL
MODEL 8
REMARK VINA RESULT:      -7.3      1.592      3.347
REMARK  Name = 
REMARK  6 active torsions:
REMARK  status: ('A' for Active; 'I' for Inactive)
REMARK    1  A    between atoms: C_1  and  O_2
REMARK    2  A    between atoms: O_2  and  C_3
REMARK    3  A    between atoms: C_7  and  C_8
REMARK    4  A    between atoms: C_9  and  C_10
REMARK    5  A    between atoms: C_12  and  C_13
REMARK    6  A    between atoms: C_15  and  N_16
REMARK                            x       y       z     vdW  Elec       q    Type
REMARK                         _______ _______ _______ _____ _____    ______ ____
ROOT
ATOM      1  C   UNL     1       7.348   7.206  17.438  0.00  0.00    +0.000 A 
ATOM      2  N   UNL     1       6.147   6.801  17.833  0.00  0.00    +0.000 NA
ATOM      3  C   UNL     1       5.771   5.839  16.924  0.00  0.00    +0.000 A 
ATOM      4  C   UNL     1       6.747   5.670  15.961  0.00  0.00    +0.000 A 
ATOM      5  O   UNL     1       7.746   6.558  16.282  0.00  0.00    +0.000 OA
ENDROOT
BRANCH   4   6
ATOM      6  N   UNL     1       6.942   4.863  14.886  0.00  0.00    +0.000 N 
ATOM      7  C   UNL     1       8.015   5.067  13.913  0.00  0.00    +0.000 C 
ATOM      8  C   UNL     1       7.445   5.101  12.494  0.00  0.00    +0.000 C 
ATOM      9  C   UNL     1       6.551   3.895  12.211  0.00  0.00    +0.000 C 
ATOM     10  C   UNL     1       5.491   3.727  13.298  0.00  0.00    +0.000 C 
ATOM     11  C   UNL     1       6.125   3.668  14.689  0.00  0.00    +0.000 C 
ENDBRANCH   4   6
BRANCH   1  13
ATOM     12  C   UNL     1       8.311   9.433  17.770  0.00  0.00    +0.000 C 
ATOM     13  C   UNL     1       8.148   8.152  18.152  0.00  0.00    +0.000 C 
BRANCH  12  18
ATOM     14  C   UNL     1      10.674  12.340  18.513  0.00  0.00    +0.000 A 
ATOM     15  C   UNL     1      10.728  12.280  19.904  0.00  0.00    +0.000 A 
ATOM     16  C   UNL     1      10.002  11.308  20.592  0.00  0.00    +0.000 A 
ATOM     17  C   UNL     1       9.221  10.387  19.884  0.00  0.00    +0.000 A 
ATOM     18  C   UNL     1       9.162  10.417  18.483  0.00  0.00    +0.000 A 
ATOM     19  C   UNL     1       9.882  11.420  17.811  0.00  0.00    +0.000 A 
BRANCH  14  21
ATOM     20  C   UNL     1      10.959  14.658  18.068  0.00  0.00    +0.000 C 
ATOM     21  O   UNL     1      11.444  13.326  17.954  0.00  0.00    +0.000 OA
ENDBRANCH  14  21
ENDBRANCH  12  18
ENDBRANCH   1  13
BRANCH   3  22
ATOM     22  C   UNL     1       4.568   5.085  17.089  0.00  0.00    +0.000 C 
ATOM     23  N   UNL     1       3.572   4.505  17.210  0.00  0.00    +0.000 NA
ENDBRANCH   3  22
TORSDOF 5
ENDMDL
MODEL 9
REMARK VINA RESULT:      -7.3      5.097      8.100
REMARK  Name = 
REMARK  6 active torsions:
REMARK  status: ('A' for Active; 'I' for Inactive)
REMARK    1  A    between atoms: C_1  and  O_2
REMARK    2  A    between atoms: O_2  and  C_3
REMARK    3  A    between atoms: C_7  and  C_8
REMARK    4  A    between atoms: C_9  and  C_10
REMARK    5  A    between atoms: C_12  and  C_13
REMARK    6  A    between atoms: C_15  and  N_16
REMARK                            x       y       z     vdW  Elec       q    Type
REMARK                         _______ _______ _______ _____ _____    ______ ____
ROOT
ATOM      1  C   UNL     1       1.938   6.866  20.292  0.00  0.00    +0.000 A 
ATOM      2  N   UNL     1       1.620   5.813  21.035  0.00  0.00    +0.000 NA
ATOM      3  C   UNL     1       2.503   4.826  20.661  0.00  0.00    +0.000 A 
ATOM      4  C   UNL     1       3.354   5.281  19.673  0.00  0.00    +0.000 A 
ATOM      5  O   UNL     1       2.979   6.581  19.426  0.00  0.00    +0.000 OA
ENDROOT
BRANCH   4   6
ATOM      6  N   UNL     1       4.414   4.789  18.981  0.00  0.00    +0.000 N 
ATOM      7  C   UNL     1       5.799   5.172  19.254  0.00  0.00    +0.000 C 
ATOM      8  C   UNL     1       6.484   5.637  17.968  0.00  0.00    +0.000 C 
ATOM      9  C   UNL     1       6.315   4.625  16.836  0.00  0.00    +0.000 C 
ATOM     10  C   UNL     1       4.848   4.244  16.651  0.00  0.00    +0.000 C 
ATOM     11  C   UNL     1       4.229   3.758  17.962  0.00  0.00    +0.000 C 
ENDBRANCH   4   6
BRANCH   1  13
ATOM     12  C   UNL     1       0.495   8.489  21.424  0.00  0.00    +0.000 C 
ATOM     13  C   UNL     1       1.316   8.148  20.414  0.00  0.00    +0.000 C 
BRANCH  12  18
ATOM     14  C   UNL     1      -1.134  11.838  20.579  0.00  0.00    +0.000 A 
ATOM     15  C   UNL     1      -1.503  12.275  21.850  0.00  0.00    +0.000 A 
ATOM     16  C   UNL     1      -1.229  11.487  22.967  0.00  0.00    +0.000 A 
ATOM     17  C   UNL     1      -0.576  10.258  22.814  0.00  0.00    +0.000 A 
ATOM     18  C   UNL     1      -0.181   9.803  21.547  0.00  0.00    +0.000 A 
ATOM     19  C   UNL     1      -0.489  10.602  20.432  0.00  0.00    +0.000 A 
BRANCH  14  21
ATOM     20  C   UNL     1      -0.644  12.628  18.390  0.00  0.00    +0.000 C 
ATOM     21  O   UNL     1      -1.441  12.708  19.566  0.00  0.00    +0.000 OA
ENDBRANCH  14  21
ENDBRANCH  12  18
ENDBRANCH   1  13
BRANCH   3  22
ATOM     22  C   UNL     1       2.541   3.565  21.333  0.00  0.00    +0.000 C 
ATOM     23  N   UNL     1       2.553   2.526  21.847  0.00  0.00    +0.000 NA
ENDBRANCH   3  22
TORSDOF 5
ENDMDL
