MODEL 1
REMARK VINA RESULT:      -8.5      0.000      0.000
REMARK  Name = 
REMARK  8 active torsions:
REMARK  status: ('A' for Active; 'I' for Inactive)
REMARK    1  A    between atoms: C_1  and  O_2
REMARK    2  A    between atoms: O_2  and  C_3
REMARK    3  A    between atoms: C_6  and  C_7
REMARK    4  A    between atoms: N_9  and  C_10
REMARK    5  A    between atoms: C_15  and  S_16
REMARK    6  A    between atoms: S_16  and  C_17
REMARK    7  A    between atoms: C_17  and  C_18
REMARK    8  A    between atoms: C_21  and  C_22
REMARK                            x       y       z     vdW  Elec       q    Type
REMARK                         _______ _______ _______ _____ _____    ______ ____
ROOT
ATOM      1  C   UNL     1       8.014   7.992  17.859  0.00  0.00    +0.000 A 
ATOM      2  C   UNL     1       8.359   7.203  18.955  0.00  0.00    +0.000 A 
ATOM      3  C   UNL     1       7.748   5.972  19.200  0.00  0.00    +0.000 A 
ATOM      4  C   UNL     1       6.744   5.505  18.344  0.00  0.00    +0.000 A 
ATOM      5  N   UNL     1       6.075   4.310  18.497  0.00  0.00    +0.000 NA
ATOM      6  C   UNL     1       5.134   4.180  17.595  0.00  0.00    +0.000 A 
ATOM      7  S   UNL     1       5.063   5.454  16.442  0.00  0.00    +0.000 S 
ATOM      8  C   UNL     1       6.351   6.301  17.266  0.00  0.00    +0.000 A 
ATOM      9  C   UNL     1       6.969   7.557  17.009  0.00  0.00    +0.000 A 
ENDROOT
BRANCH   1  12
ATOM     10  C   UNL     1       9.057  10.146  18.573  0.00  0.00    +0.000 C 
ATOM     11  O   UNL     1       8.961   9.944  19.783  0.00  0.00    +0.000 OA
ATOM     12  N   UNL     1       8.685   9.227  17.591  0.00  0.00    +0.000 N 
ATOM     13  H   UNL     1       8.999   9.377  16.644  0.00  0.00    +0.000 HD
BRANCH  10  17
ATOM     14  C   UNL     1      10.578  14.037  17.431  0.00  0.00    +0.000 A 
ATOM     15  C   UNL     1       9.285  13.872  17.909  0.00  0.00    +0.000 A 
ATOM     16  C   UNL     1       8.835  12.603  18.284  0.00  0.00    +0.000 A 
ATOM     17  C   UNL     1       9.660  11.466  18.175  0.00  0.00    +0.000 A 
ATOM     18  C   UNL     1      10.954  11.640  17.670  0.00  0.00    +0.000 A 
ATOM     19  C   UNL     1      11.407  12.922  17.308  0.00  0.00    +0.000 A 
BRANCH  14  21
ATOM     20  C   UNL     1      10.089  16.338  17.630  0.00  0.00    +0.000 C 
ATOM     21  O   UNL     1      10.902  15.313  17.074  0.00  0.00    +0.000 OA
ENDBRANCH  14  21
ENDBRANCH  10  17
ENDBRANCH   1  12
BRANCH   6  22
ATOM     22  S   UNL     1       3.981   2.877  17.831  0.00  0.00    +0.000 S 
BRANCH  22  23
ATOM     23  C   UNL     1       2.326   3.568  17.587  0.00  0.00    +0.000 C 
BRANCH  23  24
ATOM     24  C   UNL     1       2.090   4.740  18.532  0.00  0.00    +0.000 A 
ATOM     25  C   UNL     1       2.264   6.062  18.095  0.00  0.00    +0.000 A 
ATOM     26  C   UNL     1       2.092   7.143  18.970  0.00  0.00    +0.000 A 
ATOM     27  C   UNL     1       1.740   6.932  20.306  0.00  0.00    +0.000 A 
ATOM     28  C   UNL     1       1.556   8.084  21.251  0.00  0.00    +0.000 C 
ATOM     29  C   UNL     1       1.567   5.620  20.751  0.00  0.00    +0.000 A 
ATOM     30  C   UNL     1       1.743   4.535  19.878  0.00  0.00    +0.000 A 
ENDBRANCH  23  24
ENDBRANCH  22  23
ENDBRANCH   6  22
TORSDOF 6
ENDMDL
MODEL 2
REMARK VINA RESULT:      -8.1      4.864      8.676
REMARK  Name = 
REMARK  8 active torsions:
REMARK  status: ('A' for Active; 'I' for Inactive)
REMARK    1  A    between atoms: C_1  and  O_2
REMARK    2  A    between atoms: O_2  and  C_3
REMARK    3  A    between atoms: C_6  and  C_7
REMARK    4  A    between atoms: N_9  and  C_10
REMARK    5  A    between atoms: C_15  and  S_16
REMARK    6  A    between atoms: S_16  and  C_17
REMARK    7  A    between atoms: C_17  and  C_18
REMARK    8  A    between atoms: C_21  and  C_22
REMARK                            x       y       z     vdW  Elec       q    Type
REMARK                         _______ _______ _______ _____ _____    ______ ____
ROOT
ATOM      1  C   UNL     1       1.316   9.055  19.846  0.00  0.00    +0.000 A 
ATOM      2  C   UNL     1       1.707   9.188  18.515  0.00  0.00    +0.000 A 
ATOM      3  C   UNL     1       2.292   8.136  17.808  0.00  0.00    +0.000 A 
ATOM      4  C   UNL     1       2.520   6.908  18.441  0.00  0.00    +0.000 A 
ATOM      5  N   UNL     1       3.094   5.809  17.838  0.00  0.00    +0.000 NA
ATOM      6  C   UNL     1       3.255   4.834  18.697  0.00  0.00    +0.000 A 
ATOM      7  S   UNL     1       2.631   5.149  20.268  0.00  0.00    +0.000 S 
ATOM      8  C   UNL     1       2.177   6.767  19.787  0.00  0.00    +0.000 A 
ATOM      9  C   UNL     1       1.579   7.835  20.514  0.00  0.00    +0.000 A 
ENDROOT
BRANCH   1  12
ATOM     10  C   UNL     1      -0.571  10.655  20.187  0.00  0.00    +0.000 C 
ATOM     11  O   UNL     1      -1.300  10.187  19.313  0.00  0.00    +0.000 OA
ATOM     12  N   UNL     1       0.670  10.125  20.543  0.00  0.00    +0.000 N 
ATOM     13  H   UNL     1       1.096  10.427  21.406  0.00  0.00    +0.000 HD
BRANCH  10  17
ATOM     14  C   UNL     1      -2.052  14.008  22.494  0.00  0.00    +0.000 A 
ATOM     15  C   UNL     1      -1.182  13.074  23.042  0.00  0.00    +0.000 A 
ATOM     16  C   UNL     1      -0.712  12.015  22.260  0.00  0.00    +0.000 A 
ATOM     17  C   UNL     1      -1.112  11.852  20.919  0.00  0.00    +0.000 A 
ATOM     18  C   UNL     1      -2.008  12.786  20.384  0.00  0.00    +0.000 A 
ATOM     19  C   UNL     1      -2.467  13.859  21.171  0.00  0.00    +0.000 A 
BRANCH  14  21
ATOM     20  C   UNL     1      -3.383  14.577  24.359  0.00  0.00    +0.000 C 
ATOM     21  O   UNL     1      -2.465  14.984  23.352  0.00  0.00    +0.000 OA
ENDBRANCH  14  21
ENDBRANCH  10  17
ENDBRANCH   1  12
BRANCH   6  22
ATOM     22  S   UNL     1       4.253   3.483  18.187  0.00  0.00    +0.000 S 
BRANCH  22  23
ATOM     23  C   UNL     1       5.273   4.056  16.806  0.00  0.00    +0.000 C 
BRANCH  23  24
ATOM     24  C   UNL     1       6.169   5.208  17.243  0.00  0.00    +0.000 A 
ATOM     25  C   UNL     1       7.026   5.074  18.345  0.00  0.00    +0.000 A 
ATOM     26  C   UNL     1       7.821   6.143  18.781  0.00  0.00    +0.000 A 
ATOM     27  C   UNL     1       7.780   7.377  18.125  0.00  0.00    +0.000 A 
ATOM     28  C   UNL     1       8.625   8.529  18.586  0.00  0.00    +0.000 C 
ATOM     29  C   UNL     1       6.928   7.521  17.029  0.00  0.00    +0.000 A 
ATOM     30  C   UNL     1       6.129   6.453  16.592  0.00  0.00    +0.000 A 
ENDBRANCH  23  24
ENDBRANCH  22  23
ENDBRANCH   6  22
TORSDOF 6
ENDMDL
MODEL 3
REMARK VINA RESULT:      -8.1      4.715      8.487
REMARK  Name = 
REMARK  8 active torsions:
REMARK  status: ('A' for Active; 'I' for Inactive)
REMARK    1  A    between atoms: C_1  and  O_2
REMARK    2  A    between atoms: O_2  and  C_3
REMARK    3  A    between atoms: C_6  and  C_7
REMARK    4  A    between atoms: N_9  and  C_10
REMARK    5  A    between atoms: C_15  and  S_16
REMARK    6  A    between atoms: S_16  and  C_17
REMARK    7  A    between atoms: C_17  and  C_18
REMARK    8  A    between atoms: C_21  and  C_22
REMARK                            x       y       z     vdW  Elec       q    Type
REMARK                         _______ _______ _______ _____ _____    ______ ____
ROOT
ATOM      1  C   UNL     1       1.473   8.817  20.161  0.00  0.00    +0.000 A 
ATOM      2  C   UNL     1       1.682   9.007  18.796  0.00  0.00    +0.000 A 
ATOM      3  C   UNL     1       2.108   7.972  17.963  0.00  0.00    +0.000 A 
ATOM      4  C   UNL     1       2.358   6.702  18.495  0.00  0.00    +0.000 A 
ATOM      5  N   UNL     1       2.786   5.615  17.763  0.00  0.00    +0.000 NA
ATOM      6  C   UNL     1       3.014   4.586  18.542  0.00  0.00    +0.000 A 
ATOM      7  S   UNL     1       2.632   4.840  20.199  0.00  0.00    +0.000 S 
ATOM      8  C   UNL     1       2.199   6.501  19.867  0.00  0.00    +0.000 A 
ATOM      9  C   UNL     1       1.764   7.551  20.724  0.00  0.00    +0.000 A 
ENDROOT
BRANCH   1  12
ATOM     10  C   UNL     1      -0.208  10.561  20.770  0.00  0.00    +0.000 C 
ATOM     11  O   UNL     1      -1.030  10.258  19.906  0.00  0.00    +0.000 OA
ATOM     12  N   UNL     1       0.986   9.873  20.995  0.00  0.00    +0.000 N 
ATOM     13  H   UNL     1       1.489  10.044  21.852  0.00  0.00    +0.000 HD
BRANCH  10  17
ATOM     14  C   UNL     1      -1.458  13.810  23.346  0.00  0.00    +0.000 A 
ATOM     15  C   UNL     1      -2.074  12.567  23.391  0.00  0.00    +0.000 A 
ATOM     16  C   UNL     1      -1.631  11.537  22.556  0.00  0.00    +0.000 A 
ATOM     17  C   UNL     1      -0.575  11.729  21.644  0.00  0.00    +0.000 A 
ATOM     18  C   UNL     1       0.024  12.994  21.590  0.00  0.00    +0.000 A 
ATOM     19  C   UNL     1      -0.416  14.023  22.444  0.00  0.00    +0.000 A 
BRANCH  14  21
ATOM     20  C   UNL     1      -3.294  14.474  24.674  0.00  0.00    +0.000 C 
ATOM     21  O   UNL     1      -1.986  14.746  24.186  0.00  0.00    +0.000 OA
ENDBRANCH  14  21
ENDBRANCH  10  17
ENDBRANCH   1  12
BRANCH   6  22
ATOM     22  S   UNL     1       3.861   3.224  17.829  0.00  0.00    +0.000 S 
BRANCH  22  23
ATOM     23  C   UNL     1       4.921   3.874  16.513  0.00  0.00    +0.000 C 
BRANCH  23  24
ATOM     24  C   UNL     1       5.817   4.985  17.047  0.00  0.00    +0.000 A 
ATOM     25  C   UNL     1       5.756   6.279  16.509  0.00  0.00    +0.000 A 
ATOM     26  C   UNL     1       6.609   7.294  16.963  0.00  0.00    +0.000 A 
ATOM     27  C   UNL     1       7.545   7.043  17.969  0.00  0.00    +0.000 A 
ATOM     28  C   UNL     1       8.464   8.124  18.461  0.00  0.00    +0.000 C 
ATOM     29  C   UNL     1       7.616   5.758  18.509  0.00  0.00    +0.000 A 
ATOM     30  C   UNL     1       6.766   4.738  18.053  0.00  0.00    +0.000 A 
ENDBRANCH  23  24
ENDBRANCH  22  23
ENDBRANCH   6  22
TORSDOF 6
ENDMDL
MODEL 4
REMARK VINA RESULT:      -8.0      4.789      8.826
REMARK  Name = 
REMARK  8 active torsions:
REMARK  status: ('A' for Active; 'I' for Inactive)
REMARK    1  A    between atoms: C_1  and  O_2
REMARK    2  A    between atoms: O_2  and  C_3
REMARK    3  A    between atoms: C_6  and  C_7
REMARK    4  A    between atoms: N_9  and  C_10
REMARK    5  A    between atoms: C_15  and  S_16
REMARK    6  A    between atoms: S_16  and  C_17
REMARK    7  A    between atoms: C_17  and  C_18
REMARK    8  A    between atoms: C_21  and  C_22
REMARK                            x       y       z     vdW  Elec       q    Type
REMARK                         _______ _______ _______ _____ _____    ______ ____
ROOT
ATOM      1  C   UNL     1       0.951   9.135  19.902  0.00  0.00    +0.000 A 
ATOM      2  C   UNL     1       1.437   9.352  18.614  0.00  0.00    +0.000 A 
ATOM      3  C   UNL     1       2.215   8.403  17.949  0.00  0.00    +0.000 A 
ATOM      4  C   UNL     1       2.544   7.199  18.582  0.00  0.00    +0.000 A 
ATOM      5  N   UNL     1       3.307   6.199  18.018  0.00  0.00    +0.000 NA
ATOM      6  C   UNL     1       3.517   5.230  18.875  0.00  0.00    +0.000 A 
ATOM      7  S   UNL     1       2.721   5.422  20.387  0.00  0.00    +0.000 S 
ATOM      8  C   UNL     1       2.104   6.980  19.889  0.00  0.00    +0.000 A 
ATOM      9  C   UNL     1       1.310   7.943  20.574  0.00  0.00    +0.000 A 
ENDROOT
BRANCH   1  12
ATOM     10  C   UNL     1       0.586  11.215  21.236  0.00  0.00    +0.000 C 
ATOM     11  O   UNL     1       1.765  11.567  21.255  0.00  0.00    +0.000 OA
ATOM     12  N   UNL     1       0.111  10.095  20.552  0.00  0.00    +0.000 N 
ATOM     13  H   UNL     1      -0.883  10.004  20.404  0.00  0.00    +0.000 HD
BRANCH  10  17
ATOM     14  C   UNL     1      -2.327  13.589  23.389  0.00  0.00    +0.000 A 
ATOM     15  C   UNL     1      -2.429  12.206  23.310  0.00  0.00    +0.000 A 
ATOM     16  C   UNL     1      -1.460  11.472  22.621  0.00  0.00    +0.000 A 
ATOM     17  C   UNL     1      -0.375  12.102  21.979  0.00  0.00    +0.000 A 
ATOM     18  C   UNL     1      -0.294  13.499  22.045  0.00  0.00    +0.000 A 
ATOM     19  C   UNL     1      -1.265  14.231  22.754  0.00  0.00    +0.000 A 
BRANCH  14  21
ATOM     20  C   UNL     1      -4.656  13.888  23.633  0.00  0.00    +0.000 C 
ATOM     21  O   UNL     1      -3.339  14.205  24.066  0.00  0.00    +0.000 OA
ENDBRANCH  14  21
ENDBRANCH  10  17
ENDBRANCH   1  12
BRANCH   6  22
ATOM     22  S   UNL     1       4.725   4.033  18.439  0.00  0.00    +0.000 S 
BRANCH  22  23
ATOM     23  C   UNL     1       5.643   4.682  17.020  0.00  0.00    +0.000 C 
BRANCH  23  24
ATOM     24  C   UNL     1       6.526   5.850  17.443  0.00  0.00    +0.000 A 
ATOM     25  C   UNL     1       7.474   5.701  18.467  0.00  0.00    +0.000 A 
ATOM     26  C   UNL     1       8.258   6.782  18.892  0.00  0.00    +0.000 A 
ATOM     27  C   UNL     1       8.118   8.041  18.304  0.00  0.00    +0.000 A 
ATOM     28  C   UNL     1       8.952   9.205  18.753  0.00  0.00    +0.000 C 
ATOM     29  C   UNL     1       7.176   8.200  17.286  0.00  0.00    +0.000 A 
ATOM     30  C   UNL     1       6.386   7.121  16.861  0.00  0.00    +0.000 A 
ENDBRANCH  23  24
ENDBRANCH  22  23
ENDBRANCH   6  22
TORSDOF 6
ENDMDL
MODEL 5
REMARK VINA RESULT:      -8.0      6.237      9.929
REMARK  Name = 
REMARK  8 active torsions:
REMARK  status: ('A' for Active; 'I' for Inactive)
REMARK    1  A    between atoms: C_1  and  O_2
REMARK    2  A    between atoms: O_2  and  C_3
REMARK    3  A    between atoms: C_6  and  C_7
REMARK    4  A    between atoms: N_9  and  C_10
REMARK    5  A    between atoms: C_15  and  S_16
REMARK    6  A    between atoms: S_16  and  C_17
REMARK    7  A    between atoms: C_17  and  C_18
REMARK    8  A    between atoms: C_21  and  C_22
REMARK                            x       y       z     vdW  Elec       q    Type
REMARK                         _______ _______ _______ _____ _____    ______ ____
ROOT
ATOM      1  C   UNL     1       1.196   9.807  18.089  0.00  0.00    +0.000 A 
ATOM      2  C   UNL     1      -0.197   9.858  18.098  0.00  0.00    +0.000 A 
ATOM      3  C   UNL     1      -0.891  10.999  18.505  0.00  0.00    +0.000 A 
ATOM      4  C   UNL     1      -0.189  12.129  18.940  0.00  0.00    +0.000 A 
ATOM      5  N   UNL     1      -0.775  13.301  19.366  0.00  0.00    +0.000 NA
ATOM      6  C   UNL     1       0.129  14.150  19.790  0.00  0.00    +0.000 A 
ATOM      7  S   UNL     1       1.754  13.620  19.608  0.00  0.00    +0.000 S 
ATOM      8  C   UNL     1       1.206  12.083  18.982  0.00  0.00    +0.000 A 
ATOM      9  C   UNL     1       1.921  10.924  18.568  0.00  0.00    +0.000 A 
ENDROOT
BRANCH   1  12
ATOM     10  C   UNL     1       2.399   7.649  18.452  0.00  0.00    +0.000 C 
ATOM     11  O   UNL     1       2.195   7.586  19.664  0.00  0.00    +0.000 OA
ATOM     12  N   UNL     1       1.895   8.650  17.620  0.00  0.00    +0.000 N 
ATOM     13  H   UNL     1       1.921   8.508  16.622  0.00  0.00    +0.000 HD
BRANCH  10  17
ATOM     14  C   UNL     1       4.874   4.584  16.651  0.00  0.00    +0.000 A 
ATOM     15  C   UNL     1       5.223   5.927  16.596  0.00  0.00    +0.000 A 
ATOM     16  C   UNL     1       4.408   6.886  17.205  0.00  0.00    +0.000 A 
ATOM     17  C   UNL     1       3.216   6.529  17.866  0.00  0.00    +0.000 A 
ATOM     18  C   UNL     1       2.861   5.174  17.895  0.00  0.00    +0.000 A 
ATOM     19  C   UNL     1       3.694   4.212  17.294  0.00  0.00    +0.000 A 
BRANCH  14  21
ATOM     20  C   UNL     1       6.302   4.238  14.803  0.00  0.00    +0.000 C 
ATOM     21  O   UNL     1       5.728   3.739  16.005  0.00  0.00    +0.000 OA
ENDBRANCH  14  21
ENDBRANCH  10  17
ENDBRANCH   1  12
BRANCH   6  22
ATOM     22  S   UNL     1      -0.453  15.560  20.659  0.00  0.00    +0.000 S 
BRANCH  22  23
ATOM     23  C   UNL     1      -0.232  15.236  22.426  0.00  0.00    +0.000 C 
BRANCH  23  24
ATOM     24  C   UNL     1      -1.427  14.473  22.984  0.00  0.00    +0.000 A 
ATOM     25  C   UNL     1      -2.469  15.146  23.639  0.00  0.00    +0.000 A 
ATOM     26  C   UNL     1      -3.549  14.447  24.194  0.00  0.00    +0.000 A 
ATOM     27  C   UNL     1      -3.617  13.054  24.109  0.00  0.00    +0.000 A 
ATOM     28  C   UNL     1      -4.768  12.295  24.703  0.00  0.00    +0.000 C 
ATOM     29  C   UNL     1      -2.584  12.374  23.462  0.00  0.00    +0.000 A 
ATOM     30  C   UNL     1      -1.498  13.071  22.908  0.00  0.00    +0.000 A 
ENDBRANCH  23  24
ENDBRANCH  22  23
ENDBRANCH   6  22
TORSDOF 6
ENDMDL
MODEL 6
REMARK VINA RESULT:      -8.0      1.748      2.085
REMARK  Name = 
REMARK  8 active torsions:
REMARK  status: ('A' for Active; 'I' for Inactive)
REMARK    1  A    between atoms: C_1  and  O_2
REMARK    2  A    between atoms: O_2  and  C_3
REMARK    3  A    between atoms: C_6  and  C_7
REMARK    4  A    between atoms: N_9  and  C_10
REMARK    5  A    between atoms: C_15  and  S_16
REMARK    6  A    between atoms: S_16  and  C_17
REMARK    7  A    between atoms: C_17  and  C_18
REMARK    8  A    between atoms: C_21  and  C_22
REMARK                            x       y       z     vdW  Elec       q    Type
REMARK                         _______ _______ _______ _____ _____    ______ ____
ROOT
ATOM      1  C   UNL     1       7.674   6.938  18.130  0.00  0.00    +0.000 A 
ATOM      2  C   UNL     1       7.391   6.703  16.786  0.00  0.00    +0.000 A 
ATOM      3  C   UNL     1       6.478   5.727  16.384  0.00  0.00    +0.000 A 
ATOM      4  C   UNL     1       5.830   4.936  17.340  0.00  0.00    +0.000 A 
ATOM      5  N   UNL     1       4.917   3.945  17.051  0.00  0.00    +0.000 NA
ATOM      6  C   UNL     1       4.542   3.321  18.141  0.00  0.00    +0.000 A 
ATOM      7  S   UNL     1       5.196   3.960  19.597  0.00  0.00    +0.000 S 
ATOM      8  C   UNL     1       6.133   5.125  18.690  0.00  0.00    +0.000 A 
ATOM      9  C   UNL     1       7.062   6.119  19.108  0.00  0.00    +0.000 A 
ENDROOT
BRANCH   1  12
ATOM     10  C   UNL     1       8.397   9.327  18.223  0.00  0.00    +0.000 C 
ATOM     11  O   UNL     1       7.395   9.789  17.679  0.00  0.00    +0.000 OA
ATOM     12  N   UNL     1       8.573   7.977  18.531  0.00  0.00    +0.000 N 
ATOM     13  H   UNL     1       9.312   7.718  19.167  0.00  0.00    +0.000 HD
BRANCH  10  17
ATOM     14  C   UNL     1      11.348  12.224  19.510  0.00  0.00    +0.000 A 
ATOM     15  C   UNL     1      10.465  11.637  20.406  0.00  0.00    +0.000 A 
ATOM     16  C   UNL     1       9.538  10.692  19.956  0.00  0.00    +0.000 A 
ATOM     17  C   UNL     1       9.458  10.325  18.598  0.00  0.00    +0.000 A 
ATOM     18  C   UNL     1      10.338  10.941  17.699  0.00  0.00    +0.000 A 
ATOM     19  C   UNL     1      11.280  11.879  18.160  0.00  0.00    +0.000 A 
BRANCH  14  21
ATOM     20  C   UNL     1      11.925  14.503  19.722  0.00  0.00    +0.000 C 
ATOM     21  O   UNL     1      12.193  13.147  20.054  0.00  0.00    +0.000 OA
ENDBRANCH  14  21
ENDBRANCH  10  17
ENDBRANCH   1  12
BRANCH   6  22
ATOM     22  S   UNL     1       3.633   1.833  17.931  0.00  0.00    +0.000 S 
BRANCH  22  23
ATOM     23  C   UNL     1       1.894   2.210  18.263  0.00  0.00    +0.000 C 
BRANCH  23  24
ATOM     24  C   UNL     1       1.757   3.584  18.907  0.00  0.00    +0.000 A 
ATOM     25  C   UNL     1       1.860   4.753  18.139  0.00  0.00    +0.000 A 
ATOM     26  C   UNL     1       1.780   6.021  18.731  0.00  0.00    +0.000 A 
ATOM     27  C   UNL     1       1.594   6.154  20.109  0.00  0.00    +0.000 A 
ATOM     28  C   UNL     1       1.509   7.507  20.753  0.00  0.00    +0.000 C 
ATOM     29  C   UNL     1       1.492   4.997  20.884  0.00  0.00    +0.000 A 
ATOM     30  C   UNL     1       1.577   3.726  20.294  0.00  0.00    +0.000 A 
ENDBRANCH  23  24
ENDBRANCH  22  23
ENDBRANCH   6  22
TORSDOF 6
ENDMDL
MODEL 7
REMARK VINA RESULT:      -8.0      5.486      9.477
REMARK  Name = 
REMARK  8 active torsions:
REMARK  status: ('A' for Active; 'I' for Inactive)
REMARK    1  A    between atoms: C_1  and  O_2
REMARK    2  A    between atoms: O_2  and  C_3
REMARK    3  A    between atoms: C_6  and  C_7
REMARK    4  A    between atoms: N_9  and  C_10
REMARK    5  A    between atoms: C_15  and  S_16
REMARK    6  A    between atoms: S_16  and  C_17
REMARK    7  A    between atoms: C_17  and  C_18
REMARK    8  A    between atoms: C_21  and  C_22
REMARK                            x       y       z     vdW  Elec       q    Type
REMARK                         _______ _______ _______ _____ _____    ______ ____
ROOT
ATOM      1  C   UNL     1       0.651   9.530  19.696  0.00  0.00    +0.000 A 
ATOM      2  C   UNL     1       1.246   9.777  18.460  0.00  0.00    +0.000 A 
ATOM      3  C   UNL     1       2.145   8.881  17.881  0.00  0.00    +0.000 A 
ATOM      4  C   UNL     1       2.490   7.702  18.553  0.00  0.00    +0.000 A 
ATOM      5  N   UNL     1       3.370   6.754  18.074  0.00  0.00    +0.000 NA
ATOM      6  C   UNL     1       3.559   5.803  18.954  0.00  0.00    +0.000 A 
ATOM      7  S   UNL     1       2.608   5.943  20.380  0.00  0.00    +0.000 S 
ATOM      8  C   UNL     1       1.941   7.456  19.812  0.00  0.00    +0.000 A 
ATOM      9  C   UNL     1       1.022   8.365  20.409  0.00  0.00    +0.000 A 
ENDROOT
BRANCH   1  12
ATOM     10  C   UNL     1      -0.004  11.423  21.188  0.00  0.00    +0.000 C 
ATOM     11  O   UNL     1       1.139  11.711  21.544  0.00  0.00    +0.000 OA
ATOM     12  N   UNL     1      -0.310  10.432  20.254  0.00  0.00    +0.000 N 
ATOM     13  H   UNL     1      -1.237  10.411  19.857  0.00  0.00    +0.000 HD
BRANCH  10  17
ATOM     14  C   UNL     1      -3.255  13.604  23.040  0.00  0.00    +0.000 A 
ATOM     15  C   UNL     1      -2.914  12.320  23.446  0.00  0.00    +0.000 A 
ATOM     16  C   UNL     1      -1.847  11.654  22.837  0.00  0.00    +0.000 A 
ATOM     17  C   UNL     1      -1.106  12.247  21.795  0.00  0.00    +0.000 A 
ATOM     18  C   UNL     1      -1.473  13.532  21.377  0.00  0.00    +0.000 A 
ATOM     19  C   UNL     1      -2.539  14.204  22.005  0.00  0.00    +0.000 A 
BRANCH  14  21
ATOM     20  C   UNL     1      -5.452  13.296  23.847  0.00  0.00    +0.000 C 
ATOM     21  O   UNL     1      -4.325  14.148  23.687  0.00  0.00    +0.000 OA
ENDBRANCH  14  21
ENDBRANCH  10  17
ENDBRANCH   1  12
BRANCH   6  22
ATOM     22  S   UNL     1       4.880   4.688  18.647  0.00  0.00    +0.000 S 
BRANCH  22  23
ATOM     23  C   UNL     1       6.129   5.581  17.687  0.00  0.00    +0.000 C 
BRANCH  23  24
ATOM     24  C   UNL     1       6.173   5.065  16.254  0.00  0.00    +0.000 A 
ATOM     25  C   UNL     1       5.097   4.345  15.715  0.00  0.00    +0.000 A 
ATOM     26  C   UNL     1       5.148   3.828  14.414  0.00  0.00    +0.000 A 
ATOM     27  C   UNL     1       6.279   4.019  13.614  0.00  0.00    +0.000 A 
ATOM     28  C   UNL     1       6.345   3.468  12.219  0.00  0.00    +0.000 C 
ATOM     29  C   UNL     1       7.356   4.732  14.142  0.00  0.00    +0.000 A 
ATOM     30  C   UNL     1       7.309   5.247  15.447  0.00  0.00    +0.000 A 
ENDBRANCH  23  24
ENDBRANCH  22  23
ENDBRANCH   6  22
TORSDOF 6
ENDMDL
MODEL 8
REMARK VINA RESULT:      -7.9      4.728      8.496
REMARK  Name = 
REMARK  8 active torsions:
REMARK  status: ('A' for Active; 'I' for Inactive)
REMARK    1  A    between atoms: C_1  and  O_2
REMARK    2  A    between atoms: O_2  and  C_3
REMARK    3  A    between atoms: C_6  and  C_7
REMARK    4  A    between atoms: N_9  and  C_10
REMARK    5  A    between atoms: C_15  and  S_16
REMARK    6  A    between atoms: S_16  and  C_17
REMARK    7  A    between atoms: C_17  and  C_18
REMARK    8  A    between atoms: C_21  and  C_22
REMARK                            x       y       z     vdW  Elec       q    Type
REMARK                         _______ _______ _______ _____ _____    ______ ____
ROOT
ATOM      1  C   UNL     1       1.452   9.009  19.831  0.00  0.00    +0.000 A 
ATOM      2  C   UNL     1       1.608   9.049  18.447  0.00  0.00    +0.000 A 
ATOM      3  C   UNL     1       2.032   7.937  17.719  0.00  0.00    +0.000 A 
ATOM      4  C   UNL     1       2.335   6.740  18.379  0.00  0.00    +0.000 A 
ATOM      5  N   UNL     1       2.766   5.588  17.758  0.00  0.00    +0.000 NA
ATOM      6  C   UNL     1       3.049   4.659  18.637  0.00  0.00    +0.000 A 
ATOM      7  S   UNL     1       2.719   5.089  20.269  0.00  0.00    +0.000 S 
ATOM      8  C   UNL     1       2.230   6.691  19.771  0.00  0.00    +0.000 A 
ATOM      9  C   UNL     1       1.797   7.822  20.520  0.00  0.00    +0.000 A 
ENDROOT
BRANCH   1  12
ATOM     10  C   UNL     1      -0.106  10.096  21.452  0.00  0.00    +0.000 C 
ATOM     11  O   UNL     1      -0.673   9.062  21.803  0.00  0.00    +0.000 OA
ATOM     12  N   UNL     1       0.966  10.141  20.560  0.00  0.00    +0.000 N 
ATOM     13  H   UNL     1       1.510  10.988  20.499  0.00  0.00    +0.000 HD
BRANCH  10  17
ATOM     14  C   UNL     1      -1.734  13.632  23.350  0.00  0.00    +0.000 A 
ATOM     15  C   UNL     1      -2.230  12.365  23.624  0.00  0.00    +0.000 A 
ATOM     16  C   UNL     1      -1.667  11.245  23.005  0.00  0.00    +0.000 A 
ATOM     17  C   UNL     1      -0.608  11.366  22.084  0.00  0.00    +0.000 A 
ATOM     18  C   UNL     1      -0.131  12.651  21.797  0.00  0.00    +0.000 A 
ATOM     19  C   UNL     1      -0.691  13.773  22.435  0.00  0.00    +0.000 A 
BRANCH  14  21
ATOM     20  C   UNL     1      -1.928  15.964  23.667  0.00  0.00    +0.000 C 
ATOM     21  O   UNL     1      -2.373  14.653  23.991  0.00  0.00    +0.000 OA
ENDBRANCH  14  21
ENDBRANCH  10  17
ENDBRANCH   1  12
BRANCH   6  22
ATOM     22  S   UNL     1       3.907   3.245  18.049  0.00  0.00    +0.000 S 
BRANCH  22  23
ATOM     23  C   UNL     1       4.933   3.775  16.655  0.00  0.00    +0.000 C 
BRANCH  23  24
ATOM     24  C   UNL     1       5.854   4.916  17.070  0.00  0.00    +0.000 A 
ATOM     25  C   UNL     1       6.801   4.740  18.089  0.00  0.00    +0.000 A 
ATOM     26  C   UNL     1       7.621   5.797  18.508  0.00  0.00    +0.000 A 
ATOM     27  C   UNL     1       7.516   7.059  17.917  0.00  0.00    +0.000 A 
ATOM     28  C   UNL     1       8.388   8.198  18.359  0.00  0.00    +0.000 C 
ATOM     29  C   UNL     1       6.574   7.245  16.903  0.00  0.00    +0.000 A 
ATOM     30  C   UNL     1       5.749   6.189  16.485  0.00  0.00    +0.000 A 
ENDBRANCH  23  24
ENDBRANCH  22  23
ENDBRANCH   6  22
TORSDOF 6
ENDMDL
MODEL 9
REMARK VINA RESULT:      -7.9      5.503      9.237
REMARK  Name = 
REMARK  8 active torsions:
REMARK  status: ('A' for Active; 'I' for Inactive)
REMARK    1  A    between atoms: C_1  and  O_2
REMARK    2  A    between atoms: O_2  and  C_3
REMARK    3  A    between atoms: C_6  and  C_7
REMARK    4  A    between atoms: N_9  and  C_10
REMARK    5  A    between atoms: C_15  and  S_16
REMARK    6  A    between atoms: S_16  and  C_17
REMARK    7  A    between atoms: C_17  and  C_18
REMARK    8  A    between atoms: C_21  and  C_22
REMARK                            x       y       z     vdW  Elec       q    Type
REMARK                         _______ _______ _______ _____ _____    ______ ____
ROOT
ATOM      1  C   UNL     1       0.833   9.233  19.556  0.00  0.00    +0.000 A 
ATOM      2  C   UNL     1       1.502   9.478  18.359  0.00  0.00    +0.000 A 
ATOM      3  C   UNL     1       2.432   8.579  17.836  0.00  0.00    +0.000 A 
ATOM      4  C   UNL     1       2.733   7.400  18.527  0.00  0.00    +0.000 A 
ATOM      5  N   UNL     1       3.637   6.450  18.103  0.00  0.00    +0.000 NA
ATOM      6  C   UNL     1       3.770   5.499  18.994  0.00  0.00    +0.000 A 
ATOM      7  S   UNL     1       2.735   5.642  20.359  0.00  0.00    +0.000 S 
ATOM      8  C   UNL     1       2.108   7.156  19.752  0.00  0.00    +0.000 A 
ATOM      9  C   UNL     1       1.157   8.068  20.291  0.00  0.00    +0.000 A 
ENDROOT
BRANCH   1  12
ATOM     10  C   UNL     1       0.049  11.016  21.121  0.00  0.00    +0.000 C 
ATOM     11  O   UNL     1       1.135  11.196  21.670  0.00  0.00    +0.000 OA
ATOM     12  N   UNL     1      -0.158  10.138  20.055  0.00  0.00    +0.000 N 
ATOM     13  H   UNL     1      -1.012  10.214  19.525  0.00  0.00    +0.000 HD
BRANCH  10  17
ATOM     14  C   UNL     1      -3.221  13.542  22.419  0.00  0.00    +0.000 A 
ATOM     15  C   UNL     1      -2.734  13.591  21.119  0.00  0.00    +0.000 A 
ATOM     16  C   UNL     1      -1.689  12.747  20.732  0.00  0.00    +0.000 A 
ATOM     17  C   UNL     1      -1.093  11.848  21.638  0.00  0.00    +0.000 A 
ATOM     18  C   UNL     1      -1.576  11.823  22.953  0.00  0.00    +0.000 A 
ATOM     19  C   UNL     1      -2.638  12.663  23.332  0.00  0.00    +0.000 A 
BRANCH  14  21
ATOM     20  C   UNL     1      -4.612  15.273  21.620  0.00  0.00    +0.000 C 
ATOM     21  O   UNL     1      -4.225  14.424  22.692  0.00  0.00    +0.000 OA
ENDBRANCH  14  21
ENDBRANCH  10  17
ENDBRANCH   1  12
BRANCH   6  22
ATOM     22  S   UNL     1       5.104   4.380  18.767  0.00  0.00    +0.000 S 
BRANCH  22  23
ATOM     23  C   UNL     1       6.380   5.245  17.817  0.00  0.00    +0.000 C 
BRANCH  23  24
ATOM     24  C   UNL     1       6.332   4.830  16.352  0.00  0.00    +0.000 A 
ATOM     25  C   UNL     1       5.304   4.005  15.872  0.00  0.00    +0.000 A 
ATOM     26  C   UNL     1       5.277   3.581  14.536  0.00  0.00    +0.000 A 
ATOM     27  C   UNL     1       6.278   3.973  13.643  0.00  0.00    +0.000 A 
ATOM     28  C   UNL     1       6.259   3.524  12.211  0.00  0.00    +0.000 C 
ATOM     29  C   UNL     1       7.306   4.793  14.111  0.00  0.00    +0.000 A 
ATOM     30  C   UNL     1       7.338   5.214  15.450  0.00  0.00    +0.000 A 
ENDBRANCH  23  24
ENDBRANCH  22  23
ENDBRANCH   6  22
TORSDOF 6
ENDMDL
