MODEL 1
REMARK VINA RESULT:      -8.0      0.000      0.000
REMARK  Name = 
REMARK  5 active torsions:
REMARK  status: ('A' for Active; 'I' for Inactive)
REMARK    1  A    between atoms: C_1  and  C_2
REMARK    2  A    between atoms: N_5  and  C_6
REMARK    3  A    between atoms: N_9  and  C_10
REMARK    4  A    between atoms: C_10  and  C_11
REMARK    5  A    between atoms: C_10  and  C_12
REMARK                            x       y       z     vdW  Elec       q    Type
REMARK                         _______ _______ _______ _____ _____    ______ ____
ROOT
ATOM      1  C   UNL     1       4.128   4.531  19.357  0.00  0.00    +0.000 A 
ATOM      2  N   UNL     1       3.760   5.752  19.806  0.00  0.00    +0.000 NA
ATOM      3  C   UNL     1       2.475   5.994  20.080  0.00  0.00    +0.000 A 
ATOM      4  N   UNL     1       2.234   7.223  20.655  0.00  0.00    +0.000 N 
ATOM      5  N   UNL     1       1.502   5.099  19.913  0.00  0.00    +0.000 NA
ATOM      6  C   UNL     1       1.880   3.879  19.472  0.00  0.00    +0.000 A 
ATOM      7  C   UNL     1       3.181   3.536  19.181  0.00  0.00    +0.000 A 
ATOM      8 CL   UNL     1       3.574   1.937  18.685  0.00  0.00    +0.000 Cl
ATOM      9  H   UNL     1       3.066   7.788  20.547  0.00  0.00    +0.000 HD
ENDROOT
BRANCH   1  14
ATOM     10  C   UNL     1       6.814   4.784  14.355  0.00  0.00    +0.000 C 
ATOM     11  C   UNL     1       6.740   4.599  15.819  0.00  0.00    +0.000 A 
ATOM     12  C   UNL     1       5.662   4.452  16.657  0.00  0.00    +0.000 A 
ATOM     13  C   UNL     1       6.195   4.354  17.962  0.00  0.00    +0.000 A 
ATOM     14  N   UNL     1       5.494   4.262  19.110  0.00  0.00    +0.000 N 
ATOM     15  N   UNL     1       7.533   4.383  17.933  0.00  0.00    +0.000 NA
ATOM     16  N   UNL     1       7.833   4.560  16.636  0.00  0.00    +0.000 N 
ATOM     17  H   UNL     1       6.048   4.187  19.956  0.00  0.00    +0.000 HD
ATOM     18  H   UNL     1       8.810   4.652  16.378  0.00  0.00    +0.000 HD
ENDBRANCH   1  14
BRANCH   4  19
ATOM     19  C   UNL     1       0.967   7.883  20.414  0.00  0.00    +0.000 C 
ATOM     20  C   UNL     1       0.260   8.052  21.764  0.00  0.00    +0.000 C 
BRANCH  19  21
ATOM     21  C   UNL     1       1.170   9.238  19.742  0.00  0.00    +0.000 A 
ATOM     22  C   UNL     1       0.793  10.415  20.412  0.00  0.00    +0.000 A 
ATOM     23  C   UNL     1       1.010  11.668  19.832  0.00  0.00    +0.000 A 
ATOM     24  C   UNL     1       1.597  11.748  18.575  0.00  0.00    +0.000 A 
ATOM     25  F   UNL     1       1.811  12.950  18.021  0.00  0.00    +0.000 F 
ATOM     26  C   UNL     1       1.971  10.601  17.887  0.00  0.00    +0.000 A 
ATOM     27  C   UNL     1       1.758   9.350  18.467  0.00  0.00    +0.000 A 
ENDBRANCH  19  21
ENDBRANCH   4  19
TORSDOF 3
ENDMDL
MODEL 2
REMARK VINA RESULT:      -7.8      4.180      7.886
REMARK  Name = 
REMARK  5 active torsions:
REMARK  status: ('A' for Active; 'I' for Inactive)
REMARK    1  A    between atoms: C_1  and  C_2
REMARK    2  A    between atoms: N_5  and  C_6
REMARK    3  A    between atoms: N_9  and  C_10
REMARK    4  A    between atoms: C_10  and  C_11
REMARK    5  A    between atoms: C_10  and  C_12
REMARK                            x       y       z     vdW  Elec       q    Type
REMARK                         _______ _______ _______ _____ _____    ______ ____
ROOT
ATOM      1  C   UNL     1       0.953   9.766  19.840  0.00  0.00    +0.000 A 
ATOM      2  N   UNL     1       1.595   8.778  19.175  0.00  0.00    +0.000 NA
ATOM      3  C   UNL     1       1.912   7.649  19.816  0.00  0.00    +0.000 A 
ATOM      4  N   UNL     1       2.443   6.664  19.012  0.00  0.00    +0.000 N 
ATOM      5  N   UNL     1       1.655   7.434  21.106  0.00  0.00    +0.000 NA
ATOM      6  C   UNL     1       1.005   8.422  21.759  0.00  0.00    +0.000 A 
ATOM      7  C   UNL     1       0.625   9.609  21.176  0.00  0.00    +0.000 A 
ATOM      8 CL   UNL     1      -0.255  10.783  22.074  0.00  0.00    +0.000 Cl
ATOM      9  H   UNL     1       2.692   7.084  18.126  0.00  0.00    +0.000 HD
ENDROOT
BRANCH   1  14
ATOM     10  C   UNL     1      -3.420  10.378  16.263  0.00  0.00    +0.000 C 
ATOM     11  C   UNL     1      -2.267  10.859  17.050  0.00  0.00    +0.000 A 
ATOM     12  C   UNL     1      -1.287  10.175  17.728  0.00  0.00    +0.000 A 
ATOM     13  C   UNL     1      -0.472  11.159  18.331  0.00  0.00    +0.000 A 
ATOM     14  N   UNL     1       0.578  10.940  19.148  0.00  0.00    +0.000 N 
ATOM     15  N   UNL     1      -0.888  12.388  18.003  0.00  0.00    +0.000 NA
ATOM     16  N   UNL     1      -1.985  12.178  17.257  0.00  0.00    +0.000 N 
ATOM     17  H   UNL     1       1.055  11.771  19.479  0.00  0.00    +0.000 HD
ATOM     18  H   UNL     1      -2.499  12.987  16.923  0.00  0.00    +0.000 HD
ENDBRANCH   1  14
BRANCH   4  19
ATOM     19  C   UNL     1       3.391   5.724  19.573  0.00  0.00    +0.000 C 
ATOM     20  C   UNL     1       2.621   4.460  19.972  0.00  0.00    +0.000 C 
BRANCH  19  21
ATOM     21  C   UNL     1       4.492   5.387  18.572  0.00  0.00    +0.000 A 
ATOM     22  C   UNL     1       5.833   5.346  18.992  0.00  0.00    +0.000 A 
ATOM     23  C   UNL     1       6.852   4.998  18.101  0.00  0.00    +0.000 A 
ATOM     24  C   UNL     1       6.534   4.697  16.783  0.00  0.00    +0.000 A 
ATOM     25  F   UNL     1       7.511   4.358  15.929  0.00  0.00    +0.000 F 
ATOM     26  C   UNL     1       5.219   4.739  16.337  0.00  0.00    +0.000 A 
ATOM     27  C   UNL     1       4.201   5.083  17.227  0.00  0.00    +0.000 A 
ENDBRANCH  19  21
ENDBRANCH   4  19
TORSDOF 3
ENDMDL
MODEL 3
REMARK VINA RESULT:      -7.8      4.106      7.956
REMARK  Name = 
REMARK  5 active torsions:
REMARK  status: ('A' for Active; 'I' for Inactive)
REMARK    1  A    between atoms: C_1  and  C_2
REMARK    2  A    between atoms: N_5  and  C_6
REMARK    3  A    between atoms: N_9  and  C_10
REMARK    4  A    between atoms: C_10  and  C_11
REMARK    5  A    between atoms: C_10  and  C_12
REMARK                            x       y       z     vdW  Elec       q    Type
REMARK                         _______ _______ _______ _____ _____    ______ ____
ROOT
ATOM      1  C   UNL     1       1.183   9.506  19.515  0.00  0.00    +0.000 A 
ATOM      2  N   UNL     1       1.793   8.615  18.699  0.00  0.00    +0.000 NA
ATOM      3  C   UNL     1       2.115   7.406  19.167  0.00  0.00    +0.000 A 
ATOM      4  N   UNL     1       2.608   6.538  18.217  0.00  0.00    +0.000 N 
ATOM      5  N   UNL     1       1.895   7.015  20.422  0.00  0.00    +0.000 NA
ATOM      6  C   UNL     1       1.278   7.908  21.227  0.00  0.00    +0.000 A 
ATOM      7  C   UNL     1       0.894   9.168  20.827  0.00  0.00    +0.000 A 
ATOM      8 CL   UNL     1       0.058  10.212  21.907  0.00  0.00    +0.000 Cl
ATOM      9  H   UNL     1       2.835   7.075  17.390  0.00  0.00    +0.000 HD
ENDROOT
BRANCH   1  14
ATOM     10  C   UNL     1      -3.710  10.816  16.940  0.00  0.00    +0.000 C 
ATOM     11  C   UNL     1      -2.385  11.123  17.517  0.00  0.00    +0.000 A 
ATOM     12  C   UNL     1      -1.367  10.298  17.930  0.00  0.00    +0.000 A 
ATOM     13  C   UNL     1      -0.358  11.150  18.434  0.00  0.00    +0.000 A 
ATOM     14  N   UNL     1       0.801  10.768  19.006  0.00  0.00    +0.000 N 
ATOM     15  N   UNL     1      -0.705  12.435  18.292  0.00  0.00    +0.000 NA
ATOM     16  N   UNL     1      -1.939  12.389  17.765  0.00  0.00    +0.000 N 
ATOM     17  H   UNL     1       1.414  11.521  19.299  0.00  0.00    +0.000 HD
ATOM     18  H   UNL     1      -2.425  13.266  17.605  0.00  0.00    +0.000 HD
ENDBRANCH   1  14
BRANCH   4  19
ATOM     19  C   UNL     1       3.561   5.521  18.612  0.00  0.00    +0.000 C 
ATOM     20  C   UNL     1       2.798   4.204  18.792  0.00  0.00    +0.000 C 
BRANCH  19  21
ATOM     21  C   UNL     1       4.663   5.363  17.567  0.00  0.00    +0.000 A 
ATOM     22  C   UNL     1       4.581   4.332  16.614  0.00  0.00    +0.000 A 
ATOM     23  C   UNL     1       5.557   4.196  15.623  0.00  0.00    +0.000 A 
ATOM     24  C   UNL     1       6.623   5.086  15.585  0.00  0.00    +0.000 A 
ATOM     25  F   UNL     1       7.556   4.959  14.630  0.00  0.00    +0.000 F 
ATOM     26  C   UNL     1       6.734   6.108  16.519  0.00  0.00    +0.000 A 
ATOM     27  C   UNL     1       5.758   6.246  17.507  0.00  0.00    +0.000 A 
ENDBRANCH  19  21
ENDBRANCH   4  19
TORSDOF 3
ENDMDL
MODEL 4
REMARK VINA RESULT:      -7.7      3.463      5.123
REMARK  Name = 
REMARK  5 active torsions:
REMARK  status: ('A' for Active; 'I' for Inactive)
REMARK    1  A    between atoms: C_1  and  C_2
REMARK    2  A    between atoms: N_5  and  C_6
REMARK    3  A    between atoms: N_9  and  C_10
REMARK    4  A    between atoms: C_10  and  C_11
REMARK    5  A    between atoms: C_10  and  C_12
REMARK                            x       y       z     vdW  Elec       q    Type
REMARK                         _______ _______ _______ _____ _____    ______ ____
ROOT
ATOM      1  C   UNL     1       6.612   5.691  16.759  0.00  0.00    +0.000 A 
ATOM      2  N   UNL     1       5.475   6.424  16.741  0.00  0.00    +0.000 NA
ATOM      3  C   UNL     1       4.776   6.585  17.869  0.00  0.00    +0.000 A 
ATOM      4  N   UNL     1       3.713   7.455  17.765  0.00  0.00    +0.000 N 
ATOM      5  N   UNL     1       5.117   6.036  19.035  0.00  0.00    +0.000 NA
ATOM      6  C   UNL     1       6.259   5.313  19.045  0.00  0.00    +0.000 A 
ATOM      7  C   UNL     1       7.050   5.109  17.938  0.00  0.00    +0.000 A 
ATOM      8 CL   UNL     1       8.520   4.226  18.062  0.00  0.00    +0.000 Cl
ATOM      9  H   UNL     1       3.545   7.628  16.782  0.00  0.00    +0.000 HD
ENDROOT
BRANCH   1  14
ATOM     10  C   UNL     1       5.145   2.883  12.042  0.00  0.00    +0.000 C 
ATOM     11  C   UNL     1       6.022   3.745  12.859  0.00  0.00    +0.000 A 
ATOM     12  C   UNL     1       6.006   4.037  14.202  0.00  0.00    +0.000 A 
ATOM     13  C   UNL     1       7.061   4.953  14.414  0.00  0.00    +0.000 A 
ATOM     14  N   UNL     1       7.374   5.560  15.576  0.00  0.00    +0.000 N 
ATOM     15  N   UNL     1       7.731   5.177  13.277  0.00  0.00    +0.000 NA
ATOM     16  N   UNL     1       7.069   4.461  12.354  0.00  0.00    +0.000 N 
ATOM     17  H   UNL     1       8.175   6.180  15.543  0.00  0.00    +0.000 HD
ATOM     18  H   UNL     1       7.385   4.512  11.391  0.00  0.00    +0.000 HD
ENDBRANCH   1  14
BRANCH   4  19
ATOM     19  C   UNL     1       2.545   7.252  18.597  0.00  0.00    +0.000 C 
ATOM     20  C   UNL     1       1.395   8.073  18.002  0.00  0.00    +0.000 C 
BRANCH  19  21
ATOM     21  C   UNL     1       2.169   5.775  18.666  0.00  0.00    +0.000 A 
ATOM     22  C   UNL     1       1.883   5.183  19.909  0.00  0.00    +0.000 A 
ATOM     23  C   UNL     1       1.495   3.843  19.991  0.00  0.00    +0.000 A 
ATOM     24  C   UNL     1       1.399   3.086  18.829  0.00  0.00    +0.000 A 
ATOM     25  F   UNL     1       1.021   1.802  18.906  0.00  0.00    +0.000 F 
ATOM     26  C   UNL     1       1.685   3.642  17.589  0.00  0.00    +0.000 A 
ATOM     27  C   UNL     1       2.069   4.981  17.506  0.00  0.00    +0.000 A 
ENDBRANCH  19  21
ENDBRANCH   4  19
TORSDOF 3
ENDMDL
MODEL 5
REMARK VINA RESULT:      -7.6      3.983      7.672
REMARK  Name = 
REMARK  5 active torsions:
REMARK  status: ('A' for Active; 'I' for Inactive)
REMARK    1  A    between atoms: C_1  and  C_2
REMARK    2  A    between atoms: N_5  and  C_6
REMARK    3  A    between atoms: N_9  and  C_10
REMARK    4  A    between atoms: C_10  and  C_11
REMARK    5  A    between atoms: C_10  and  C_12
REMARK                            x       y       z     vdW  Elec       q    Type
REMARK                         _______ _______ _______ _____ _____    ______ ____
ROOT
ATOM      1  C   UNL     1       1.389   9.245  19.317  0.00  0.00    +0.000 A 
ATOM      2  N   UNL     1       1.914   8.350  18.448  0.00  0.00    +0.000 NA
ATOM      3  C   UNL     1       2.183   7.109  18.862  0.00  0.00    +0.000 A 
ATOM      4  N   UNL     1       2.588   6.248  17.865  0.00  0.00    +0.000 N 
ATOM      5  N   UNL     1       1.990   6.687  20.111  0.00  0.00    +0.000 NA
ATOM      6  C   UNL     1       1.456   7.584  20.970  0.00  0.00    +0.000 A 
ATOM      7  C   UNL     1       1.132   8.878  20.628  0.00  0.00    +0.000 A 
ATOM      8 CL   UNL     1       0.399   9.929  21.774  0.00  0.00    +0.000 Cl
ATOM      9  H   UNL     1       2.814   6.800  17.048  0.00  0.00    +0.000 HD
ENDROOT
BRANCH   1  14
ATOM     10  C   UNL     1      -3.640  11.015  17.351  0.00  0.00    +0.000 C 
ATOM     11  C   UNL     1      -2.235  11.197  17.768  0.00  0.00    +0.000 A 
ATOM     12  C   UNL     1      -1.251  10.281  18.052  0.00  0.00    +0.000 A 
ATOM     13  C   UNL     1      -0.119  11.034  18.438  0.00  0.00    +0.000 A 
ATOM     14  N   UNL     1       1.062  10.544  18.866  0.00  0.00    +0.000 N 
ATOM     15  N   UNL     1      -0.367  12.346  18.347  0.00  0.00    +0.000 NA
ATOM     16  N   UNL     1      -1.654  12.415  17.970  0.00  0.00    +0.000 N 
ATOM     17  H   UNL     1       1.767  11.236  19.089  0.00  0.00    +0.000 HD
ATOM     18  H   UNL     1      -2.077  13.333  17.875  0.00  0.00    +0.000 HD
ENDBRANCH   1  14
BRANCH   4  19
ATOM     19  C   UNL     1       3.495   5.166  18.187  0.00  0.00    +0.000 C 
ATOM     20  C   UNL     1       3.357   4.096  17.098  0.00  0.00    +0.000 C 
BRANCH  19  21
ATOM     21  C   UNL     1       4.936   5.661  18.272  0.00  0.00    +0.000 A 
ATOM     22  C   UNL     1       5.403   6.617  17.352  0.00  0.00    +0.000 A 
ATOM     23  C   UNL     1       6.706   7.115  17.438  0.00  0.00    +0.000 A 
ATOM     24  C   UNL     1       7.550   6.653  18.441  0.00  0.00    +0.000 A 
ATOM     25  F   UNL     1       8.798   7.136  18.527  0.00  0.00    +0.000 F 
ATOM     26  C   UNL     1       7.119   5.703  19.357  0.00  0.00    +0.000 A 
ATOM     27  C   UNL     1       5.817   5.207  19.273  0.00  0.00    +0.000 A 
ENDBRANCH  19  21
ENDBRANCH   4  19
TORSDOF 3
ENDMDL
MODEL 6
REMARK VINA RESULT:      -7.6      4.295      7.908
REMARK  Name = 
REMARK  5 active torsions:
REMARK  status: ('A' for Active; 'I' for Inactive)
REMARK    1  A    between atoms: C_1  and  C_2
REMARK    2  A    between atoms: N_5  and  C_6
REMARK    3  A    between atoms: N_9  and  C_10
REMARK    4  A    between atoms: C_10  and  C_11
REMARK    5  A    between atoms: C_10  and  C_12
REMARK                            x       y       z     vdW  Elec       q    Type
REMARK                         _______ _______ _______ _____ _____    ______ ____
ROOT
ATOM      1  C   UNL     1       0.574  10.040  19.990  0.00  0.00    +0.000 A 
ATOM      2  N   UNL     1       1.174   9.116  19.205  0.00  0.00    +0.000 NA
ATOM      3  C   UNL     1       1.723   8.033  19.763  0.00  0.00    +0.000 A 
ATOM      4  N   UNL     1       2.187   7.098  18.863  0.00  0.00    +0.000 N 
ATOM      5  N   UNL     1       1.745   7.808  21.076  0.00  0.00    +0.000 NA
ATOM      6  C   UNL     1       1.135   8.731  21.852  0.00  0.00    +0.000 A 
ATOM      7  C   UNL     1       0.528   9.867  21.363  0.00  0.00    +0.000 A 
ATOM      8 CL   UNL     1      -0.277  10.954  22.424  0.00  0.00    +0.000 Cl
ATOM      9  H   UNL     1       2.215   7.531  17.949  0.00  0.00    +0.000 HD
ENDROOT
BRANCH   1  14
ATOM     10  C   UNL     1      -3.143  10.009  15.692  0.00  0.00    +0.000 C 
ATOM     11  C   UNL     1      -2.346  10.648  16.758  0.00  0.00    +0.000 A 
ATOM     12  C   UNL     1      -1.317  10.166  17.529  0.00  0.00    +0.000 A 
ATOM     13  C   UNL     1      -0.969  11.214  18.412  0.00  0.00    +0.000 A 
ATOM     14  N   UNL     1      -0.047  11.162  19.394  0.00  0.00    +0.000 N 
ATOM     15  N   UNL     1      -1.703  12.306  18.167  0.00  0.00    +0.000 NA
ATOM     16  N   UNL     1      -2.542  11.929  17.188  0.00  0.00    +0.000 N 
ATOM     17  H   UNL     1       0.078  12.018  19.922  0.00  0.00    +0.000 HD
ATOM     18  H   UNL     1      -3.230  12.600  16.863  0.00  0.00    +0.000 HD
ENDBRANCH   1  14
BRANCH   4  19
ATOM     19  C   UNL     1       3.317   6.267  19.222  0.00  0.00    +0.000 C 
ATOM     20  C   UNL     1       2.788   5.071  20.021  0.00  0.00    +0.000 C 
BRANCH  19  21
ATOM     21  C   UNL     1       4.068   5.792  17.981  0.00  0.00    +0.000 A 
ATOM     22  C   UNL     1       4.136   4.419  17.686  0.00  0.00    +0.000 A 
ATOM     23  C   UNL     1       4.783   3.967  16.533  0.00  0.00    +0.000 A 
ATOM     24  C   UNL     1       5.371   4.886  15.672  0.00  0.00    +0.000 A 
ATOM     25  F   UNL     1       5.985   4.453  14.562  0.00  0.00    +0.000 F 
ATOM     26  C   UNL     1       5.327   6.248  15.943  0.00  0.00    +0.000 A 
ATOM     27  C   UNL     1       4.679   6.700  17.093  0.00  0.00    +0.000 A 
ENDBRANCH  19  21
ENDBRANCH   4  19
TORSDOF 3
ENDMDL
MODEL 7
REMARK VINA RESULT:      -7.5      2.894      3.644
REMARK  Name = 
REMARK  5 active torsions:
REMARK  status: ('A' for Active; 'I' for Inactive)
REMARK    1  A    between atoms: C_1  and  C_2
REMARK    2  A    between atoms: N_5  and  C_6
REMARK    3  A    between atoms: N_9  and  C_10
REMARK    4  A    between atoms: C_10  and  C_11
REMARK    5  A    between atoms: C_10  and  C_12
REMARK                            x       y       z     vdW  Elec       q    Type
REMARK                         _______ _______ _______ _____ _____    ______ ____
ROOT
ATOM      1  C   UNL     1       2.248   6.513  18.697  0.00  0.00    +0.000 A 
ATOM      2  N   UNL     1       1.983   7.764  18.257  0.00  0.00    +0.000 NA
ATOM      3  C   UNL     1       1.632   8.710  19.133  0.00  0.00    +0.000 A 
ATOM      4  N   UNL     1       1.515   9.974  18.594  0.00  0.00    +0.000 N 
ATOM      5  N   UNL     1       1.495   8.494  20.440  0.00  0.00    +0.000 NA
ATOM      6  C   UNL     1       1.771   7.243  20.872  0.00  0.00    +0.000 A 
ATOM      7  C   UNL     1       2.156   6.212  20.046  0.00  0.00    +0.000 A 
ATOM      8 CL   UNL     1       2.546   4.669  20.696  0.00  0.00    +0.000 Cl
ATOM      9  H   UNL     1       1.505   9.885  17.587  0.00  0.00    +0.000 HD
ENDROOT
BRANCH   1  14
ATOM     10  C   UNL     1       7.564   4.748  17.745  0.00  0.00    +0.000 C 
ATOM     11  C   UNL     1       6.099   4.718  17.563  0.00  0.00    +0.000 A 
ATOM     12  C   UNL     1       5.122   5.600  17.955  0.00  0.00    +0.000 A 
ATOM     13  C   UNL     1       3.896   5.031  17.542  0.00  0.00    +0.000 A 
ATOM     14  N   UNL     1       2.663   5.524  17.775  0.00  0.00    +0.000 N 
ATOM     15  N   UNL     1       4.102   3.885  16.880  0.00  0.00    +0.000 NA
ATOM     16  N   UNL     1       5.432   3.707  16.933  0.00  0.00    +0.000 N 
ATOM     17  H   UNL     1       1.896   4.986  17.390  0.00  0.00    +0.000 HD
ATOM     18  H   UNL     1       5.819   2.864  16.520  0.00  0.00    +0.000 HD
ENDBRANCH   1  14
BRANCH   4  19
ATOM     19  C   UNL     1       0.571  10.907  19.173  0.00  0.00    +0.000 C 
ATOM     20  C   UNL     1       1.149  12.319  19.018  0.00  0.00    +0.000 C 
BRANCH  19  21
ATOM     21  C   UNL     1      -0.790  10.808  18.491  0.00  0.00    +0.000 A 
ATOM     22  C   UNL     1      -1.843  11.644  18.903  0.00  0.00    +0.000 A 
ATOM     23  C   UNL     1      -3.085  11.598  18.263  0.00  0.00    +0.000 A 
ATOM     24  C   UNL     1      -3.282  10.710  17.213  0.00  0.00    +0.000 A 
ATOM     25  F   UNL     1      -4.471  10.670  16.596  0.00  0.00    +0.000 F 
ATOM     26  C   UNL     1      -2.263   9.865  16.792  0.00  0.00    +0.000 A 
ATOM     27  C   UNL     1      -1.022   9.913  17.428  0.00  0.00    +0.000 A 
ENDBRANCH  19  21
ENDBRANCH   4  19
TORSDOF 3
ENDMDL
MODEL 8
REMARK VINA RESULT:      -7.4      3.915      7.492
REMARK  Name = 
REMARK  5 active torsions:
REMARK  status: ('A' for Active; 'I' for Inactive)
REMARK    1  A    between atoms: C_1  and  C_2
REMARK    2  A    between atoms: N_5  and  C_6
REMARK    3  A    between atoms: N_9  and  C_10
REMARK    4  A    between atoms: C_10  and  C_11
REMARK    5  A    between atoms: C_10  and  C_12
REMARK                            x       y       z     vdW  Elec       q    Type
REMARK                         _______ _______ _______ _____ _____    ______ ____
ROOT
ATOM      1  C   UNL     1       1.444   8.934  19.375  0.00  0.00    +0.000 A 
ATOM      2  N   UNL     1       1.994   8.114  18.449  0.00  0.00    +0.000 NA
ATOM      3  C   UNL     1       2.335   6.869  18.791  0.00  0.00    +0.000 A 
ATOM      4  N   UNL     1       2.761   6.083  17.742  0.00  0.00    +0.000 N 
ATOM      5  N   UNL     1       2.193   6.373  20.020  0.00  0.00    +0.000 NA
ATOM      6  C   UNL     1       1.634   7.196  20.936  0.00  0.00    +0.000 A 
ATOM      7  C   UNL     1       1.236   8.486  20.669  0.00  0.00    +0.000 A 
ATOM      8 CL   UNL     1       0.478   9.437  21.884  0.00  0.00    +0.000 Cl
ATOM      9  H   UNL     1       2.940   6.688  16.951  0.00  0.00    +0.000 HD
ENDROOT
BRANCH   1  14
ATOM     10  C   UNL     1      -3.270  10.371  16.547  0.00  0.00    +0.000 C 
ATOM     11  C   UNL     1      -2.019  10.653  17.280  0.00  0.00    +0.000 A 
ATOM     12  C   UNL     1      -0.998   9.824  17.675  0.00  0.00    +0.000 A 
ATOM     13  C   UNL     1      -0.083  10.642  18.377  0.00  0.00    +0.000 A 
ATOM     14  N   UNL     1       1.041  10.236  19.000  0.00  0.00    +0.000 N 
ATOM     15  N   UNL     1      -0.485  11.919  18.370  0.00  0.00    +0.000 NA
ATOM     16  N   UNL     1      -1.665  11.892  17.729  0.00  0.00    +0.000 N 
ATOM     17  H   UNL     1       1.585  10.968  19.443  0.00  0.00    +0.000 HD
ATOM     18  H   UNL     1      -2.180  12.762  17.639  0.00  0.00    +0.000 HD
ENDBRANCH   1  14
BRANCH   4  19
ATOM     19  C   UNL     1       3.729   5.034  17.988  0.00  0.00    +0.000 C 
ATOM     20  C   UNL     1       3.724   4.095  16.776  0.00  0.00    +0.000 C 
BRANCH  19  21
ATOM     21  C   UNL     1       5.123   5.613  18.211  0.00  0.00    +0.000 A 
ATOM     22  C   UNL     1       5.896   5.176  19.301  0.00  0.00    +0.000 A 
ATOM     23  C   UNL     1       7.192   5.661  19.500  0.00  0.00    +0.000 A 
ATOM     24  C   UNL     1       7.717   6.592  18.613  0.00  0.00    +0.000 A 
ATOM     25  F   UNL     1       8.962   7.054  18.799  0.00  0.00    +0.000 F 
ATOM     26  C   UNL     1       6.973   7.049  17.532  0.00  0.00    +0.000 A 
ATOM     27  C   UNL     1       5.681   6.562  17.332  0.00  0.00    +0.000 A 
ENDBRANCH  19  21
ENDBRANCH   4  19
TORSDOF 3
ENDMDL
MODEL 9
REMARK VINA RESULT:      -7.3      1.804      2.270
REMARK  Name = 
REMARK  5 active torsions:
REMARK  status: ('A' for Active; 'I' for Inactive)
REMARK    1  A    between atoms: C_1  and  C_2
REMARK    2  A    between atoms: N_5  and  C_6
REMARK    3  A    between atoms: N_9  and  C_10
REMARK    4  A    between atoms: C_10  and  C_11
REMARK    5  A    between atoms: C_10  and  C_12
REMARK                            x       y       z     vdW  Elec       q    Type
REMARK                         _______ _______ _______ _____ _____    ______ ____
ROOT
ATOM      1  C   UNL     1       2.426   4.927  18.593  0.00  0.00    +0.000 A 
ATOM      2  N   UNL     1       2.419   6.218  18.997  0.00  0.00    +0.000 NA
ATOM      3  C   UNL     1       1.803   6.549  20.135  0.00  0.00    +0.000 A 
ATOM      4  N   UNL     1       1.971   7.862  20.517  0.00  0.00    +0.000 N 
ATOM      5  N   UNL     1       1.155   5.676  20.907  0.00  0.00    +0.000 NA
ATOM      6  C   UNL     1       1.175   4.387  20.500  0.00  0.00    +0.000 A 
ATOM      7  C   UNL     1       1.799   3.953  19.352  0.00  0.00    +0.000 A 
ATOM      8 CL   UNL     1       1.823   2.282  18.949  0.00  0.00    +0.000 Cl
ATOM      9  H   UNL     1       2.351   8.371  19.729  0.00  0.00    +0.000 HD
ENDROOT
BRANCH   1  14
ATOM     10  C   UNL     1       8.056   4.618  17.891  0.00  0.00    +0.000 C 
ATOM     11  C   UNL     1       6.651   4.468  17.462  0.00  0.00    +0.000 A 
ATOM     12  C   UNL     1       5.481   4.904  18.033  0.00  0.00    +0.000 A 
ATOM     13  C   UNL     1       4.442   4.432  17.200  0.00  0.00    +0.000 A 
ATOM     14  N   UNL     1       3.118   4.571  17.412  0.00  0.00    +0.000 N 
ATOM     15  N   UNL     1       4.940   3.786  16.139  0.00  0.00    +0.000 NA
ATOM     16  N   UNL     1       6.268   3.797  16.336  0.00  0.00    +0.000 N 
ATOM     17  H   UNL     1       2.516   4.178  16.697  0.00  0.00    +0.000 HD
ATOM     18  H   UNL     1       6.857   3.320  15.661  0.00  0.00    +0.000 HD
ENDBRANCH   1  14
BRANCH   4  19
ATOM     19  C   UNL     1       0.925   8.522  21.271  0.00  0.00    +0.000 C 
ATOM     20  C   UNL     1       1.558   9.115  22.535  0.00  0.00    +0.000 C 
BRANCH  19  21
ATOM     21  C   UNL     1       0.256   9.616  20.443  0.00  0.00    +0.000 A 
ATOM     22  C   UNL     1       0.411   9.631  19.046  0.00  0.00    +0.000 A 
ATOM     23  C   UNL     1      -0.228  10.599  18.266  0.00  0.00    +0.000 A 
ATOM     24  C   UNL     1      -1.018  11.562  18.882  0.00  0.00    +0.000 A 
ATOM     25  F   UNL     1      -1.636  12.487  18.133  0.00  0.00    +0.000 F 
ATOM     26  C   UNL     1      -1.181  11.577  20.261  0.00  0.00    +0.000 A 
ATOM     27  C   UNL     1      -0.546  10.609  21.040  0.00  0.00    +0.000 A 
ENDBRANCH  19  21
ENDBRANCH   4  19
TORSDOF 3
ENDMDL
