MODEL 1
REMARK VINA RESULT:      -7.2      0.000      0.000
REMARK  Name = 
REMARK  6 active torsions:
REMARK  status: ('A' for Active; 'I' for Inactive)
REMARK    1  A    between atoms: C_1  and  O_2
REMARK    2  A    between atoms: O_2  and  C_3
REMARK    3  A    between atoms: C_6  and  C_7
REMARK    4  A    between atoms: C_14  and  C_15
REMARK    5  A    between atoms: C_18  and  O_19
REMARK    6  A    between atoms: O_19  and  C_20
REMARK                            x       y       z     vdW  Elec       q    Type
REMARK                         _______ _______ _______ _____ _____    ______ ____
ROOT
ATOM      1  C   UNL     1       1.154   8.393  21.254  0.00  0.00    +0.000 A 
ATOM      2  C   UNL     1       1.873   9.427  21.864  0.00  0.00    +0.000 A 
ATOM      3  C   UNL     1       0.992  10.509  21.994  0.00  0.00    +0.000 A 
ATOM      4  C   UNL     1      -0.295  10.092  22.294  0.00  0.00    +0.000 A 
ATOM      5  S   UNL     1      -0.497   8.460  21.826  0.00  0.00    +0.000 S 
ATOM      6  C   UNL     1      -1.331  11.175  22.138  0.00  0.00    +0.000 C 
ATOM      7  C   UNL     1      -0.585  11.976  21.094  0.00  0.00    +0.000 A 
ATOM      8  C   UNL     1      -0.752  12.096  19.666  0.00  0.00    +0.000 A 
ATOM      9  N   UNL     1       0.408  12.534  19.115  0.00  0.00    +0.000 NA
ATOM     10  N   UNL     1       1.351  12.271  20.066  0.00  0.00    +0.000 N 
ATOM     11  C   UNL     1       0.783  11.777  21.182  0.00  0.00    +0.000 A 
ATOM     12  H   UNL     1       2.320  12.257  19.771  0.00  0.00    +0.000 HD
ENDROOT
BRANCH   1  16
ATOM     13  C   UNL     1       2.664   5.395  18.517  0.00  0.00    +0.000 A 
ATOM     14  C   UNL     1       2.134   5.048  19.760  0.00  0.00    +0.000 A 
ATOM     15  C   UNL     1       1.623   6.030  20.614  0.00  0.00    +0.000 A 
ATOM     16  C   UNL     1       1.620   7.389  20.265  0.00  0.00    +0.000 A 
ATOM     17  C   UNL     1       2.193   7.725  19.023  0.00  0.00    +0.000 A 
ATOM     18  C   UNL     1       2.701   6.739  18.149  0.00  0.00    +0.000 A 
BRANCH  13  20
ATOM     19  C   UNL     1       4.134   3.543  18.470  0.00  0.00    +0.000 C 
ATOM     20  O   UNL     1       3.171   4.347  17.801  0.00  0.00    +0.000 OA
ENDBRANCH  13  20
ENDBRANCH   1  16
BRANCH   8  21
ATOM     21  C   UNL     1      -1.729  11.286  18.900  0.00  0.00    +0.000 A 
ATOM     22  C   UNL     1      -1.278  10.326  17.986  0.00  0.00    +0.000 A 
ATOM     23  C   UNL     1      -2.043  10.023  16.856  0.00  0.00    +0.000 A 
ATOM     24  C   UNL     1      -3.312  10.573  16.683  0.00  0.00    +0.000 A 
ATOM     25  C   UNL     1      -3.848  11.385  17.681  0.00  0.00    +0.000 A 
ATOM     26  C   UNL     1      -3.054  11.742  18.783  0.00  0.00    +0.000 A 
BRANCH  24  27
ATOM     27  O   UNL     1      -3.880  10.313  15.468  0.00  0.00    +0.000 OA
ATOM     28  C   UNL     1      -2.987  10.039  14.400  0.00  0.00    +0.000 C 
ENDBRANCH  24  27
ENDBRANCH   8  21
TORSDOF 4
ENDMDL
MODEL 2
REMARK VINA RESULT:      -7.0      3.803      8.328
REMARK  Name = 
REMARK  6 active torsions:
REMARK  status: ('A' for Active; 'I' for Inactive)
REMARK    1  A    between atoms: C_1  and  O_2
REMARK    2  A    between atoms: O_2  and  C_3
REMARK    3  A    between atoms: C_6  and  C_7
REMARK    4  A    between atoms: C_14  and  C_15
REMARK    5  A    between atoms: C_18  and  O_19
REMARK    6  A    between atoms: O_19  and  C_20
REMARK                            x       y       z     vdW  Elec       q    Type
REMARK                         _______ _______ _______ _____ _____    ______ ____
ROOT
ATOM      1  C   UNL     1       2.382   6.216  20.079  0.00  0.00    +0.000 A 
ATOM      2  C   UNL     1       1.605   5.093  20.387  0.00  0.00    +0.000 A 
ATOM      3  C   UNL     1       2.331   3.973  19.962  0.00  0.00    +0.000 A 
ATOM      4  C   UNL     1       3.692   4.133  20.166  0.00  0.00    +0.000 A 
ATOM      5  S   UNL     1       4.065   5.796  20.294  0.00  0.00    +0.000 S 
ATOM      6  C   UNL     1       4.534   3.107  19.452  0.00  0.00    +0.000 C 
ATOM      7  C   UNL     1       3.553   2.830  18.334  0.00  0.00    +0.000 A 
ATOM      8  C   UNL     1       3.517   3.249  16.954  0.00  0.00    +0.000 A 
ATOM      9  N   UNL     1       2.245   3.154  16.490  0.00  0.00    +0.000 NA
ATOM     10  N   UNL     1       1.479   3.114  17.619  0.00  0.00    +0.000 N 
ATOM     11  C   UNL     1       2.250   3.097  18.722  0.00  0.00    +0.000 A 
ATOM     12  H   UNL     1       0.492   3.322  17.521  0.00  0.00    +0.000 HD
ENDROOT
BRANCH   1  16
ATOM     13  C   UNL     1       0.889  10.070  18.782  0.00  0.00    +0.000 A 
ATOM     14  C   UNL     1       0.700   9.615  20.087  0.00  0.00    +0.000 A 
ATOM     15  C   UNL     1       1.218   8.382  20.493  0.00  0.00    +0.000 A 
ATOM     16  C   UNL     1       1.941   7.557  19.618  0.00  0.00    +0.000 A 
ATOM     17  C   UNL     1       2.090   8.014  18.294  0.00  0.00    +0.000 A 
ATOM     18  C   UNL     1       1.581   9.264  17.879  0.00  0.00    +0.000 A 
BRANCH  13  20
ATOM     19  C   UNL     1      -1.125  11.295  18.599  0.00  0.00    +0.000 C 
ATOM     20  O   UNL     1       0.293  11.268  18.504  0.00  0.00    +0.000 OA
ENDBRANCH  13  20
ENDBRANCH   1  16
BRANCH   8  21
ATOM     21  C   UNL     1       4.494   4.204  16.377  0.00  0.00    +0.000 A 
ATOM     22  C   UNL     1       5.777   3.765  16.027  0.00  0.00    +0.000 A 
ATOM     23  C   UNL     1       6.860   4.646  16.098  0.00  0.00    +0.000 A 
ATOM     24  C   UNL     1       6.667   5.994  16.396  0.00  0.00    +0.000 A 
ATOM     25  C   UNL     1       5.371   6.480  16.563  0.00  0.00    +0.000 A 
ATOM     26  C   UNL     1       4.290   5.583  16.557  0.00  0.00    +0.000 A 
BRANCH  24  27
ATOM     27  O   UNL     1       7.820   6.703  16.582  0.00  0.00    +0.000 OA
ATOM     28  C   UNL     1       7.789   7.706  17.584  0.00  0.00    +0.000 C 
ENDBRANCH  24  27
ENDBRANCH   8  21
TORSDOF 4
ENDMDL
MODEL 3
REMARK VINA RESULT:      -6.9      3.994      8.502
REMARK  Name = 
REMARK  6 active torsions:
REMARK  status: ('A' for Active; 'I' for Inactive)
REMARK    1  A    between atoms: C_1  and  O_2
REMARK    2  A    between atoms: O_2  and  C_3
REMARK    3  A    between atoms: C_6  and  C_7
REMARK    4  A    between atoms: C_14  and  C_15
REMARK    5  A    between atoms: C_18  and  O_19
REMARK    6  A    between atoms: O_19  and  C_20
REMARK                            x       y       z     vdW  Elec       q    Type
REMARK                         _______ _______ _______ _____ _____    ______ ____
ROOT
ATOM      1  C   UNL     1       1.576   5.224  20.557  0.00  0.00    +0.000 A 
ATOM      2  C   UNL     1       0.818   4.149  20.080  0.00  0.00    +0.000 A 
ATOM      3  C   UNL     1       1.729   3.163  19.675  0.00  0.00    +0.000 A 
ATOM      4  C   UNL     1       2.832   3.106  20.511  0.00  0.00    +0.000 A 
ATOM      5  S   UNL     1       2.998   4.586  21.350  0.00  0.00    +0.000 S 
ATOM      6  C   UNL     1       3.971   2.293  19.952  0.00  0.00    +0.000 C 
ATOM      7  C   UNL     1       3.630   2.502  18.493  0.00  0.00    +0.000 A 
ATOM      8  C   UNL     1       4.202   3.355  17.479  0.00  0.00    +0.000 A 
ATOM      9  N   UNL     1       3.292   3.549  16.491  0.00  0.00    +0.000 NA
ATOM     10  N   UNL     1       2.099   3.218  17.065  0.00  0.00    +0.000 N 
ATOM     11  C   UNL     1       2.280   2.758  18.318  0.00  0.00    +0.000 A 
ATOM     12  H   UNL     1       1.255   3.547  16.611  0.00  0.00    +0.000 HD
ENDROOT
BRANCH   1  16
ATOM     13  C   UNL     1       1.021   9.505  20.202  0.00  0.00    +0.000 A 
ATOM     14  C   UNL     1       1.751   8.783  19.258  0.00  0.00    +0.000 A 
ATOM     15  C   UNL     1       1.890   7.397  19.375  0.00  0.00    +0.000 A 
ATOM     16  C   UNL     1       1.311   6.680  20.433  0.00  0.00    +0.000 A 
ATOM     17  C   UNL     1       0.609   7.429  21.398  0.00  0.00    +0.000 A 
ATOM     18  C   UNL     1       0.453   8.828  21.281  0.00  0.00    +0.000 A 
BRANCH  13  20
ATOM     19  C   UNL     1       0.175  11.311  18.932  0.00  0.00    +0.000 C 
ATOM     20  O   UNL     1       1.001  10.856  19.995  0.00  0.00    +0.000 OA
ENDBRANCH  13  20
ENDBRANCH   1  16
BRANCH   8  21
ATOM     21  C   UNL     1       5.272   4.341  17.768  0.00  0.00    +0.000 A 
ATOM     22  C   UNL     1       4.936   5.654  18.118  0.00  0.00    +0.000 A 
ATOM     23  C   UNL     1       5.793   6.707  17.786  0.00  0.00    +0.000 A 
ATOM     24  C   UNL     1       7.042   6.460  17.216  0.00  0.00    +0.000 A 
ATOM     25  C   UNL     1       7.463   5.144  17.034  0.00  0.00    +0.000 A 
ATOM     26  C   UNL     1       6.576   4.090  17.306  0.00  0.00    +0.000 A 
BRANCH  24  27
ATOM     27  O   UNL     1       7.706   7.580  16.804  0.00  0.00    +0.000 OA
ATOM     28  C   UNL     1       7.863   8.611  17.767  0.00  0.00    +0.000 C 
ENDBRANCH  24  27
ENDBRANCH   8  21
TORSDOF 4
ENDMDL
MODEL 4
REMARK VINA RESULT:      -6.9      4.195      8.368
REMARK  Name = 
REMARK  6 active torsions:
REMARK  status: ('A' for Active; 'I' for Inactive)
REMARK    1  A    between atoms: C_1  and  O_2
REMARK    2  A    between atoms: O_2  and  C_3
REMARK    3  A    between atoms: C_6  and  C_7
REMARK    4  A    between atoms: C_14  and  C_15
REMARK    5  A    between atoms: C_18  and  O_19
REMARK    6  A    between atoms: O_19  and  C_20
REMARK                            x       y       z     vdW  Elec       q    Type
REMARK                         _______ _______ _______ _____ _____    ______ ____
ROOT
ATOM      1  C   UNL     1       2.288   5.957  20.207  0.00  0.00    +0.000 A 
ATOM      2  C   UNL     1       1.551   4.797  20.469  0.00  0.00    +0.000 A 
ATOM      3  C   UNL     1       2.317   3.720  20.003  0.00  0.00    +0.000 A 
ATOM      4  C   UNL     1       3.671   3.919  20.216  0.00  0.00    +0.000 A 
ATOM      5  S   UNL     1       3.984   5.589  20.410  0.00  0.00    +0.000 S 
ATOM      6  C   UNL     1       4.549   2.952  19.465  0.00  0.00    +0.000 C 
ATOM      7  C   UNL     1       3.580   2.684  18.335  0.00  0.00    +0.000 A 
ATOM      8  C   UNL     1       3.531   3.154  16.972  0.00  0.00    +0.000 A 
ATOM      9  N   UNL     1       2.264   3.033  16.502  0.00  0.00    +0.000 NA
ATOM     10  N   UNL     1       1.498   2.923  17.626  0.00  0.00    +0.000 N 
ATOM     11  C   UNL     1       2.268   2.890  18.730  0.00  0.00    +0.000 A 
ATOM     12  H   UNL     1       0.505   3.100  17.534  0.00  0.00    +0.000 HD
ENDROOT
BRANCH   1  16
ATOM     13  C   UNL     1       1.079   9.929  18.972  0.00  0.00    +0.000 A 
ATOM     14  C   UNL     1       1.775   9.077  18.113  0.00  0.00    +0.000 A 
ATOM     15  C   UNL     1       2.126   7.788  18.522  0.00  0.00    +0.000 A 
ATOM     16  C   UNL     1       1.801   7.299  19.796  0.00  0.00    +0.000 A 
ATOM     17  C   UNL     1       1.132   8.184  20.663  0.00  0.00    +0.000 A 
ATOM     18  C   UNL     1       0.762   9.484  20.255  0.00  0.00    +0.000 A 
BRANCH  13  20
ATOM     19  C   UNL     1       1.762  12.189  18.836  0.00  0.00    +0.000 C 
ATOM     20  O   UNL     1       0.837  11.175  18.465  0.00  0.00    +0.000 OA
ENDBRANCH  13  20
ENDBRANCH   1  16
BRANCH   8  21
ATOM     21  C   UNL     1       4.475   4.165  16.436  0.00  0.00    +0.000 A 
ATOM     22  C   UNL     1       5.738   3.769  15.980  0.00  0.00    +0.000 A 
ATOM     23  C   UNL     1       6.822   4.647  16.075  0.00  0.00    +0.000 A 
ATOM     24  C   UNL     1       6.642   5.961  16.505  0.00  0.00    +0.000 A 
ATOM     25  C   UNL     1       5.356   6.421  16.783  0.00  0.00    +0.000 A 
ATOM     26  C   UNL     1       4.278   5.520  16.751  0.00  0.00    +0.000 A 
BRANCH  24  27
ATOM     27  O   UNL     1       7.802   6.658  16.695  0.00  0.00    +0.000 OA
ATOM     28  C   UNL     1       7.732   7.773  17.570  0.00  0.00    +0.000 C 
ENDBRANCH  24  27
ENDBRANCH   8  21
TORSDOF 4
ENDMDL
MODEL 5
REMARK VINA RESULT:      -6.9      4.163      8.487
REMARK  Name = 
REMARK  6 active torsions:
REMARK  status: ('A' for Active; 'I' for Inactive)
REMARK    1  A    between atoms: C_1  and  O_2
REMARK    2  A    between atoms: O_2  and  C_3
REMARK    3  A    between atoms: C_6  and  C_7
REMARK    4  A    between atoms: C_14  and  C_15
REMARK    5  A    between atoms: C_18  and  O_19
REMARK    6  A    between atoms: O_19  and  C_20
REMARK                            x       y       z     vdW  Elec       q    Type
REMARK                         _______ _______ _______ _____ _____    ______ ____
ROOT
ATOM      1  C   UNL     1       1.663   5.332  20.564  0.00  0.00    +0.000 A 
ATOM      2  C   UNL     1       0.840   4.304  20.091  0.00  0.00    +0.000 A 
ATOM      3  C   UNL     1       1.688   3.279  19.651  0.00  0.00    +0.000 A 
ATOM      4  C   UNL     1       2.807   3.153  20.458  0.00  0.00    +0.000 A 
ATOM      5  S   UNL     1       3.068   4.611  21.312  0.00  0.00    +0.000 S 
ATOM      6  C   UNL     1       3.888   2.291  19.860  0.00  0.00    +0.000 C 
ATOM      7  C   UNL     1       3.523   2.538  18.413  0.00  0.00    +0.000 A 
ATOM      8  C   UNL     1       4.114   3.375  17.397  0.00  0.00    +0.000 A 
ATOM      9  N   UNL     1       3.192   3.630  16.435  0.00  0.00    +0.000 NA
ATOM     10  N   UNL     1       1.997   3.352  17.034  0.00  0.00    +0.000 N 
ATOM     11  C   UNL     1       2.184   2.866  18.275  0.00  0.00    +0.000 A 
ATOM     12  H   UNL     1       1.161   3.730  16.605  0.00  0.00    +0.000 HD
ENDROOT
BRANCH   1  16
ATOM     13  C   UNL     1       0.883   9.583  20.275  0.00  0.00    +0.000 A 
ATOM     14  C   UNL     1       0.397   8.822  21.338  0.00  0.00    +0.000 A 
ATOM     15  C   UNL     1       0.689   7.458  21.428  0.00  0.00    +0.000 A 
ATOM     16  C   UNL     1       1.471   6.801  20.466  0.00  0.00    +0.000 A 
ATOM     17  C   UNL     1       1.921   7.576  19.379  0.00  0.00    +0.000 A 
ATOM     18  C   UNL     1       1.642   8.957  19.287  0.00  0.00    +0.000 A 
BRANCH  13  20
ATOM     19  C   UNL     1      -0.299  11.297  21.395  0.00  0.00    +0.000 C 
ATOM     20  O   UNL     1       0.488  10.891  20.283  0.00  0.00    +0.000 OA
ENDBRANCH  13  20
ENDBRANCH   1  16
BRANCH   8  21
ATOM     21  C   UNL     1       5.240   4.300  17.672  0.00  0.00    +0.000 A 
ATOM     22  C   UNL     1       4.986   5.578  18.184  0.00  0.00    +0.000 A 
ATOM     23  C   UNL     1       5.841   6.639  17.872  0.00  0.00    +0.000 A 
ATOM     24  C   UNL     1       7.017   6.422  17.156  0.00  0.00    +0.000 A 
ATOM     25  C   UNL     1       7.374   5.122  16.802  0.00  0.00    +0.000 A 
ATOM     26  C   UNL     1       6.482   4.067  17.057  0.00  0.00    +0.000 A 
BRANCH  24  27
ATOM     27  O   UNL     1       7.676   7.563  16.792  0.00  0.00    +0.000 OA
ATOM     28  C   UNL     1       7.949   8.492  17.830  0.00  0.00    +0.000 C 
ENDBRANCH  24  27
ENDBRANCH   8  21
TORSDOF 4
ENDMDL
MODEL 6
REMARK VINA RESULT:      -6.6      4.432      7.300
REMARK  Name = 
REMARK  6 active torsions:
REMARK  status: ('A' for Active; 'I' for Inactive)
REMARK    1  A    between atoms: C_1  and  O_2
REMARK    2  A    between atoms: O_2  and  C_3
REMARK    3  A    between atoms: C_6  and  C_7
REMARK    4  A    between atoms: C_14  and  C_15
REMARK    5  A    between atoms: C_18  and  O_19
REMARK    6  A    between atoms: O_19  and  C_20
REMARK                            x       y       z     vdW  Elec       q    Type
REMARK                         _______ _______ _______ _____ _____    ______ ____
ROOT
ATOM      1  C   UNL     1       4.021   3.235  17.521  0.00  0.00    +0.000 A 
ATOM      2  C   UNL     1       4.017   2.040  18.250  0.00  0.00    +0.000 A 
ATOM      3  C   UNL     1       2.785   1.978  18.915  0.00  0.00    +0.000 A 
ATOM      4  C   UNL     1       1.756   2.493  18.143  0.00  0.00    +0.000 A 
ATOM      5  S   UNL     1       2.397   3.535  16.949  0.00  0.00    +0.000 S 
ATOM      6  C   UNL     1       0.486   2.736  18.916  0.00  0.00    +0.000 C 
ATOM      7  C   UNL     1       1.142   2.945  20.263  0.00  0.00    +0.000 A 
ATOM      8  C   UNL     1       1.421   4.136  21.027  0.00  0.00    +0.000 A 
ATOM      9  N   UNL     1       2.416   3.877  21.913  0.00  0.00    +0.000 NA
ATOM     10  N   UNL     1       3.014   2.751  21.425  0.00  0.00    +0.000 N 
ATOM     11  C   UNL     1       2.362   2.292  20.341  0.00  0.00    +0.000 A 
ATOM     12  H   UNL     1       3.944   2.533  21.763  0.00  0.00    +0.000 HD
ENDROOT
BRANCH   1  16
ATOM     13  C   UNL     1       7.176   6.107  16.775  0.00  0.00    +0.000 A 
ATOM     14  C   UNL     1       6.489   6.075  17.989  0.00  0.00    +0.000 A 
ATOM     15  C   UNL     1       5.497   5.119  18.219  0.00  0.00    +0.000 A 
ATOM     16  C   UNL     1       5.150   4.161  17.254  0.00  0.00    +0.000 A 
ATOM     17  C   UNL     1       5.827   4.231  16.021  0.00  0.00    +0.000 A 
ATOM     18  C   UNL     1       6.840   5.186  15.783  0.00  0.00    +0.000 A 
BRANCH  13  20
ATOM     19  C   UNL     1       7.931   8.203  17.567  0.00  0.00    +0.000 C 
ATOM     20  O   UNL     1       8.089   7.118  16.662  0.00  0.00    +0.000 OA
ENDBRANCH  13  20
ENDBRANCH   1  16
BRANCH   8  21
ATOM     21  C   UNL     1       1.166   5.502  20.509  0.00  0.00    +0.000 A 
ATOM     22  C   UNL     1       2.094   6.110  19.655  0.00  0.00    +0.000 A 
ATOM     23  C   UNL     1       2.241   7.500  19.659  0.00  0.00    +0.000 A 
ATOM     24  C   UNL     1       1.392   8.307  20.415  0.00  0.00    +0.000 A 
ATOM     25  C   UNL     1       0.344   7.723  21.125  0.00  0.00    +0.000 A 
ATOM     26  C   UNL     1       0.238   6.323  21.173  0.00  0.00    +0.000 A 
BRANCH  24  27
ATOM     27  O   UNL     1       1.745   9.627  20.446  0.00  0.00    +0.000 OA
ATOM     28  C   UNL     1       0.727  10.543  20.818  0.00  0.00    +0.000 C 
ENDBRANCH  24  27
ENDBRANCH   8  21
TORSDOF 4
ENDMDL
MODEL 7
REMARK VINA RESULT:      -6.6      5.603      8.204
REMARK  Name = 
REMARK  6 active torsions:
REMARK  status: ('A' for Active; 'I' for Inactive)
REMARK    1  A    between atoms: C_1  and  O_2
REMARK    2  A    between atoms: O_2  and  C_3
REMARK    3  A    between atoms: C_6  and  C_7
REMARK    4  A    between atoms: C_14  and  C_15
REMARK    5  A    between atoms: C_18  and  O_19
REMARK    6  A    between atoms: O_19  and  C_20
REMARK                            x       y       z     vdW  Elec       q    Type
REMARK                         _______ _______ _______ _____ _____    ______ ____
ROOT
ATOM      1  C   UNL     1      -6.329  13.239  19.839  0.00  0.00    +0.000 A 
ATOM      2  C   UNL     1      -7.427  12.793  20.584  0.00  0.00    +0.000 A 
ATOM      3  C   UNL     1      -7.404  13.498  21.795  0.00  0.00    +0.000 A 
ATOM      4  C   UNL     1      -6.983  14.807  21.623  0.00  0.00    +0.000 A 
ATOM      5  S   UNL     1      -6.095  14.940  20.168  0.00  0.00    +0.000 S 
ATOM      6  C   UNL     1      -6.645  15.507  22.913  0.00  0.00    +0.000 C 
ATOM      7  C   UNL     1      -6.277  14.263  23.691  0.00  0.00    +0.000 A 
ATOM      8  C   UNL     1      -5.003  13.700  24.069  0.00  0.00    +0.000 A 
ATOM      9  N   UNL     1      -5.157  12.377  24.330  0.00  0.00    +0.000 NA
ATOM     10  N   UNL     1      -6.335  12.051  23.723  0.00  0.00    +0.000 N 
ATOM     11  C   UNL     1      -6.919  13.142  23.191  0.00  0.00    +0.000 A 
ATOM     12  H   UNL     1      -6.514  11.070  23.547  0.00  0.00    +0.000 HD
ENDROOT
BRANCH   1  16
ATOM     13  C   UNL     1      -3.607  11.158  17.190  0.00  0.00    +0.000 A 
ATOM     14  C   UNL     1      -3.225  11.539  18.477  0.00  0.00    +0.000 A 
ATOM     15  C   UNL     1      -4.131  12.181  19.326  0.00  0.00    +0.000 A 
ATOM     16  C   UNL     1      -5.445  12.468  18.928  0.00  0.00    +0.000 A 
ATOM     17  C   UNL     1      -5.802  12.110  17.614  0.00  0.00    +0.000 A 
ATOM     18  C   UNL     1      -4.898  11.450  16.753  0.00  0.00    +0.000 A 
BRANCH  13  20
ATOM     19  C   UNL     1      -2.878  10.435  15.059  0.00  0.00    +0.000 C 
ATOM     20  O   UNL     1      -2.613  10.581  16.448  0.00  0.00    +0.000 OA
ENDBRANCH  13  20
ENDBRANCH   1  16
BRANCH   8  21
ATOM     21  C   UNL     1      -3.709  14.268  23.620  0.00  0.00    +0.000 A 
ATOM     22  C   UNL     1      -3.248  14.017  22.322  0.00  0.00    +0.000 A 
ATOM     23  C   UNL     1      -1.875  13.959  22.067  0.00  0.00    +0.000 A 
ATOM     24  C   UNL     1      -0.949  14.268  23.062  0.00  0.00    +0.000 A 
ATOM     25  C   UNL     1      -1.401  14.701  24.307  0.00  0.00    +0.000 A 
ATOM     26  C   UNL     1      -2.778  14.696  24.583  0.00  0.00    +0.000 A 
BRANCH  24  27
ATOM     27  O   UNL     1       0.351  14.022  22.721  0.00  0.00    +0.000 OA
ATOM     28  C   UNL     1       0.654  14.047  21.334  0.00  0.00    +0.000 C 
ENDBRANCH  24  27
ENDBRANCH   8  21
TORSDOF 4
ENDMDL
MODEL 8
REMARK VINA RESULT:      -6.5      5.689      8.291
REMARK  Name = 
REMARK  6 active torsions:
REMARK  status: ('A' for Active; 'I' for Inactive)
REMARK    1  A    between atoms: C_1  and  O_2
REMARK    2  A    between atoms: O_2  and  C_3
REMARK    3  A    between atoms: C_6  and  C_7
REMARK    4  A    between atoms: C_14  and  C_15
REMARK    5  A    between atoms: C_18  and  O_19
REMARK    6  A    between atoms: O_19  and  C_20
REMARK                            x       y       z     vdW  Elec       q    Type
REMARK                         _______ _______ _______ _____ _____    ______ ____
ROOT
ATOM      1  C   UNL     1      -6.026  13.599  19.857  0.00  0.00    +0.000 A 
ATOM      2  C   UNL     1      -7.343  13.523  20.324  0.00  0.00    +0.000 A 
ATOM      3  C   UNL     1      -7.338  14.036  21.628  0.00  0.00    +0.000 A 
ATOM      4  C   UNL     1      -6.461  15.100  21.761  0.00  0.00    +0.000 A 
ATOM      5  S   UNL     1      -5.291  15.042  20.516  0.00  0.00    +0.000 S 
ATOM      6  C   UNL     1      -6.187  15.481  23.192  0.00  0.00    +0.000 C 
ATOM      7  C   UNL     1      -6.453  14.115  23.787  0.00  0.00    +0.000 A 
ATOM      8  C   UNL     1      -5.568  13.079  24.260  0.00  0.00    +0.000 A 
ATOM      9  N   UNL     1      -6.225  11.891  24.254  0.00  0.00    +0.000 NA
ATOM     10  N   UNL     1      -7.282  12.098  23.416  0.00  0.00    +0.000 N 
ATOM     11  C   UNL     1      -7.321  13.378  22.998  0.00  0.00    +0.000 A 
ATOM     12  H   UNL     1      -7.749  11.281  23.042  0.00  0.00    +0.000 HD
ENDROOT
BRANCH   1  16
ATOM     13  C   UNL     1      -3.719  10.987  17.284  0.00  0.00    +0.000 A 
ATOM     14  C   UNL     1      -3.227  11.418  18.517  0.00  0.00    +0.000 A 
ATOM     15  C   UNL     1      -4.003  12.234  19.345  0.00  0.00    +0.000 A 
ATOM     16  C   UNL     1      -5.291  12.653  18.980  0.00  0.00    +0.000 A 
ATOM     17  C   UNL     1      -5.757  12.240  17.716  0.00  0.00    +0.000 A 
ATOM     18  C   UNL     1      -4.986  11.405  16.878  0.00  0.00    +0.000 A 
BRANCH  13  20
ATOM     19  C   UNL     1      -2.872  10.432  15.147  0.00  0.00    +0.000 C 
ATOM     20  O   UNL     1      -2.844  10.232  16.554  0.00  0.00    +0.000 OA
ENDBRANCH  13  20
ENDBRANCH   1  16
BRANCH   8  21
ATOM     21  C   UNL     1      -4.092  13.162  24.134  0.00  0.00    +0.000 A 
ATOM     22  C   UNL     1      -3.375  14.081  24.909  0.00  0.00    +0.000 A 
ATOM     23  C   UNL     1      -2.188  14.632  24.418  0.00  0.00    +0.000 A 
ATOM     24  C   UNL     1      -1.637  14.189  23.216  0.00  0.00    +0.000 A 
ATOM     25  C   UNL     1      -2.246  13.141  22.529  0.00  0.00    +0.000 A 
ATOM     26  C   UNL     1      -3.474  12.634  22.988  0.00  0.00    +0.000 A 
BRANCH  24  27
ATOM     27  O   UNL     1      -0.565  14.917  22.783  0.00  0.00    +0.000 OA
ATOM     28  C   UNL     1      -0.457  15.108  21.381  0.00  0.00    +0.000 C 
ENDBRANCH  24  27
ENDBRANCH   8  21
TORSDOF 4
ENDMDL
MODEL 9
REMARK VINA RESULT:      -6.5      5.784      8.436
REMARK  Name = 
REMARK  6 active torsions:
REMARK  status: ('A' for Active; 'I' for Inactive)
REMARK    1  A    between atoms: C_1  and  O_2
REMARK    2  A    between atoms: O_2  and  C_3
REMARK    3  A    between atoms: C_6  and  C_7
REMARK    4  A    between atoms: C_14  and  C_15
REMARK    5  A    between atoms: C_18  and  O_19
REMARK    6  A    between atoms: O_19  and  C_20
REMARK                            x       y       z     vdW  Elec       q    Type
REMARK                         _______ _______ _______ _____ _____    ______ ____
ROOT
ATOM      1  C   UNL     1      -6.418  13.190  19.654  0.00  0.00    +0.000 A 
ATOM      2  C   UNL     1      -7.547  12.625  20.258  0.00  0.00    +0.000 A 
ATOM      3  C   UNL     1      -7.729  13.294  21.475  0.00  0.00    +0.000 A 
ATOM      4  C   UNL     1      -7.417  14.640  21.376  0.00  0.00    +0.000 A 
ATOM      5  S   UNL     1      -6.386  14.895  20.037  0.00  0.00    +0.000 S 
ATOM      6  C   UNL     1      -7.297  15.331  22.709  0.00  0.00    +0.000 C 
ATOM      7  C   UNL     1      -6.904  14.105  23.503  0.00  0.00    +0.000 A 
ATOM      8  C   UNL     1      -5.634  13.652  24.017  0.00  0.00    +0.000 A 
ATOM      9  N   UNL     1      -5.691  12.314  24.235  0.00  0.00    +0.000 NA
ATOM     10  N   UNL     1      -6.755  11.898  23.489  0.00  0.00    +0.000 N 
ATOM     11  C   UNL     1      -7.376  12.944  22.911  0.00  0.00    +0.000 A 
ATOM     12  H   UNL     1      -6.819  10.909  23.277  0.00  0.00    +0.000 HD
ENDROOT
BRANCH   1  16
ATOM     13  C   UNL     1      -3.479  11.085  17.268  0.00  0.00    +0.000 A 
ATOM     14  C   UNL     1      -4.774  11.312  16.799  0.00  0.00    +0.000 A 
ATOM     15  C   UNL     1      -5.695  12.022  17.573  0.00  0.00    +0.000 A 
ATOM     16  C   UNL     1      -5.366  12.530  18.839  0.00  0.00    +0.000 A 
ATOM     17  C   UNL     1      -4.068  12.260  19.313  0.00  0.00    +0.000 A 
ATOM     18  C   UNL     1      -3.126  11.554  18.532  0.00  0.00    +0.000 A 
BRANCH  13  20
ATOM     19  C   UNL     1      -2.984  10.445  15.046  0.00  0.00    +0.000 C 
ATOM     20  O   UNL     1      -2.693  10.340  16.433  0.00  0.00    +0.000 OA
ENDBRANCH  13  20
ENDBRANCH   1  16
BRANCH   8  21
ATOM     21  C   UNL     1      -4.357  14.349  23.732  0.00  0.00    +0.000 A 
ATOM     22  C   UNL     1      -3.725  14.173  22.495  0.00  0.00    +0.000 A 
ATOM     23  C   UNL     1      -2.333  14.250  22.404  0.00  0.00    +0.000 A 
ATOM     24  C   UNL     1      -1.564  14.622  23.506  0.00  0.00    +0.000 A 
ATOM     25  C   UNL     1      -2.198  14.981  24.694  0.00  0.00    +0.000 A 
ATOM     26  C   UNL     1      -3.591  14.840  24.804  0.00  0.00    +0.000 A 
BRANCH  24  27
ATOM     27  O   UNL     1      -0.215  14.507  23.319  0.00  0.00    +0.000 OA
ATOM     28  C   UNL     1       0.330  15.213  22.215  0.00  0.00    +0.000 C 
ENDBRANCH  24  27
ENDBRANCH   8  21
TORSDOF 4
ENDMDL
