MODEL 1
REMARK VINA RESULT:      -8.0      0.000      0.000
REMARK  Name = 
REMARK  9 active torsions:
REMARK  status: ('A' for Active; 'I' for Inactive)
REMARK    1  A    between atoms: C_1  and  O_2
REMARK    2  A    between atoms: O_2  and  C_3
REMARK    3  A    between atoms: C_3  and  O_4
REMARK    4  A    between atoms: O_4  and  C_5
REMARK    5  A    between atoms: C_9  and  O_10
REMARK    6  A    between atoms: O_10  and  C_11
REMARK    7  A    between atoms: C_11  and  C_12
REMARK    8  A    between atoms: C_11  and  C_19
REMARK    9  A    between atoms: N_28  and  C_29
REMARK                            x       y       z     vdW  Elec       q    Type
REMARK                         _______ _______ _______ _____ _____    ______ ____
ROOT
ATOM      1  C   UNL     1       5.115   4.237  16.307  0.00  0.00    +0.000 C 
ENDROOT
BRANCH   1   2
ATOM      2  C   UNL     1       5.898   5.200  17.205  0.00  0.00    +0.000 A 
ATOM      3  C   UNL     1       6.881   4.745  18.093  0.00  0.00    +0.000 A 
ATOM      4  C   UNL     1       7.823   5.643  18.608  0.00  0.00    +0.000 A 
ATOM      5  C   UNL     1       7.764   6.992  18.269  0.00  0.00    +0.000 A 
ATOM      6  F   UNL     1       8.712   7.830  18.709  0.00  0.00    +0.000 F 
ATOM      7  C   UNL     1       6.756   7.478  17.453  0.00  0.00    +0.000 A 
ATOM      8  C   UNL     1       5.812   6.594  16.934  0.00  0.00    +0.000 A 
ENDBRANCH   1   2
BRANCH   1   9
ATOM      9  C   UNL     1       5.700   4.267  14.872  0.00  0.00    +0.000 A 
ATOM     10  C   UNL     1       6.933   4.912  14.669  0.00  0.00    +0.000 A 
ATOM     11  C   UNL     1       7.575   4.880  13.425  0.00  0.00    +0.000 A 
ATOM     12  C   UNL     1       6.962   4.214  12.377  0.00  0.00    +0.000 A 
ATOM     13  F   UNL     1       7.564   4.161  11.189  0.00  0.00    +0.000 F 
ATOM     14  C   UNL     1       5.719   3.595  12.555  0.00  0.00    +0.000 A 
ATOM     15  C   UNL     1       5.088   3.624  13.797  0.00  0.00    +0.000 A 
ENDBRANCH   1   9
BRANCH   1  16
ATOM     16  O   UNL     1       4.752   2.921  16.796  0.00  0.00    +0.000 OA
BRANCH  16  21
ATOM     17  C   UNL     1       2.924   5.900  19.390  0.00  0.00    +0.000 C 
ATOM     18  C   UNL     1       3.937   4.841  20.120  0.00  0.00    +0.000 C 
ATOM     19  C   UNL     1       3.295   3.365  19.881  0.00  0.00    +0.000 C 
ATOM     20  C   UNL     1       3.278   2.340  18.705  0.00  0.00    +0.000 C 
ATOM     21  C   UNL     1       3.361   2.848  17.238  0.00  0.00    +0.000 C 
ATOM     22  C   UNL     1       2.481   4.178  17.104  0.00  0.00    +0.000 C 
ATOM     23  C   UNL     1       2.297   4.846  18.503  0.00  0.00    +0.000 C 
ATOM     24  N   UNL     1       1.959   3.790  19.557  0.00  0.00    +0.000 NA
ATOM     25  C   UNL     1       1.359   4.037  20.878  0.00  0.00    +0.000 C 
BRANCH  17  26
ATOM     26  O   UNL     1       1.872   6.517  20.171  0.00  0.00    +0.000 OA
BRANCH  26  27
ATOM     27  C   UNL     1       1.772   7.948  19.968  0.00  0.00    +0.000 C 
BRANCH  27  29
ATOM     28  C   UNL     1       1.364   9.410  18.084  0.00  0.00    +0.000 C 
ATOM     29  O   UNL     1       2.169   8.385  18.661  0.00  0.00    +0.000 OA
ENDBRANCH  27  29
ENDBRANCH  26  27
ENDBRANCH  17  26
ENDBRANCH  16  21
ENDBRANCH   1  16
TORSDOF 7
ENDMDL
MODEL 2
REMARK VINA RESULT:      -7.9      3.392      7.434
REMARK  Name = 
REMARK  9 active torsions:
REMARK  status: ('A' for Active; 'I' for Inactive)
REMARK    1  A    between atoms: C_1  and  O_2
REMARK    2  A    between atoms: O_2  and  C_3
REMARK    3  A    between atoms: C_3  and  O_4
REMARK    4  A    between atoms: O_4  and  C_5
REMARK    5  A    between atoms: C_9  and  O_10
REMARK    6  A    between atoms: O_10  and  C_11
REMARK    7  A    between atoms: C_11  and  C_12
REMARK    8  A    between atoms: C_11  and  C_19
REMARK    9  A    between atoms: N_28  and  C_29
REMARK                            x       y       z     vdW  Elec       q    Type
REMARK                         _______ _______ _______ _____ _____    ______ ____
ROOT
ATOM      1  C   UNL     1       3.723   6.133  17.998  0.00  0.00    +0.000 C 
ENDROOT
BRANCH   1   2
ATOM      2  C   UNL     1       3.193   4.711  18.206  0.00  0.00    +0.000 A 
ATOM      3  C   UNL     1       3.849   3.793  19.035  0.00  0.00    +0.000 A 
ATOM      4  C   UNL     1       3.166   2.665  19.503  0.00  0.00    +0.000 A 
ATOM      5  C   UNL     1       1.849   2.435  19.118  0.00  0.00    +0.000 A 
ATOM      6  F   UNL     1       1.180   1.391  19.628  0.00  0.00    +0.000 F 
ATOM      7  C   UNL     1       1.202   3.288  18.240  0.00  0.00    +0.000 A 
ATOM      8  C   UNL     1       1.872   4.415  17.767  0.00  0.00    +0.000 A 
ENDBRANCH   1   2
BRANCH   1   9
ATOM      9  C   UNL     1       2.717   7.159  18.579  0.00  0.00    +0.000 A 
ATOM     10  C   UNL     1       2.323   7.017  19.922  0.00  0.00    +0.000 A 
ATOM     11  C   UNL     1       1.507   7.969  20.544  0.00  0.00    +0.000 A 
ATOM     12  C   UNL     1       1.071   9.056  19.806  0.00  0.00    +0.000 A 
ATOM     13  F   UNL     1       0.305   9.981  20.386  0.00  0.00    +0.000 F 
ATOM     14  C   UNL     1       1.428   9.194  18.460  0.00  0.00    +0.000 A 
ATOM     15  C   UNL     1       2.246   8.247  17.846  0.00  0.00    +0.000 A 
ENDBRANCH   1   9
BRANCH   1  16
ATOM     16  O   UNL     1       5.121   6.431  18.250  0.00  0.00    +0.000 OA
BRANCH  16  21
ATOM     17  C   UNL     1       5.233   4.184  14.524  0.00  0.00    +0.000 C 
ATOM     18  C   UNL     1       6.203   3.632  15.721  0.00  0.00    +0.000 C 
ATOM     19  C   UNL     1       7.240   4.840  16.056  0.00  0.00    +0.000 C 
ATOM     20  C   UNL     1       7.177   6.157  16.890  0.00  0.00    +0.000 C 
ATOM     21  C   UNL     1       5.821   6.900  17.057  0.00  0.00    +0.000 C 
ATOM     22  C   UNL     1       5.026   6.836  15.670  0.00  0.00    +0.000 C 
ATOM     23  C   UNL     1       5.539   5.639  14.809  0.00  0.00    +0.000 C 
ATOM     24  N   UNL     1       7.068   5.581  14.835  0.00  0.00    +0.000 NA
ATOM     25  C   UNL     1       7.930   4.860  13.884  0.00  0.00    +0.000 C 
BRANCH  17  26
ATOM     26  O   UNL     1       5.591   3.909  13.148  0.00  0.00    +0.000 OA
BRANCH  26  27
ATOM     27  C   UNL     1       4.501   3.353  12.373  0.00  0.00    +0.000 C 
BRANCH  27  29
ATOM     28  C   UNL     1       6.202   1.898  11.454  0.00  0.00    +0.000 C 
ATOM     29  O   UNL     1       4.919   2.499  11.299  0.00  0.00    +0.000 OA
ENDBRANCH  27  29
ENDBRANCH  26  27
ENDBRANCH  17  26
ENDBRANCH  16  21
ENDBRANCH   1  16
TORSDOF 7
ENDMDL
MODEL 3
REMARK VINA RESULT:      -7.8      2.054      5.455
REMARK  Name = 
REMARK  9 active torsions:
REMARK  status: ('A' for Active; 'I' for Inactive)
REMARK    1  A    between atoms: C_1  and  O_2
REMARK    2  A    between atoms: O_2  and  C_3
REMARK    3  A    between atoms: C_3  and  O_4
REMARK    4  A    between atoms: O_4  and  C_5
REMARK    5  A    between atoms: C_9  and  O_10
REMARK    6  A    between atoms: O_10  and  C_11
REMARK    7  A    between atoms: C_11  and  C_12
REMARK    8  A    between atoms: C_11  and  C_19
REMARK    9  A    between atoms: N_28  and  C_29
REMARK                            x       y       z     vdW  Elec       q    Type
REMARK                         _______ _______ _______ _____ _____    ______ ____
ROOT
ATOM      1  C   UNL     1       5.260   5.629  16.891  0.00  0.00    +0.000 C 
ENDROOT
BRANCH   1   2
ATOM      2  C   UNL     1       5.737   4.833  15.672  0.00  0.00    +0.000 A 
ATOM      3  C   UNL     1       4.843   4.133  14.853  0.00  0.00    +0.000 A 
ATOM      4  C   UNL     1       5.236   3.743  13.567  0.00  0.00    +0.000 A 
ATOM      5  C   UNL     1       6.523   4.018  13.115  0.00  0.00    +0.000 A 
ATOM      6  F   UNL     1       6.867   3.705  11.858  0.00  0.00    +0.000 F 
ATOM      7  C   UNL     1       7.449   4.642  13.934  0.00  0.00    +0.000 A 
ATOM      8  C   UNL     1       7.070   5.035  15.216  0.00  0.00    +0.000 A 
ENDBRANCH   1   2
BRANCH   1   9
ATOM      9  C   UNL     1       6.440   6.444  17.479  0.00  0.00    +0.000 A 
ATOM     10  C   UNL     1       6.593   7.782  17.072  0.00  0.00    +0.000 A 
ATOM     11  C   UNL     1       7.566   8.609  17.646  0.00  0.00    +0.000 A 
ATOM     12  C   UNL     1       8.399   8.082  18.617  0.00  0.00    +0.000 A 
ATOM     13  F   UNL     1       9.322   8.859  19.186  0.00  0.00    +0.000 F 
ATOM     14  C   UNL     1       8.280   6.744  19.010  0.00  0.00    +0.000 A 
ATOM     15  C   UNL     1       7.306   5.925  18.441  0.00  0.00    +0.000 A 
ENDBRANCH   1   9
BRANCH   1  16
ATOM     16  O   UNL     1       3.989   6.327  16.850  0.00  0.00    +0.000 OA
BRANCH  16  21
ATOM     17  C   UNL     1       4.524   2.883  19.457  0.00  0.00    +0.000 C 
ATOM     18  C   UNL     1       3.754   2.596  18.041  0.00  0.00    +0.000 C 
ATOM     19  C   UNL     1       2.414   3.518  18.060  0.00  0.00    +0.000 C 
ATOM     20  C   UNL     1       2.097   5.020  17.779  0.00  0.00    +0.000 C 
ATOM     21  C   UNL     1       3.183   6.100  18.047  0.00  0.00    +0.000 C 
ATOM     22  C   UNL     1       3.962   5.724  19.392  0.00  0.00    +0.000 C 
ATOM     23  C   UNL     1       3.813   4.198  19.693  0.00  0.00    +0.000 C 
ATOM     24  N   UNL     1       2.366   3.752  19.479  0.00  0.00    +0.000 NA
ATOM     25  C   UNL     1       1.746   2.522  19.998  0.00  0.00    +0.000 C 
BRANCH  17  26
ATOM     26  O   UNL     1       4.259   2.018  20.588  0.00  0.00    +0.000 OA
BRANCH  26  27
ATOM     27  C   UNL     1       5.225   0.948  20.729  0.00  0.00    +0.000 C 
BRANCH  27  29
ATOM     28  C   UNL     1       6.502  -0.299  22.363  0.00  0.00    +0.000 C 
ATOM     29  O   UNL     1       5.921   0.946  21.983  0.00  0.00    +0.000 OA
ENDBRANCH  27  29
ENDBRANCH  26  27
ENDBRANCH  17  26
ENDBRANCH  16  21
ENDBRANCH   1  16
TORSDOF 7
ENDMDL
MODEL 4
REMARK VINA RESULT:      -7.6      3.389      7.445
REMARK  Name = 
REMARK  9 active torsions:
REMARK  status: ('A' for Active; 'I' for Inactive)
REMARK    1  A    between atoms: C_1  and  O_2
REMARK    2  A    between atoms: O_2  and  C_3
REMARK    3  A    between atoms: C_3  and  O_4
REMARK    4  A    between atoms: O_4  and  C_5
REMARK    5  A    between atoms: C_9  and  O_10
REMARK    6  A    between atoms: O_10  and  C_11
REMARK    7  A    between atoms: C_11  and  C_12
REMARK    8  A    between atoms: C_11  and  C_19
REMARK    9  A    between atoms: N_28  and  C_29
REMARK                            x       y       z     vdW  Elec       q    Type
REMARK                         _______ _______ _______ _____ _____    ______ ____
ROOT
ATOM      1  C   UNL     1       3.381   6.187  17.985  0.00  0.00    +0.000 C 
ENDROOT
BRANCH   1   2
ATOM      2  C   UNL     1       2.580   4.887  18.104  0.00  0.00    +0.000 A 
ATOM      3  C   UNL     1       2.884   3.761  17.329  0.00  0.00    +0.000 A 
ATOM      4  C   UNL     1       2.405   2.502  17.712  0.00  0.00    +0.000 A 
ATOM      5  C   UNL     1       1.601   2.373  18.840  0.00  0.00    +0.000 A 
ATOM      6  F   UNL     1       1.208   1.155  19.240  0.00  0.00    +0.000 F 
ATOM      7  C   UNL     1       1.224   3.482  19.579  0.00  0.00    +0.000 A 
ATOM      8  C   UNL     1       1.694   4.740  19.208  0.00  0.00    +0.000 A 
ENDBRANCH   1   2
BRANCH   1   9
ATOM      9  C   UNL     1       2.577   7.356  18.610  0.00  0.00    +0.000 A 
ATOM     10  C   UNL     1       2.102   8.368  17.757  0.00  0.00    +0.000 A 
ATOM     11  C   UNL     1       1.275   9.392  18.234  0.00  0.00    +0.000 A 
ATOM     12  C   UNL     1       0.942   9.407  19.577  0.00  0.00    +0.000 A 
ATOM     13  F   UNL     1       0.144  10.366  20.047  0.00  0.00    +0.000 F 
ATOM     14  C   UNL     1       1.433   8.425  20.445  0.00  0.00    +0.000 A 
ATOM     15  C   UNL     1       2.252   7.404  19.965  0.00  0.00    +0.000 A 
ENDBRANCH   1   9
BRANCH   1  16
ATOM     16  O   UNL     1       4.802   6.193  18.275  0.00  0.00    +0.000 OA
BRANCH  16  21
ATOM     17  C   UNL     1       5.316   4.202  14.439  0.00  0.00    +0.000 C 
ATOM     18  C   UNL     1       6.185   3.591  15.683  0.00  0.00    +0.000 C 
ATOM     19  C   UNL     1       7.156   4.794  16.191  0.00  0.00    +0.000 C 
ATOM     20  C   UNL     1       6.982   6.052  17.098  0.00  0.00    +0.000 C 
ATOM     21  C   UNL     1       5.597   6.755  17.185  0.00  0.00    +0.000 C 
ATOM     22  C   UNL     1       4.935   6.767  15.729  0.00  0.00    +0.000 C 
ATOM     23  C   UNL     1       5.557   5.640  14.844  0.00  0.00    +0.000 C 
ATOM     24  N   UNL     1       7.077   5.611  15.010  0.00  0.00    +0.000 NA
ATOM     25  C   UNL     1       8.042   4.973  14.099  0.00  0.00    +0.000 C 
BRANCH  17  26
ATOM     26  O   UNL     1       5.806   4.026  13.087  0.00  0.00    +0.000 OA
BRANCH  26  27
ATOM     27  C   UNL     1       4.946   3.196  12.269  0.00  0.00    +0.000 C 
BRANCH  27  29
ATOM     28  C   UNL     1       3.307   3.147  10.490  0.00  0.00    +0.000 C 
ATOM     29  O   UNL     1       4.260   3.906  11.229  0.00  0.00    +0.000 OA
ENDBRANCH  27  29
ENDBRANCH  26  27
ENDBRANCH  17  26
ENDBRANCH  16  21
ENDBRANCH   1  16
TORSDOF 7
ENDMDL
MODEL 5
REMARK VINA RESULT:      -7.6      3.400      6.337
REMARK  Name = 
REMARK  9 active torsions:
REMARK  status: ('A' for Active; 'I' for Inactive)
REMARK    1  A    between atoms: C_1  and  O_2
REMARK    2  A    between atoms: O_2  and  C_3
REMARK    3  A    between atoms: C_3  and  O_4
REMARK    4  A    between atoms: O_4  and  C_5
REMARK    5  A    between atoms: C_9  and  O_10
REMARK    6  A    between atoms: O_10  and  C_11
REMARK    7  A    between atoms: C_11  and  C_12
REMARK    8  A    between atoms: C_11  and  C_19
REMARK    9  A    between atoms: N_28  and  C_29
REMARK                            x       y       z     vdW  Elec       q    Type
REMARK                         _______ _______ _______ _____ _____    ______ ____
ROOT
ATOM      1  C   UNL     1       2.527   5.543  18.070  0.00  0.00    +0.000 C 
ENDROOT
BRANCH   1   2
ATOM      2  C   UNL     1       4.053   5.612  17.955  0.00  0.00    +0.000 A 
ATOM      3  C   UNL     1       4.885   5.433  19.066  0.00  0.00    +0.000 A 
ATOM      4  C   UNL     1       6.238   5.126  18.880  0.00  0.00    +0.000 A 
ATOM      5  C   UNL     1       6.765   5.032  17.596  0.00  0.00    +0.000 A 
ATOM      6  F   UNL     1       8.043   4.666  17.427  0.00  0.00    +0.000 F 
ATOM      7  C   UNL     1       5.979   5.279  16.482  0.00  0.00    +0.000 A 
ATOM      8  C   UNL     1       4.631   5.586  16.655  0.00  0.00    +0.000 A 
ENDBRANCH   1   2
BRANCH   1   9
ATOM      9  C   UNL     1       2.131   4.580  19.218  0.00  0.00    +0.000 A 
ATOM     10  C   UNL     1       1.662   3.298  18.879  0.00  0.00    +0.000 A 
ATOM     11  C   UNL     1       1.394   2.338  19.863  0.00  0.00    +0.000 A 
ATOM     12  C   UNL     1       1.582   2.677  21.192  0.00  0.00    +0.000 A 
ATOM     13  F   UNL     1       1.346   1.772  22.142  0.00  0.00    +0.000 F 
ATOM     14  C   UNL     1       2.018   3.959  21.547  0.00  0.00    +0.000 A 
ATOM     15  C   UNL     1       2.289   4.910  20.564  0.00  0.00    +0.000 A 
ENDBRANCH   1   9
BRANCH   1  16
ATOM     16  O   UNL     1       1.737   6.757  17.986  0.00  0.00    +0.000 OA
BRANCH  16  21
ATOM     17  C   UNL     1      -0.548   9.807  20.090  0.00  0.00    +0.000 C 
ATOM     18  C   UNL     1      -0.545   9.915  18.457  0.00  0.00    +0.000 C 
ATOM     19  C   UNL     1       1.009  10.120  18.020  0.00  0.00    +0.000 C 
ATOM     20  C   UNL     1       2.241   9.182  17.832  0.00  0.00    +0.000 C 
ATOM     21  C   UNL     1       2.359   7.883  18.680  0.00  0.00    +0.000 C 
ATOM     22  C   UNL     1       1.857   8.193  20.166  0.00  0.00    +0.000 C 
ATOM     23  C   UNL     1       0.919   9.442  20.170  0.00  0.00    +0.000 C 
ATOM     24  N   UNL     1       1.509  10.553  19.298  0.00  0.00    +0.000 NA
ATOM     25  C   UNL     1       1.141  11.978  19.334  0.00  0.00    +0.000 C 
BRANCH  17  26
ATOM     26  O   UNL     1      -0.757  11.007  20.873  0.00  0.00    +0.000 OA
BRANCH  26  27
ATOM     27  C   UNL     1      -0.671  10.781  22.302  0.00  0.00    +0.000 C 
BRANCH  27  29
ATOM     28  C   UNL     1      -1.394  13.059  22.680  0.00  0.00    +0.000 C 
ATOM     29  O   UNL     1      -0.553  11.981  23.080  0.00  0.00    +0.000 OA
ENDBRANCH  27  29
ENDBRANCH  26  27
ENDBRANCH  17  26
ENDBRANCH  16  21
ENDBRANCH   1  16
TORSDOF 7
ENDMDL
MODEL 6
REMARK VINA RESULT:      -7.6      3.350      6.362
REMARK  Name = 
REMARK  9 active torsions:
REMARK  status: ('A' for Active; 'I' for Inactive)
REMARK    1  A    between atoms: C_1  and  O_2
REMARK    2  A    between atoms: O_2  and  C_3
REMARK    3  A    between atoms: C_3  and  O_4
REMARK    4  A    between atoms: O_4  and  C_5
REMARK    5  A    between atoms: C_9  and  O_10
REMARK    6  A    between atoms: O_10  and  C_11
REMARK    7  A    between atoms: C_11  and  C_12
REMARK    8  A    between atoms: C_11  and  C_19
REMARK    9  A    between atoms: N_28  and  C_29
REMARK                            x       y       z     vdW  Elec       q    Type
REMARK                         _______ _______ _______ _____ _____    ______ ____
ROOT
ATOM      1  C   UNL     1       2.450   5.594  18.045  0.00  0.00    +0.000 C 
ENDROOT
BRANCH   1   2
ATOM      2  C   UNL     1       3.972   5.636  17.872  0.00  0.00    +0.000 A 
ATOM      3  C   UNL     1       4.577   6.379  16.850  0.00  0.00    +0.000 A 
ATOM      4  C   UNL     1       5.935   6.706  16.938  0.00  0.00    +0.000 A 
ATOM      5  C   UNL     1       6.693   6.266  18.019  0.00  0.00    +0.000 A 
ATOM      6  F   UNL     1       7.974   6.645  18.131  0.00  0.00    +0.000 F 
ATOM      7  C   UNL     1       6.135   5.467  19.003  0.00  0.00    +0.000 A 
ATOM      8  C   UNL     1       4.784   5.135  18.927  0.00  0.00    +0.000 A 
ENDBRANCH   1   2
BRANCH   1   9
ATOM      9  C   UNL     1       2.083   4.642  19.212  0.00  0.00    +0.000 A 
ATOM     10  C   UNL     1       1.485   3.408  18.900  0.00  0.00    +0.000 A 
ATOM     11  C   UNL     1       1.230   2.452  19.892  0.00  0.00    +0.000 A 
ATOM     12  C   UNL     1       1.561   2.749  21.203  0.00  0.00    +0.000 A 
ATOM     13  F   UNL     1       1.340   1.846  22.158  0.00  0.00    +0.000 F 
ATOM     14  C   UNL     1       2.128   3.986  21.533  0.00  0.00    +0.000 A 
ATOM     15  C   UNL     1       2.385   4.932  20.542  0.00  0.00    +0.000 A 
ENDBRANCH   1   9
BRANCH   1  16
ATOM     16  O   UNL     1       1.678   6.821  17.985  0.00  0.00    +0.000 OA
BRANCH  16  21
ATOM     17  C   UNL     1      -0.554   9.891  20.116  0.00  0.00    +0.000 C 
ATOM     18  C   UNL     1      -0.541  10.019  18.484  0.00  0.00    +0.000 C 
ATOM     19  C   UNL     1       1.019  10.197  18.057  0.00  0.00    +0.000 C 
ATOM     20  C   UNL     1       2.232   9.236  17.863  0.00  0.00    +0.000 C 
ATOM     21  C   UNL     1       2.319   7.925  18.696  0.00  0.00    +0.000 C 
ATOM     22  C   UNL     1       1.816   8.228  20.184  0.00  0.00    +0.000 C 
ATOM     23  C   UNL     1       0.904   9.495  20.198  0.00  0.00    +0.000 C 
ATOM     24  N   UNL     1       1.521  10.604  19.343  0.00  0.00    +0.000 NA
ATOM     25  C   UNL     1       1.182  12.035  19.394  0.00  0.00    +0.000 C 
BRANCH  17  26
ATOM     26  O   UNL     1      -0.743  11.086  20.912  0.00  0.00    +0.000 OA
BRANCH  26  27
ATOM     27  C   UNL     1      -0.638  10.847  22.337  0.00  0.00    +0.000 C 
BRANCH  27  29
ATOM     28  C   UNL     1      -0.638  13.265  22.431  0.00  0.00    +0.000 C 
ATOM     29  O   UNL     1      -0.732  12.032  23.140  0.00  0.00    +0.000 OA
ENDBRANCH  27  29
ENDBRANCH  26  27
ENDBRANCH  17  26
ENDBRANCH  16  21
ENDBRANCH   1  16
TORSDOF 7
ENDMDL
MODEL 7
REMARK VINA RESULT:      -7.5      3.406      7.304
REMARK  Name = 
REMARK  9 active torsions:
REMARK  status: ('A' for Active; 'I' for Inactive)
REMARK    1  A    between atoms: C_1  and  O_2
REMARK    2  A    between atoms: O_2  and  C_3
REMARK    3  A    between atoms: C_3  and  O_4
REMARK    4  A    between atoms: O_4  and  C_5
REMARK    5  A    between atoms: C_9  and  O_10
REMARK    6  A    between atoms: O_10  and  C_11
REMARK    7  A    between atoms: C_11  and  C_12
REMARK    8  A    between atoms: C_11  and  C_19
REMARK    9  A    between atoms: N_28  and  C_29
REMARK                            x       y       z     vdW  Elec       q    Type
REMARK                         _______ _______ _______ _____ _____    ______ ____
ROOT
ATOM      1  C   UNL     1       2.693   7.012  18.990  0.00  0.00    +0.000 C 
ENDROOT
BRANCH   1   2
ATOM      2  C   UNL     1       1.880   8.129  19.652  0.00  0.00    +0.000 A 
ATOM      3  C   UNL     1       1.409   9.228  18.924  0.00  0.00    +0.000 A 
ATOM      4  C   UNL     1       0.376  10.017  19.445  0.00  0.00    +0.000 A 
ATOM      5  C   UNL     1      -0.159   9.732  20.698  0.00  0.00    +0.000 A 
ATOM      6  F   UNL     1      -1.196  10.448  21.156  0.00  0.00    +0.000 F 
ATOM      7  C   UNL     1       0.342   8.696  21.469  0.00  0.00    +0.000 A 
ATOM      8  C   UNL     1       1.370   7.904  20.961  0.00  0.00    +0.000 A 
ENDBRANCH   1   2
BRANCH   1   9
ATOM      9  C   UNL     1       2.216   5.634  19.517  0.00  0.00    +0.000 A 
ATOM     10  C   UNL     1       1.672   4.722  18.596  0.00  0.00    +0.000 A 
ATOM     11  C   UNL     1       1.326   3.420  18.980  0.00  0.00    +0.000 A 
ATOM     12  C   UNL     1       1.510   3.044  20.300  0.00  0.00    +0.000 A 
ATOM     13  F   UNL     1       1.200   1.805  20.681  0.00  0.00    +0.000 F 
ATOM     14  C   UNL     1       2.021   3.952  21.235  0.00  0.00    +0.000 A 
ATOM     15  C   UNL     1       2.370   5.244  20.847  0.00  0.00    +0.000 A 
ENDBRANCH   1   9
BRANCH   1  16
ATOM     16  O   UNL     1       2.974   7.063  17.568  0.00  0.00    +0.000 OA
BRANCH  16  21
ATOM     17  C   UNL     1       5.205   4.214  15.150  0.00  0.00    +0.000 C 
ATOM     18  C   UNL     1       4.852   3.735  16.675  0.00  0.00    +0.000 C 
ATOM     19  C   UNL     1       5.572   4.809  17.663  0.00  0.00    +0.000 C 
ATOM     20  C   UNL     1       5.237   6.245  18.173  0.00  0.00    +0.000 C 
ATOM     21  C   UNL     1       4.400   7.205  17.280  0.00  0.00    +0.000 C 
ATOM     22  C   UNL     1       4.860   7.024  15.759  0.00  0.00    +0.000 C 
ATOM     23  C   UNL     1       5.538   5.631  15.563  0.00  0.00    +0.000 C 
ATOM     24  N   UNL     1       6.508   5.345  16.711  0.00  0.00    +0.000 NA
ATOM     25  C   UNL     1       7.590   4.346  16.710  0.00  0.00    +0.000 C 
BRANCH  17  26
ATOM     26  O   UNL     1       6.365   3.652  14.489  0.00  0.00    +0.000 OA
BRANCH  26  27
ATOM     27  C   UNL     1       6.372   3.875  13.057  0.00  0.00    +0.000 C 
BRANCH  27  29
ATOM     28  C   UNL     1       4.577   3.254  11.557  0.00  0.00    +0.000 C 
ATOM     29  O   UNL     1       5.722   2.844  12.299  0.00  0.00    +0.000 OA
ENDBRANCH  27  29
ENDBRANCH  26  27
ENDBRANCH  17  26
ENDBRANCH  16  21
ENDBRANCH   1  16
TORSDOF 7
ENDMDL
MODEL 8
REMARK VINA RESULT:      -7.5      3.273      7.247
REMARK  Name = 
REMARK  9 active torsions:
REMARK  status: ('A' for Active; 'I' for Inactive)
REMARK    1  A    between atoms: C_1  and  O_2
REMARK    2  A    between atoms: O_2  and  C_3
REMARK    3  A    between atoms: C_3  and  O_4
REMARK    4  A    between atoms: O_4  and  C_5
REMARK    5  A    between atoms: C_9  and  O_10
REMARK    6  A    between atoms: O_10  and  C_11
REMARK    7  A    between atoms: C_11  and  C_12
REMARK    8  A    between atoms: C_11  and  C_19
REMARK    9  A    between atoms: N_28  and  C_29
REMARK                            x       y       z     vdW  Elec       q    Type
REMARK                         _______ _______ _______ _____ _____    ______ ____
ROOT
ATOM      1  C   UNL     1       3.921   6.192  18.065  0.00  0.00    +0.000 C 
ENDROOT
BRANCH   1   2
ATOM      2  C   UNL     1       3.493   4.750  18.354  0.00  0.00    +0.000 A 
ATOM      3  C   UNL     1       2.620   4.056  17.507  0.00  0.00    +0.000 A 
ATOM      4  C   UNL     1       2.546   2.660  17.577  0.00  0.00    +0.000 A 
ATOM      5  C   UNL     1       3.311   1.964  18.508  0.00  0.00    +0.000 A 
ATOM      6  F   UNL     1       3.288   0.624  18.518  0.00  0.00    +0.000 F 
ATOM      7  C   UNL     1       4.124   2.633  19.407  0.00  0.00    +0.000 A 
ATOM      8  C   UNL     1       4.206   4.023  19.347  0.00  0.00    +0.000 A 
ENDBRANCH   1   2
BRANCH   1   9
ATOM      9  C   UNL     1       2.844   7.174  18.592  0.00  0.00    +0.000 A 
ATOM     10  C   UNL     1       2.372   7.003  19.905  0.00  0.00    +0.000 A 
ATOM     11  C   UNL     1       1.485   7.918  20.484  0.00  0.00    +0.000 A 
ATOM     12  C   UNL     1       1.057   8.998  19.731  0.00  0.00    +0.000 A 
ATOM     13  F   UNL     1       0.224   9.888  20.271  0.00  0.00    +0.000 F 
ATOM     14  C   UNL     1       1.493   9.165  18.412  0.00  0.00    +0.000 A 
ATOM     15  C   UNL     1       2.381   8.255  17.841  0.00  0.00    +0.000 A 
ENDBRANCH   1   9
BRANCH   1  16
ATOM     16  O   UNL     1       5.294   6.602  18.295  0.00  0.00    +0.000 OA
BRANCH  16  21
ATOM     17  C   UNL     1       5.198   4.266  14.623  0.00  0.00    +0.000 C 
ATOM     18  C   UNL     1       6.185   3.705  15.802  0.00  0.00    +0.000 C 
ATOM     19  C   UNL     1       7.278   4.880  16.074  0.00  0.00    +0.000 C 
ATOM     20  C   UNL     1       7.292   6.217  16.876  0.00  0.00    +0.000 C 
ATOM     21  C   UNL     1       5.971   7.016  17.068  0.00  0.00    +0.000 C 
ATOM     22  C   UNL     1       5.129   6.950  15.710  0.00  0.00    +0.000 C 
ATOM     23  C   UNL     1       5.568   5.714  14.863  0.00  0.00    +0.000 C 
ATOM     24  N   UNL     1       7.093   5.598  14.841  0.00  0.00    +0.000 NA
ATOM     25  C   UNL     1       7.895   4.823  13.880  0.00  0.00    +0.000 C 
BRANCH  17  26
ATOM     26  O   UNL     1       5.499   3.946  13.244  0.00  0.00    +0.000 OA
BRANCH  26  27
ATOM     27  C   UNL     1       4.418   3.259  12.566  0.00  0.00    +0.000 C 
BRANCH  27  29
ATOM     28  C   UNL     1       3.335   3.504  10.416  0.00  0.00    +0.000 C 
ATOM     29  O   UNL     1       4.537   3.244  11.136  0.00  0.00    +0.000 OA
ENDBRANCH  27  29
ENDBRANCH  26  27
ENDBRANCH  17  26
ENDBRANCH  16  21
ENDBRANCH   1  16
TORSDOF 7
ENDMDL
MODEL 9
REMARK VINA RESULT:      -7.5      3.417      7.428
REMARK  Name = 
REMARK  9 active torsions:
REMARK  status: ('A' for Active; 'I' for Inactive)
REMARK    1  A    between atoms: C_1  and  O_2
REMARK    2  A    between atoms: O_2  and  C_3
REMARK    3  A    between atoms: C_3  and  O_4
REMARK    4  A    between atoms: O_4  and  C_5
REMARK    5  A    between atoms: C_9  and  O_10
REMARK    6  A    between atoms: O_10  and  C_11
REMARK    7  A    between atoms: C_11  and  C_12
REMARK    8  A    between atoms: C_11  and  C_19
REMARK    9  A    between atoms: N_28  and  C_29
REMARK                            x       y       z     vdW  Elec       q    Type
REMARK                         _______ _______ _______ _____ _____    ______ ____
ROOT
ATOM      1  C   UNL     1       3.508   6.061  18.176  0.00  0.00    +0.000 C 
ENDROOT
BRANCH   1   2
ATOM      2  C   UNL     1       2.846   4.726  18.531  0.00  0.00    +0.000 A 
ATOM      3  C   UNL     1       1.880   4.627  19.540  0.00  0.00    +0.000 A 
ATOM      4  C   UNL     1       1.035   3.512  19.588  0.00  0.00    +0.000 A 
ATOM      5  C   UNL     1       1.176   2.486  18.658  0.00  0.00    +0.000 A 
ATOM      6  F   UNL     1       0.316   1.458  18.668  0.00  0.00    +0.000 F 
ATOM      7  C   UNL     1       2.173   2.526  17.698  0.00  0.00    +0.000 A 
ATOM      8  C   UNL     1       3.020   3.630  17.640  0.00  0.00    +0.000 A 
ENDBRANCH   1   2
BRANCH   1   9
ATOM      9  C   UNL     1       2.589   7.232  18.607  0.00  0.00    +0.000 A 
ATOM     10  C   UNL     1       2.227   7.329  19.963  0.00  0.00    +0.000 A 
ATOM     11  C   UNL     1       1.495   8.422  20.443  0.00  0.00    +0.000 A 
ATOM     12  C   UNL     1       1.110   9.408  19.552  0.00  0.00    +0.000 A 
ATOM     13  F   UNL     1       0.425  10.464  19.993  0.00  0.00    +0.000 F 
ATOM     14  C   UNL     1       1.436   9.310  18.194  0.00  0.00    +0.000 A 
ATOM     15  C   UNL     1       2.170   8.224  17.721  0.00  0.00    +0.000 A 
ENDBRANCH   1   9
BRANCH   1  16
ATOM     16  O   UNL     1       4.922   6.261  18.431  0.00  0.00    +0.000 OA
BRANCH  16  21
ATOM     17  C   UNL     1       5.317   4.169  14.634  0.00  0.00    +0.000 C 
ATOM     18  C   UNL     1       6.280   3.639  15.846  0.00  0.00    +0.000 C 
ATOM     19  C   UNL     1       7.220   4.901  16.261  0.00  0.00    +0.000 C 
ATOM     20  C   UNL     1       7.038   6.178  17.138  0.00  0.00    +0.000 C 
ATOM     21  C   UNL     1       5.629   6.821  17.281  0.00  0.00    +0.000 C 
ATOM     22  C   UNL     1       4.888   6.756  15.865  0.00  0.00    +0.000 C 
ATOM     23  C   UNL     1       5.511   5.629  14.982  0.00  0.00    +0.000 C 
ATOM     24  N   UNL     1       7.038   5.674  15.062  0.00  0.00    +0.000 NA
ATOM     25  C   UNL     1       7.980   5.050  14.118  0.00  0.00    +0.000 C 
BRANCH  17  26
ATOM     26  O   UNL     1       5.739   3.971  13.263  0.00  0.00    +0.000 OA
BRANCH  26  27
ATOM     27  C   UNL     1       4.796   3.200  12.479  0.00  0.00    +0.000 C 
BRANCH  27  29
ATOM     28  C   UNL     1       3.319   3.195  10.562  0.00  0.00    +0.000 C 
ATOM     29  O   UNL     1       4.370   3.846  11.272  0.00  0.00    +0.000 OA
ENDBRANCH  27  29
ENDBRANCH  26  27
ENDBRANCH  17  26
ENDBRANCH  16  21
ENDBRANCH   1  16
TORSDOF 7
ENDMDL
