MODEL 1
REMARK VINA RESULT:      -7.9      0.000      0.000
REMARK  Name = 
REMARK  5 active torsions:
REMARK  status: ('A' for Active; 'I' for Inactive)
REMARK    1  A    between atoms: C_1  and  O_2
REMARK    2  A    between atoms: O_2  and  C_3
REMARK    3  A    between atoms: C_5  and  C_6
REMARK    4  A    between atoms: N_12  and  C_13
REMARK    5  A    between atoms: C_13  and  C_14
REMARK                            x       y       z     vdW  Elec       q    Type
REMARK                         _______ _______ _______ _____ _____    ______ ____
ROOT
ATOM      1  C   UNL     1       2.264   7.865  18.909  0.00  0.00    +0.000 A 
ATOM      2  N   UNL     1       1.415   8.581  19.697  0.00  0.00    +0.000 NA
ATOM      3  C   UNL     1       0.852   8.070  20.825  0.00  0.00    +0.000 A 
ATOM      4  C   UNL     1       1.090   6.758  21.227  0.00  0.00    +0.000 A 
ATOM      5  C   UNL     1       1.933   6.011  20.406  0.00  0.00    +0.000 A 
ATOM      6  C   UNL     1       2.529   6.531  19.244  0.00  0.00    +0.000 A 
ATOM      7  N   UNL     1       3.309   5.492  18.691  0.00  0.00    +0.000 N 
ATOM      8  C   UNL     1       3.201   4.414  19.483  0.00  0.00    +0.000 A 
ATOM      9  C   UNL     1       3.836   3.063  19.389  0.00  0.00    +0.000 A 
ATOM     10  C   UNL     1       3.566   2.192  20.378  0.00  0.00    +0.000 A 
ATOM     11  C   UNL     1       2.693   2.589  21.467  0.00  0.00    +0.000 A 
ATOM     12  C   UNL     1       2.125   3.805  21.541  0.00  0.00    +0.000 A 
ATOM     13  N   UNL     1       2.396   4.706  20.524  0.00  0.00    +0.000 N 
ENDROOT
BRANCH   3  14
ATOM     14  C   UNL     1      -0.031   8.999  21.622  0.00  0.00    +0.000 C 
ATOM     15  C   UNL     1       0.318   9.395  23.036  0.00  0.00    +0.000 C 
ATOM     16  C   UNL     1       0.489  10.393  21.931  0.00  0.00    +0.000 C 
ENDBRANCH   3  14
BRANCH   1  18
ATOM     17  C   UNL     1       2.314   9.815  17.662  0.00  0.00    +0.000 C 
ATOM     18  O   UNL     1       2.849   8.495  17.831  0.00  0.00    +0.000 OA
ENDBRANCH   1  18
BRANCH   7  19
ATOM     19  C   UNL     1       4.143   5.560  17.489  0.00  0.00    +0.000 C 
BRANCH  19  20
ATOM     20  C   UNL     1       5.526   6.053  17.842  0.00  0.00    +0.000 A 
ATOM     21  C   UNL     1       6.272   5.410  18.839  0.00  0.00    +0.000 A 
ATOM     22  C   UNL     1       7.555   5.851  19.170  0.00  0.00    +0.000 A 
ATOM     23  C   UNL     1       8.113   6.942  18.508  0.00  0.00    +0.000 A 
ATOM     24  C   UNL     1       7.395   7.580  17.501  0.00  0.00    +0.000 A 
ATOM     25  C   UNL     1       6.112   7.137  17.163  0.00  0.00    +0.000 A 
ENDBRANCH  19  20
ENDBRANCH   7  19
TORSDOF 4
ENDMDL
MODEL 2
REMARK VINA RESULT:      -7.7      2.365      6.125
REMARK  Name = 
REMARK  5 active torsions:
REMARK  status: ('A' for Active; 'I' for Inactive)
REMARK    1  A    between atoms: C_1  and  O_2
REMARK    2  A    between atoms: O_2  and  C_3
REMARK    3  A    between atoms: C_5  and  C_6
REMARK    4  A    between atoms: N_12  and  C_13
REMARK    5  A    between atoms: C_13  and  C_14
REMARK                            x       y       z     vdW  Elec       q    Type
REMARK                         _______ _______ _______ _____ _____    ______ ____
ROOT
ATOM      1  C   UNL     1       5.334   5.958  17.338  0.00  0.00    +0.000 A 
ATOM      2  N   UNL     1       5.971   5.384  16.279  0.00  0.00    +0.000 NA
ATOM      3  C   UNL     1       5.577   4.198  15.742  0.00  0.00    +0.000 A 
ATOM      4  C   UNL     1       4.509   3.477  16.269  0.00  0.00    +0.000 A 
ATOM      5  C   UNL     1       3.874   4.047  17.373  0.00  0.00    +0.000 A 
ATOM      6  C   UNL     1       4.264   5.276  17.930  0.00  0.00    +0.000 A 
ATOM      7  N   UNL     1       3.394   5.522  19.014  0.00  0.00    +0.000 N 
ATOM      8  C   UNL     1       2.521   4.506  19.095  0.00  0.00    +0.000 A 
ATOM      9  C   UNL     1       1.374   4.271  20.026  0.00  0.00    +0.000 A 
ATOM     10  C   UNL     1       0.640   3.163  19.823  0.00  0.00    +0.000 A 
ATOM     11  C   UNL     1       0.982   2.263  18.738  0.00  0.00    +0.000 A 
ATOM     12  C   UNL     1       2.017   2.481  17.908  0.00  0.00    +0.000 A 
ATOM     13  N   UNL     1       2.779   3.619  18.112  0.00  0.00    +0.000 N 
ENDROOT
BRANCH   3  14
ATOM     14  C   UNL     1       6.351   3.710  14.541  0.00  0.00    +0.000 C 
ATOM     15  C   UNL     1       5.741   3.710  13.160  0.00  0.00    +0.000 C 
ATOM     16  C   UNL     1       6.784   4.731  13.503  0.00  0.00    +0.000 C 
ENDBRANCH   3  14
BRANCH   1  18
ATOM     17  C   UNL     1       7.148   7.391  17.479  0.00  0.00    +0.000 C 
ATOM     18  O   UNL     1       5.754   7.202  17.760  0.00  0.00    +0.000 OA
ENDBRANCH   1  18
BRANCH   7  19
ATOM     19  C   UNL     1       3.385   6.696  19.890  0.00  0.00    +0.000 C 
BRANCH  19  20
ATOM     20  C   UNL     1       2.390   7.714  19.387  0.00  0.00    +0.000 A 
ATOM     21  C   UNL     1       1.505   8.337  20.278  0.00  0.00    +0.000 A 
ATOM     22  C   UNL     1       0.585   9.285  19.828  0.00  0.00    +0.000 A 
ATOM     23  C   UNL     1       0.535   9.626  18.478  0.00  0.00    +0.000 A 
ATOM     24  C   UNL     1       1.419   9.033  17.582  0.00  0.00    +0.000 A 
ATOM     25  C   UNL     1       2.347   8.088  18.032  0.00  0.00    +0.000 A 
ENDBRANCH  19  20
ENDBRANCH   7  19
TORSDOF 4
ENDMDL
MODEL 3
REMARK VINA RESULT:      -7.3      2.698      3.853
REMARK  Name = 
REMARK  5 active torsions:
REMARK  status: ('A' for Active; 'I' for Inactive)
REMARK    1  A    between atoms: C_1  and  O_2
REMARK    2  A    between atoms: O_2  and  C_3
REMARK    3  A    between atoms: C_5  and  C_6
REMARK    4  A    between atoms: N_12  and  C_13
REMARK    5  A    between atoms: C_13  and  C_14
REMARK                            x       y       z     vdW  Elec       q    Type
REMARK                         _______ _______ _______ _____ _____    ______ ____
ROOT
ATOM      1  C   UNL     1       4.842   7.031  17.104  0.00  0.00    +0.000 A 
ATOM      2  N   UNL     1       4.058   8.132  17.279  0.00  0.00    +0.000 NA
ATOM      3  C   UNL     1       2.785   8.058  17.752  0.00  0.00    +0.000 A 
ATOM      4  C   UNL     1       2.191   6.836  18.058  0.00  0.00    +0.000 A 
ATOM      5  C   UNL     1       2.979   5.705  17.851  0.00  0.00    +0.000 A 
ATOM      6  C   UNL     1       4.299   5.768  17.373  0.00  0.00    +0.000 A 
ATOM      7  N   UNL     1       4.766   4.439  17.301  0.00  0.00    +0.000 N 
ATOM      8  C   UNL     1       3.789   3.623  17.725  0.00  0.00    +0.000 A 
ATOM      9  C   UNL     1       3.755   2.136  17.886  0.00  0.00    +0.000 A 
ATOM     10  C   UNL     1       2.629   1.602  18.389  0.00  0.00    +0.000 A 
ATOM     11  C   UNL     1       1.520   2.468  18.746  0.00  0.00    +0.000 A 
ATOM     12  C   UNL     1       1.559   3.803  18.596  0.00  0.00    +0.000 A 
ATOM     13  N   UNL     1       2.716   4.360  18.076  0.00  0.00    +0.000 N 
ENDROOT
BRANCH   3  14
ATOM     14  C   UNL     1       2.055   9.367  17.938  0.00  0.00    +0.000 C 
ATOM     15  C   UNL     1       0.547   9.433  17.943  0.00  0.00    +0.000 C 
ATOM     16  C   UNL     1       1.294   9.586  19.233  0.00  0.00    +0.000 C 
ENDBRANCH   3  14
BRANCH   1  18
ATOM     17  C   UNL     1       7.027   7.278  17.829  0.00  0.00    +0.000 C 
ATOM     18  O   UNL     1       6.147   7.213  16.698  0.00  0.00    +0.000 OA
ENDBRANCH   1  18
BRANCH   7  19
ATOM     19  C   UNL     1       6.099   3.993  16.885  0.00  0.00    +0.000 C 
BRANCH  19  20
ATOM     20  C   UNL     1       6.244   4.112  15.387  0.00  0.00    +0.000 A 
ATOM     21  C   UNL     1       7.330   4.804  14.834  0.00  0.00    +0.000 A 
ATOM     22  C   UNL     1       7.480   4.916  13.451  0.00  0.00    +0.000 A 
ATOM     23  C   UNL     1       6.546   4.335  12.597  0.00  0.00    +0.000 A 
ATOM     24  C   UNL     1       5.471   3.627  13.126  0.00  0.00    +0.000 A 
ATOM     25  C   UNL     1       5.322   3.508  14.512  0.00  0.00    +0.000 A 
ENDBRANCH  19  20
ENDBRANCH   7  19
TORSDOF 4
ENDMDL
MODEL 4
REMARK VINA RESULT:      -7.0      0.878      1.047
REMARK  Name = 
REMARK  5 active torsions:
REMARK  status: ('A' for Active; 'I' for Inactive)
REMARK    1  A    between atoms: C_1  and  O_2
REMARK    2  A    between atoms: O_2  and  C_3
REMARK    3  A    between atoms: C_5  and  C_6
REMARK    4  A    between atoms: N_12  and  C_13
REMARK    5  A    between atoms: C_13  and  C_14
REMARK                            x       y       z     vdW  Elec       q    Type
REMARK                         _______ _______ _______ _____ _____    ______ ____
ROOT
ATOM      1  C   UNL     1       2.163   7.937  18.915  0.00  0.00    +0.000 A 
ATOM      2  N   UNL     1       1.619   8.753  19.860  0.00  0.00    +0.000 NA
ATOM      3  C   UNL     1       1.258   8.308  21.094  0.00  0.00    +0.000 A 
ATOM      4  C   UNL     1       1.395   6.970  21.455  0.00  0.00    +0.000 A 
ATOM      5  C   UNL     1       1.923   6.125  20.479  0.00  0.00    +0.000 A 
ATOM      6  C   UNL     1       2.310   6.575  19.205  0.00  0.00    +0.000 A 
ATOM      7  N   UNL     1       2.795   5.447  18.509  0.00  0.00    +0.000 N 
ATOM      8  C   UNL     1       2.719   4.382  19.323  0.00  0.00    +0.000 A 
ATOM      9  C   UNL     1       3.124   2.958  19.113  0.00  0.00    +0.000 A 
ATOM     10  C   UNL     1       2.965   2.119  20.151  0.00  0.00    +0.000 A 
ATOM     11  C   UNL     1       2.420   2.616  21.401  0.00  0.00    +0.000 A 
ATOM     12  C   UNL     1       2.057   3.898  21.579  0.00  0.00    +0.000 A 
ATOM     13  N   UNL     1       2.216   4.768  20.513  0.00  0.00    +0.000 N 
ENDROOT
BRANCH   3  14
ATOM     14  C   UNL     1       0.712   9.339  22.052  0.00  0.00    +0.000 C 
ATOM     15  C   UNL     1      -0.428  10.248  21.663  0.00  0.00    +0.000 C 
ATOM     16  C   UNL     1      -0.679   9.124  22.622  0.00  0.00    +0.000 C 
ENDBRANCH   3  14
BRANCH   1  18
ATOM     17  C   UNL     1       2.108   9.848  17.608  0.00  0.00    +0.000 C 
ATOM     18  O   UNL     1       2.574   8.496  17.723  0.00  0.00    +0.000 OA
ENDBRANCH   1  18
BRANCH   7  19
ATOM     19  C   UNL     1       3.341   5.416  17.150  0.00  0.00    +0.000 C 
BRANCH  19  20
ATOM     20  C   UNL     1       4.842   5.568  17.188  0.00  0.00    +0.000 A 
ATOM     21  C   UNL     1       5.671   4.452  16.999  0.00  0.00    +0.000 A 
ATOM     22  C   UNL     1       7.061   4.579  17.025  0.00  0.00    +0.000 A 
ATOM     23  C   UNL     1       7.645   5.825  17.239  0.00  0.00    +0.000 A 
ATOM     24  C   UNL     1       6.840   6.947  17.408  0.00  0.00    +0.000 A 
ATOM     25  C   UNL     1       5.447   6.824  17.376  0.00  0.00    +0.000 A 
ENDBRANCH  19  20
ENDBRANCH   7  19
TORSDOF 4
ENDMDL
MODEL 5
REMARK VINA RESULT:      -7.0      0.842      1.048
REMARK  Name = 
REMARK  5 active torsions:
REMARK  status: ('A' for Active; 'I' for Inactive)
REMARK    1  A    between atoms: C_1  and  O_2
REMARK    2  A    between atoms: O_2  and  C_3
REMARK    3  A    between atoms: C_5  and  C_6
REMARK    4  A    between atoms: N_12  and  C_13
REMARK    5  A    between atoms: C_13  and  C_14
REMARK                            x       y       z     vdW  Elec       q    Type
REMARK                         _______ _______ _______ _____ _____    ______ ____
ROOT
ATOM      1  C   UNL     1       2.223   7.986  18.874  0.00  0.00    +0.000 A 
ATOM      2  N   UNL     1       1.508   8.783  19.716  0.00  0.00    +0.000 NA
ATOM      3  C   UNL     1       0.985   8.330  20.887  0.00  0.00    +0.000 A 
ATOM      4  C   UNL     1       1.123   7.002  21.282  0.00  0.00    +0.000 A 
ATOM      5  C   UNL     1       1.828   6.175  20.408  0.00  0.00    +0.000 A 
ATOM      6  C   UNL     1       2.383   6.634  19.200  0.00  0.00    +0.000 A 
ATOM      7  N   UNL     1       3.015   5.524  18.600  0.00  0.00    +0.000 N 
ATOM      8  C   UNL     1       2.863   4.462  19.407  0.00  0.00    +0.000 A 
ATOM      9  C   UNL     1       3.356   3.056  19.278  0.00  0.00    +0.000 A 
ATOM     10  C   UNL     1       3.078   2.217  20.291  0.00  0.00    +0.000 A 
ATOM     11  C   UNL     1       2.330   2.698  21.439  0.00  0.00    +0.000 A 
ATOM     12  C   UNL     1       1.890   3.964  21.544  0.00  0.00    +0.000 A 
ATOM     13  N   UNL     1       2.170   4.833  20.502  0.00  0.00    +0.000 N 
ENDROOT
BRANCH   3  14
ATOM     14  C   UNL     1       0.257   9.342  21.740  0.00  0.00    +0.000 C 
ATOM     15  C   UNL     1      -0.695   8.913  22.829  0.00  0.00    +0.000 C 
ATOM     16  C   UNL     1       0.648   9.462  23.202  0.00  0.00    +0.000 C 
ENDBRANCH   3  14
BRANCH   1  18
ATOM     17  C   UNL     1       2.328   9.905  17.581  0.00  0.00    +0.000 C 
ATOM     18  O   UNL     1       2.785   8.556  17.751  0.00  0.00    +0.000 OA
ENDBRANCH   1  18
BRANCH   7  19
ATOM     19  C   UNL     1       3.760   5.509  17.339  0.00  0.00    +0.000 C 
BRANCH  19  20
ATOM     20  C   UNL     1       5.234   5.319  17.606  0.00  0.00    +0.000 A 
ATOM     21  C   UNL     1       5.807   5.810  18.788  0.00  0.00    +0.000 A 
ATOM     22  C   UNL     1       7.167   5.635  19.051  0.00  0.00    +0.000 A 
ATOM     23  C   UNL     1       7.976   4.965  18.136  0.00  0.00    +0.000 A 
ATOM     24  C   UNL     1       7.421   4.453  16.967  0.00  0.00    +0.000 A 
ATOM     25  C   UNL     1       6.057   4.621  16.704  0.00  0.00    +0.000 A 
ENDBRANCH  19  20
ENDBRANCH   7  19
TORSDOF 4
ENDMDL
MODEL 6
REMARK VINA RESULT:      -7.0      2.195      3.257
REMARK  Name = 
REMARK  5 active torsions:
REMARK  status: ('A' for Active; 'I' for Inactive)
REMARK    1  A    between atoms: C_1  and  O_2
REMARK    2  A    between atoms: O_2  and  C_3
REMARK    3  A    between atoms: C_5  and  C_6
REMARK    4  A    between atoms: N_12  and  C_13
REMARK    5  A    between atoms: C_13  and  C_14
REMARK                            x       y       z     vdW  Elec       q    Type
REMARK                         _______ _______ _______ _____ _____    ______ ____
ROOT
ATOM      1  C   UNL     1       4.581   7.157  17.273  0.00  0.00    +0.000 A 
ATOM      2  N   UNL     1       3.644   8.144  17.206  0.00  0.00    +0.000 NA
ATOM      3  C   UNL     1       2.473   8.092  17.897  0.00  0.00    +0.000 A 
ATOM      4  C   UNL     1       2.146   7.000  18.697  0.00  0.00    +0.000 A 
ATOM      5  C   UNL     1       3.088   5.973  18.743  0.00  0.00    +0.000 A 
ATOM      6  C   UNL     1       4.306   6.019  18.043  0.00  0.00    +0.000 A 
ATOM      7  N   UNL     1       4.987   4.819  18.338  0.00  0.00    +0.000 N 
ATOM      8  C   UNL     1       4.230   4.098  19.179  0.00  0.00    +0.000 A 
ATOM      9  C   UNL     1       4.478   2.776  19.832  0.00  0.00    +0.000 A 
ATOM     10  C   UNL     1       3.535   2.326  20.678  0.00  0.00    +0.000 A 
ATOM     11  C   UNL     1       2.345   3.122  20.917  0.00  0.00    +0.000 A 
ATOM     12  C   UNL     1       2.130   4.309  20.324  0.00  0.00    +0.000 A 
ATOM     13  N   UNL     1       3.096   4.777  19.448  0.00  0.00    +0.000 N 
ENDROOT
BRANCH   3  14
ATOM     14  C   UNL     1       1.554   9.283  17.761  0.00  0.00    +0.000 C 
ATOM     15  C   UNL     1       0.754   9.796  18.933  0.00  0.00    +0.000 C 
ATOM     16  C   UNL     1       1.945  10.574  18.460  0.00  0.00    +0.000 C 
ENDBRANCH   3  14
BRANCH   1  18
ATOM     17  C   UNL     1       6.766   7.896  17.473  0.00  0.00    +0.000 C 
ATOM     18  O   UNL     1       5.772   7.337  16.603  0.00  0.00    +0.000 OA
ENDBRANCH   1  18
BRANCH   7  19
ATOM     19  C   UNL     1       6.314   4.418  17.864  0.00  0.00    +0.000 C 
BRANCH  19  20
ATOM     20  C   UNL     1       6.320   4.318  16.357  0.00  0.00    +0.000 A 
ATOM     21  C   UNL     1       5.237   3.738  15.682  0.00  0.00    +0.000 A 
ATOM     22  C   UNL     1       5.227   3.645  14.290  0.00  0.00    +0.000 A 
ATOM     23  C   UNL     1       6.301   4.132  13.548  0.00  0.00    +0.000 A 
ATOM     24  C   UNL     1       7.376   4.729  14.199  0.00  0.00    +0.000 A 
ATOM     25  C   UNL     1       7.386   4.830  15.594  0.00  0.00    +0.000 A 
ENDBRANCH  19  20
ENDBRANCH   7  19
TORSDOF 4
ENDMDL
MODEL 7
REMARK VINA RESULT:      -6.9      2.165      3.283
REMARK  Name = 
REMARK  5 active torsions:
REMARK  status: ('A' for Active; 'I' for Inactive)
REMARK    1  A    between atoms: C_1  and  O_2
REMARK    2  A    between atoms: O_2  and  C_3
REMARK    3  A    between atoms: C_5  and  C_6
REMARK    4  A    between atoms: N_12  and  C_13
REMARK    5  A    between atoms: C_13  and  C_14
REMARK                            x       y       z     vdW  Elec       q    Type
REMARK                         _______ _______ _______ _____ _____    ______ ____
ROOT
ATOM      1  C   UNL     1       4.587   7.216  17.320  0.00  0.00    +0.000 A 
ATOM      2  N   UNL     1       3.736   8.276  17.231  0.00  0.00    +0.000 NA
ATOM      3  C   UNL     1       2.555   8.327  17.905  0.00  0.00    +0.000 A 
ATOM      4  C   UNL     1       2.128   7.273  18.709  0.00  0.00    +0.000 A 
ATOM      5  C   UNL     1       2.982   6.173  18.778  0.00  0.00    +0.000 A 
ATOM      6  C   UNL     1       4.209   6.112  18.096  0.00  0.00    +0.000 A 
ATOM      7  N   UNL     1       4.785   4.863  18.412  0.00  0.00    +0.000 N 
ATOM      8  C   UNL     1       3.959   4.216  19.248  0.00  0.00    +0.000 A 
ATOM      9  C   UNL     1       4.089   2.884  19.916  0.00  0.00    +0.000 A 
ATOM     10  C   UNL     1       3.100   2.522  20.752  0.00  0.00    +0.000 A 
ATOM     11  C   UNL     1       1.976   3.415  20.966  0.00  0.00    +0.000 A 
ATOM     12  C   UNL     1       1.868   4.609  20.359  0.00  0.00    +0.000 A 
ATOM     13  N   UNL     1       2.882   4.988  19.494  0.00  0.00    +0.000 N 
ENDROOT
BRANCH   3  14
ATOM     14  C   UNL     1       1.739   9.587  17.744  0.00  0.00    +0.000 C 
ATOM     15  C   UNL     1       0.286   9.641  18.151  0.00  0.00    +0.000 C 
ATOM     16  C   UNL     1       1.312  10.330  18.998  0.00  0.00    +0.000 C 
ENDBRANCH   3  14
BRANCH   1  18
ATOM     17  C   UNL     1       6.814   7.815  17.534  0.00  0.00    +0.000 C 
ATOM     18  O   UNL     1       5.799   7.291  16.666  0.00  0.00    +0.000 OA
ENDBRANCH   1  18
BRANCH   7  19
ATOM     19  C   UNL     1       6.081   4.350  17.961  0.00  0.00    +0.000 C 
BRANCH  19  20
ATOM     20  C   UNL     1       6.123   4.292  16.453  0.00  0.00    +0.000 A 
ATOM     21  C   UNL     1       7.272   4.699  15.761  0.00  0.00    +0.000 A 
ATOM     22  C   UNL     1       7.326   4.645  14.367  0.00  0.00    +0.000 A 
ATOM     23  C   UNL     1       6.232   4.180  13.642  0.00  0.00    +0.000 A 
ATOM     24  C   UNL     1       5.089   3.753  14.312  0.00  0.00    +0.000 A 
ATOM     25  C   UNL     1       5.035   3.801  15.709  0.00  0.00    +0.000 A 
ENDBRANCH  19  20
ENDBRANCH   7  19
TORSDOF 4
ENDMDL
MODEL 8
REMARK VINA RESULT:      -6.9      2.127      6.652
REMARK  Name = 
REMARK  5 active torsions:
REMARK  status: ('A' for Active; 'I' for Inactive)
REMARK    1  A    between atoms: C_1  and  O_2
REMARK    2  A    between atoms: O_2  and  C_3
REMARK    3  A    between atoms: C_5  and  C_6
REMARK    4  A    between atoms: N_12  and  C_13
REMARK    5  A    between atoms: C_13  and  C_14
REMARK                            x       y       z     vdW  Elec       q    Type
REMARK                         _______ _______ _______ _____ _____    ______ ____
ROOT
ATOM      1  C   UNL     1       4.373   5.161  18.612  0.00  0.00    +0.000 A 
ATOM      2  N   UNL     1       5.097   5.067  17.462  0.00  0.00    +0.000 NA
ATOM      3  C   UNL     1       5.054   6.017  16.490  0.00  0.00    +0.000 A 
ATOM      4  C   UNL     1       4.235   7.137  16.599  0.00  0.00    +0.000 A 
ATOM      5  C   UNL     1       3.468   7.221  17.761  0.00  0.00    +0.000 A 
ATOM      6  C   UNL     1       3.510   6.252  18.778  0.00  0.00    +0.000 A 
ATOM      7  N   UNL     1       2.614   6.680  19.780  0.00  0.00    +0.000 N 
ATOM      8  C   UNL     1       2.074   7.846  19.396  0.00  0.00    +0.000 A 
ATOM      9  C   UNL     1       1.098   8.748  20.084  0.00  0.00    +0.000 A 
ATOM     10  C   UNL     1       0.778   9.893  19.455  0.00  0.00    +0.000 A 
ATOM     11  C   UNL     1       1.376  10.199  18.169  0.00  0.00    +0.000 A 
ATOM     12  C   UNL     1       2.250   9.380  17.558  0.00  0.00    +0.000 A 
ATOM     13  N   UNL     1       2.583   8.198  18.198  0.00  0.00    +0.000 N 
ENDROOT
BRANCH   3  14
ATOM     14  C   UNL     1       5.949   5.800  15.293  0.00  0.00    +0.000 C 
ATOM     15  C   UNL     1       6.945   4.667  15.251  0.00  0.00    +0.000 C 
ATOM     16  C   UNL     1       5.700   4.580  14.423  0.00  0.00    +0.000 C 
ENDBRANCH   3  14
BRANCH   1  18
ATOM     17  C   UNL     1       4.507   2.880  18.993  0.00  0.00    +0.000 C 
ATOM     18  O   UNL     1       4.544   4.190  19.577  0.00  0.00    +0.000 OA
ENDBRANCH   1  18
BRANCH   7  19
ATOM     19  C   UNL     1       2.333   6.014  21.055  0.00  0.00    +0.000 C 
BRANCH  19  20
ATOM     20  C   UNL     1       1.867   4.599  20.813  0.00  0.00    +0.000 A 
ATOM     21  C   UNL     1       2.168   3.587  21.735  0.00  0.00    +0.000 A 
ATOM     22  C   UNL     1       1.738   2.276  21.527  0.00  0.00    +0.000 A 
ATOM     23  C   UNL     1       0.998   1.955  20.391  0.00  0.00    +0.000 A 
ATOM     24  C   UNL     1       0.672   2.949  19.474  0.00  0.00    +0.000 A 
ATOM     25  C   UNL     1       1.096   4.265  19.684  0.00  0.00    +0.000 A 
ENDBRANCH  19  20
ENDBRANCH   7  19
TORSDOF 4
ENDMDL
MODEL 9
REMARK VINA RESULT:      -6.8      4.549      7.714
REMARK  Name = 
REMARK  5 active torsions:
REMARK  status: ('A' for Active; 'I' for Inactive)
REMARK    1  A    between atoms: C_1  and  O_2
REMARK    2  A    between atoms: O_2  and  C_3
REMARK    3  A    between atoms: C_5  and  C_6
REMARK    4  A    between atoms: N_12  and  C_13
REMARK    5  A    between atoms: C_13  and  C_14
REMARK                            x       y       z     vdW  Elec       q    Type
REMARK                         _______ _______ _______ _____ _____    ______ ____
ROOT
ATOM      1  C   UNL     1      -0.800  12.956  21.513  0.00  0.00    +0.000 A 
ATOM      2  N   UNL     1      -1.638  13.344  22.515  0.00  0.00    +0.000 NA
ATOM      3  C   UNL     1      -2.991  13.226  22.427  0.00  0.00    +0.000 A 
ATOM      4  C   UNL     1      -3.606  12.728  21.281  0.00  0.00    +0.000 A 
ATOM      5  C   UNL     1      -2.754  12.359  20.241  0.00  0.00    +0.000 A 
ATOM      6  C   UNL     1      -1.355  12.465  20.324  0.00  0.00    +0.000 A 
ATOM      7  N   UNL     1      -0.842  11.998  19.095  0.00  0.00    +0.000 N 
ATOM      8  C   UNL     1      -1.871  11.618  18.323  0.00  0.00    +0.000 A 
ATOM      9  C   UNL     1      -1.900  11.022  16.951  0.00  0.00    +0.000 A 
ATOM     10  C   UNL     1      -3.105  10.697  16.452  0.00  0.00    +0.000 A 
ATOM     11  C   UNL     1      -4.299  10.931  17.244  0.00  0.00    +0.000 A 
ATOM     12  C   UNL     1      -4.262  11.469  18.475  0.00  0.00    +0.000 A 
ATOM     13  N   UNL     1      -3.024  11.809  18.995  0.00  0.00    +0.000 N 
ENDROOT
BRANCH   3  14
ATOM     14  C   UNL     1      -3.787  13.653  23.637  0.00  0.00    +0.000 C 
ATOM     15  C   UNL     1      -5.249  13.307  23.778  0.00  0.00    +0.000 C 
ATOM     16  C   UNL     1      -4.238  12.581  24.613  0.00  0.00    +0.000 C 
ENDBRANCH   3  14
BRANCH   1  18
ATOM     17  C   UNL     1       1.002  14.400  21.678  0.00  0.00    +0.000 C 
ATOM     18  O   UNL     1       0.560  13.037  21.727  0.00  0.00    +0.000 OA
ENDBRANCH   1  18
BRANCH   7  19
ATOM     19  C   UNL     1       0.568  11.887  18.713  0.00  0.00    +0.000 C 
BRANCH  19  20
ATOM     20  C   UNL     1       1.056  10.474  18.927  0.00  0.00    +0.000 A 
ATOM     21  C   UNL     1       0.891   9.850  20.171  0.00  0.00    +0.000 A 
ATOM     22  C   UNL     1       1.332   8.542  20.381  0.00  0.00    +0.000 A 
ATOM     23  C   UNL     1       1.944   7.836  19.348  0.00  0.00    +0.000 A 
ATOM     24  C   UNL     1       2.098   8.431  18.100  0.00  0.00    +0.000 A 
ATOM     25  C   UNL     1       1.652   9.740  17.885  0.00  0.00    +0.000 A 
ENDBRANCH  19  20
ENDBRANCH   7  19
TORSDOF 4
ENDMDL
