MODEL 1
REMARK VINA RESULT:      -7.6      0.000      0.000
REMARK  Name = 
REMARK  7 active torsions:
REMARK  status: ('A' for Active; 'I' for Inactive)
REMARK    1  A    between atoms: C_1  and  O_2
REMARK    2  A    between atoms: O_2  and  C_3
REMARK    3  A    between atoms: C_5  and  N_6
REMARK    4  A    between atoms: C_7  and  C_9
REMARK    5  A    between atoms: C_15  and  C_16
REMARK    6  A    between atoms: N_18  and  C_19
REMARK    7  A    between atoms: N_22  and  C_23
REMARK                            x       y       z     vdW  Elec       q    Type
REMARK                         _______ _______ _______ _____ _____    ______ ____
ROOT
ATOM      1  C   UNL     1      -0.529  10.871  19.577  0.00  0.00    +0.000 C 
ATOM      2  O   UNL     1      -0.248  11.529  18.576  0.00  0.00    +0.000 OA
ATOM      3  N   UNL     1      -1.587  11.260  20.383  0.00  0.00    +0.000 N 
ATOM      4  H   UNL     1      -1.915  10.633  21.111  0.00  0.00    +0.000 HD
ENDROOT
BRANCH   1  11
ATOM      5  C   UNL     1       0.308   8.868  21.037  0.00  0.00    +0.000 A 
ATOM      6  C   UNL     1       1.158   7.741  21.068  0.00  0.00    +0.000 A 
ATOM      7  C   UNL     1       2.051   7.424  20.046  0.00  0.00    +0.000 A 
ATOM      8  C   UNL     1       2.064   8.227  18.913  0.00  0.00    +0.000 A 
ATOM      9 CL   UNL     1       3.115   7.900  17.584  0.00  0.00    +0.000 Cl
ATOM     10  C   UNL     1       1.213   9.333  18.841  0.00  0.00    +0.000 A 
ATOM     11  C   UNL     1       0.317   9.672  19.887  0.00  0.00    +0.000 A 
BRANCH   7  12
ATOM     12  N   UNL     1       2.896   6.288  20.142  0.00  0.00    +0.000 N 
ATOM     13  C   UNL     1       2.494   4.976  19.982  0.00  0.00    +0.000 C 
ATOM     14  O   UNL     1       1.334   4.569  19.963  0.00  0.00    +0.000 OA
ATOM     15  H   UNL     1       3.864   6.465  20.395  0.00  0.00    +0.000 HD
BRANCH  13  16
ATOM     16  C   UNL     1       3.608   4.020  19.762  0.00  0.00    +0.000 C 
ATOM     17  C   UNL     1       3.368   2.665  19.135  0.00  0.00    +0.000 C 
ATOM     18  C   UNL     1       4.017   3.750  18.328  0.00  0.00    +0.000 C 
ENDBRANCH  13  16
ENDBRANCH   7  12
BRANCH   5  20
ATOM     19  C   UNL     1       0.159   9.495  23.325  0.00  0.00    +0.000 C 
ATOM     20  O   UNL     1      -0.519   9.156  22.099  0.00  0.00    +0.000 OA
ENDBRANCH   5  20
ENDBRANCH   1  11
BRANCH   3  21
ATOM     21  C   UNL     1      -2.372  12.427  19.960  0.00  0.00    +0.000 C 
ATOM     22  C   UNL     1      -3.659  12.114  19.221  0.00  0.00    +0.000 C 
ATOM     23  C   UNL     1      -4.530  13.324  19.537  0.00  0.00    +0.000 C 
ATOM     24  N   UNL     1      -4.282  13.661  20.949  0.00  0.00    +0.000 NA
ATOM     25  C   UNL     1      -2.839  13.335  21.131  0.00  0.00    +0.000 C 
BRANCH  24  26
ATOM     26  C   UNL     1      -5.134  12.937  21.928  0.00  0.00    +0.000 C 
ATOM     27  C   UNL     1      -4.921  13.446  23.401  0.00  0.00    +0.000 C 
ATOM     28  C   UNL     1      -5.447  14.883  23.589  0.00  0.00    +0.000 C 
ATOM     29  C   UNL     1      -6.950  14.942  23.284  0.00  0.00    +0.000 C 
ATOM     30  C   UNL     1      -7.703  13.999  24.238  0.00  0.00    +0.000 C 
ATOM     31  C   UNL     1      -7.189  12.559  24.070  0.00  0.00    +0.000 C 
ATOM     32  C   UNL     1      -5.684  12.521  24.372  0.00  0.00    +0.000 C 
ATOM     33  C   UNL     1      -7.416  12.108  22.621  0.00  0.00    +0.000 C 
ATOM     34  C   UNL     1      -6.670  13.041  21.645  0.00  0.00    +0.000 C 
ATOM     35  C   UNL     1      -7.186  14.482  21.837  0.00  0.00    +0.000 C 
ENDBRANCH  24  26
ENDBRANCH   3  21
TORSDOF 6
ENDMDL
MODEL 2
REMARK VINA RESULT:      -7.4      6.931     11.838
REMARK  Name = 
REMARK  7 active torsions:
REMARK  status: ('A' for Active; 'I' for Inactive)
REMARK    1  A    between atoms: C_1  and  O_2
REMARK    2  A    between atoms: O_2  and  C_3
REMARK    3  A    between atoms: C_5  and  N_6
REMARK    4  A    between atoms: C_7  and  C_9
REMARK    5  A    between atoms: C_15  and  C_16
REMARK    6  A    between atoms: N_18  and  C_19
REMARK    7  A    between atoms: N_22  and  C_23
REMARK                            x       y       z     vdW  Elec       q    Type
REMARK                         _______ _______ _______ _____ _____    ______ ____
ROOT
ATOM      1  C   UNL     1       3.468  15.255  19.576  0.00  0.00    +0.000 C 
ATOM      2  O   UNL     1       3.387  16.307  20.210  0.00  0.00    +0.000 OA
ATOM      3  N   UNL     1       4.713  14.744  19.244  0.00  0.00    +0.000 N 
ATOM      4  H   UNL     1       4.780  13.805  18.865  0.00  0.00    +0.000 HD
ENDROOT
BRANCH   1  11
ATOM      5  C   UNL     1       0.944  15.160  18.895  0.00  0.00    +0.000 A 
ATOM      6  C   UNL     1      -0.101  14.315  18.462  0.00  0.00    +0.000 A 
ATOM      7  C   UNL     1       0.022  12.931  18.362  0.00  0.00    +0.000 A 
ATOM      8  C   UNL     1       1.255  12.359  18.647  0.00  0.00    +0.000 A 
ATOM      9 CL   UNL     1       1.513  10.657  18.524  0.00  0.00    +0.000 Cl
ATOM     10  C   UNL     1       2.317  13.173  19.048  0.00  0.00    +0.000 A 
ATOM     11  C   UNL     1       2.191  14.580  19.173  0.00  0.00    +0.000 A 
BRANCH   7  12
ATOM     12  N   UNL     1      -1.071  12.130  17.940  0.00  0.00    +0.000 N 
ATOM     13  C   UNL     1      -2.181  11.825  18.704  0.00  0.00    +0.000 C 
ATOM     14  O   UNL     1      -2.297  11.994  19.916  0.00  0.00    +0.000 OA
ATOM     15  H   UNL     1      -0.997  11.715  17.015  0.00  0.00    +0.000 HD
BRANCH  13  16
ATOM     16  C   UNL     1      -3.329  11.295  17.926  0.00  0.00    +0.000 C 
ATOM     17  C   UNL     1      -3.171  10.863  16.487  0.00  0.00    +0.000 C 
ATOM     18  C   UNL     1      -3.300   9.825  17.562  0.00  0.00    +0.000 C 
ENDBRANCH  13  16
ENDBRANCH   7  12
BRANCH   5  20
ATOM     19  C   UNL     1      -0.433  17.024  18.366  0.00  0.00    +0.000 C 
ATOM     20  O   UNL     1       0.748  16.517  19.020  0.00  0.00    +0.000 OA
ENDBRANCH   5  20
ENDBRANCH   1  11
BRANCH   3  21
ATOM     21  C   UNL     1       5.897  15.468  19.727  0.00  0.00    +0.000 C 
ATOM     22  C   UNL     1       6.348  15.116  21.132  0.00  0.00    +0.000 C 
ATOM     23  C   UNL     1       7.842  15.413  21.089  0.00  0.00    +0.000 C 
ATOM     24  N   UNL     1       8.322  14.953  19.775  0.00  0.00    +0.000 NA
ATOM     25  C   UNL     1       7.172  15.239  18.871  0.00  0.00    +0.000 C 
BRANCH  24  26
ATOM     26  C   UNL     1       8.721  13.523  19.715  0.00  0.00    +0.000 C 
ATOM     27  C   UNL     1       9.022  13.043  18.247  0.00  0.00    +0.000 C 
ATOM     28  C   UNL     1      10.293  13.707  17.680  0.00  0.00    +0.000 C 
ATOM     29  C   UNL     1      11.508  13.354  18.548  0.00  0.00    +0.000 C 
ATOM     30  C   UNL     1      11.699  11.827  18.564  0.00  0.00    +0.000 C 
ATOM     31  C   UNL     1      10.438  11.145  19.122  0.00  0.00    +0.000 C 
ATOM     32  C   UNL     1       9.233  11.515  18.246  0.00  0.00    +0.000 C 
ATOM     33  C   UNL     1      10.186  11.643  20.551  0.00  0.00    +0.000 C 
ATOM     34  C   UNL     1       9.992  13.173  20.560  0.00  0.00    +0.000 C 
ATOM     35  C   UNL     1      11.258  13.841  19.983  0.00  0.00    +0.000 C 
ENDBRANCH  24  26
ENDBRANCH   3  21
TORSDOF 6
ENDMDL
MODEL 3
REMARK VINA RESULT:      -7.2      2.025      3.179
REMARK  Name = 
REMARK  7 active torsions:
REMARK  status: ('A' for Active; 'I' for Inactive)
REMARK    1  A    between atoms: C_1  and  O_2
REMARK    2  A    between atoms: O_2  and  C_3
REMARK    3  A    between atoms: C_5  and  N_6
REMARK    4  A    between atoms: C_7  and  C_9
REMARK    5  A    between atoms: C_15  and  C_16
REMARK    6  A    between atoms: N_18  and  C_19
REMARK    7  A    between atoms: N_22  and  C_23
REMARK                            x       y       z     vdW  Elec       q    Type
REMARK                         _______ _______ _______ _____ _____    ______ ____
ROOT
ATOM      1  C   UNL     1       0.512  10.094  21.702  0.00  0.00    +0.000 C 
ATOM      2  O   UNL     1       0.869   9.801  22.843  0.00  0.00    +0.000 OA
ATOM      3  N   UNL     1      -0.355  11.157  21.502  0.00  0.00    +0.000 N 
ATOM      4  H   UNL     1      -0.520  11.494  20.558  0.00  0.00    +0.000 HD
ENDROOT
BRANCH   1  11
ATOM      5  C   UNL     1       1.191   9.611  19.222  0.00  0.00    +0.000 A 
ATOM      6  C   UNL     1       1.767   8.662  18.350  0.00  0.00    +0.000 A 
ATOM      7  C   UNL     1       2.118   7.371  18.742  0.00  0.00    +0.000 A 
ATOM      8  C   UNL     1       1.945   7.020  20.074  0.00  0.00    +0.000 A 
ATOM      9 CL   UNL     1       2.375   5.455  20.661  0.00  0.00    +0.000 Cl
ATOM     10  C   UNL     1       1.405   7.948  20.968  0.00  0.00    +0.000 A 
ATOM     11  C   UNL     1       1.027   9.256  20.569  0.00  0.00    +0.000 A 
BRANCH   7  12
ATOM     12  N   UNL     1       2.674   6.453  17.814  0.00  0.00    +0.000 N 
ATOM     13  C   UNL     1       4.016   6.341  17.505  0.00  0.00    +0.000 C 
ATOM     14  O   UNL     1       4.897   7.149  17.795  0.00  0.00    +0.000 OA
ATOM     15  H   UNL     1       2.016   5.866  17.309  0.00  0.00    +0.000 HD
BRANCH  13  16
ATOM     16  C   UNL     1       4.379   5.084  16.805  0.00  0.00    +0.000 C 
ATOM     17  C   UNL     1       5.736   4.445  16.989  0.00  0.00    +0.000 C 
ATOM     18  C   UNL     1       4.536   3.839  17.653  0.00  0.00    +0.000 C 
ENDBRANCH  13  16
ENDBRANCH   7  12
BRANCH   5  20
ATOM     19  C   UNL     1       1.910  11.782  18.575  0.00  0.00    +0.000 C 
ATOM     20  O   UNL     1       0.821  10.855  18.765  0.00  0.00    +0.000 OA
ENDBRANCH   5  20
ENDBRANCH   1  11
BRANCH   3  21
ATOM     21  C   UNL     1      -0.763  11.933  22.681  0.00  0.00    +0.000 C 
ATOM     22  C   UNL     1      -0.601  13.436  22.560  0.00  0.00    +0.000 C 
ATOM     23  C   UNL     1      -1.673  13.966  23.504  0.00  0.00    +0.000 C 
ATOM     24  N   UNL     1      -2.852  13.103  23.325  0.00  0.00    +0.000 NA
ATOM     25  C   UNL     1      -2.259  11.761  23.065  0.00  0.00    +0.000 C 
BRANCH  24  26
ATOM     26  C   UNL     1      -3.774  13.514  22.234  0.00  0.00    +0.000 C 
ATOM     27  C   UNL     1      -5.138  12.730  22.272  0.00  0.00    +0.000 C 
ATOM     28  C   UNL     1      -5.982  13.115  23.504  0.00  0.00    +0.000 C 
ATOM     29  C   UNL     1      -6.302  14.616  23.479  0.00  0.00    +0.000 C 
ATOM     30  C   UNL     1      -7.091  14.949  22.200  0.00  0.00    +0.000 C 
ATOM     31  C   UNL     1      -6.268  14.566  20.959  0.00  0.00    +0.000 C 
ATOM     32  C   UNL     1      -5.951  13.065  21.005  0.00  0.00    +0.000 C 
ATOM     33  C   UNL     1      -4.950  15.353  20.965  0.00  0.00    +0.000 C 
ATOM     34  C   UNL     1      -4.142  15.035  22.240  0.00  0.00    +0.000 C 
ATOM     35  C   UNL     1      -4.987  15.409  23.475  0.00  0.00    +0.000 C 
ENDBRANCH  24  26
ENDBRANCH   3  21
TORSDOF 6
ENDMDL
MODEL 4
REMARK VINA RESULT:      -7.2      7.169     12.389
REMARK  Name = 
REMARK  7 active torsions:
REMARK  status: ('A' for Active; 'I' for Inactive)
REMARK    1  A    between atoms: C_1  and  O_2
REMARK    2  A    between atoms: O_2  and  C_3
REMARK    3  A    between atoms: C_5  and  N_6
REMARK    4  A    between atoms: C_7  and  C_9
REMARK    5  A    between atoms: C_15  and  C_16
REMARK    6  A    between atoms: N_18  and  C_19
REMARK    7  A    between atoms: N_22  and  C_23
REMARK                            x       y       z     vdW  Elec       q    Type
REMARK                         _______ _______ _______ _____ _____    ______ ____
ROOT
ATOM      1  C   UNL     1       3.589  15.703  18.587  0.00  0.00    +0.000 C 
ATOM      2  O   UNL     1       3.663  16.866  18.193  0.00  0.00    +0.000 OA
ATOM      3  N   UNL     1       4.746  14.957  18.757  0.00  0.00    +0.000 N 
ATOM      4  H   UNL     1       4.694  14.060  19.229  0.00  0.00    +0.000 HD
ENDROOT
BRANCH   1  11
ATOM      5  C   UNL     1       1.832  13.791  18.908  0.00  0.00    +0.000 A 
ATOM      6  C   UNL     1       0.491  13.505  19.243  0.00  0.00    +0.000 A 
ATOM      7  C   UNL     1      -0.476  14.486  19.452  0.00  0.00    +0.000 A 
ATOM      8  C   UNL     1      -0.086  15.817  19.383  0.00  0.00    +0.000 A 
ATOM      9 CL   UNL     1      -1.204  17.104  19.653  0.00  0.00    +0.000 Cl
ATOM     10  C   UNL     1       1.241  16.132  19.083  0.00  0.00    +0.000 A 
ATOM     11  C   UNL     1       2.225  15.137  18.849  0.00  0.00    +0.000 A 
BRANCH   7  12
ATOM     12  N   UNL     1      -1.815  14.137  19.766  0.00  0.00    +0.000 N 
ATOM     13  C   UNL     1      -2.346  14.068  21.040  0.00  0.00    +0.000 C 
ATOM     14  O   UNL     1      -1.711  14.068  22.092  0.00  0.00    +0.000 OA
ATOM     15  H   UNL     1      -2.409  13.873  18.985  0.00  0.00    +0.000 HD
BRANCH  13  16
ATOM     16  C   UNL     1      -3.830  14.048  21.081  0.00  0.00    +0.000 C 
ATOM     17  C   UNL     1      -4.631  13.179  20.139  0.00  0.00    +0.000 C 
ATOM     18  C   UNL     1      -4.492  12.779  21.578  0.00  0.00    +0.000 C 
ENDBRANCH  13  16
ENDBRANCH   7  12
BRANCH   5  20
ATOM     19  C   UNL     1       2.149  11.550  18.184  0.00  0.00    +0.000 C 
ATOM     20  O   UNL     1       2.731  12.777  18.667  0.00  0.00    +0.000 OA
ENDBRANCH   5  20
ENDBRANCH   1  11
BRANCH   3  21
ATOM     21  C   UNL     1       6.029  15.627  18.509  0.00  0.00    +0.000 C 
ATOM     22  C   UNL     1       6.823  15.994  19.748  0.00  0.00    +0.000 C 
ATOM     23  C   UNL     1       8.260  15.982  19.242  0.00  0.00    +0.000 C 
ATOM     24  N   UNL     1       8.371  14.833  18.326  0.00  0.00    +0.000 NA
ATOM     25  C   UNL     1       7.033  14.784  17.674  0.00  0.00    +0.000 C 
BRANCH  24  26
ATOM     26  C   UNL     1       8.711  13.541  18.976  0.00  0.00    +0.000 C 
ATOM     27  C   UNL     1       9.253  12.478  17.950  0.00  0.00    +0.000 C 
ATOM     28  C   UNL     1      10.634  12.876  17.393  0.00  0.00    +0.000 C 
ATOM     29  C   UNL     1      11.654  12.991  18.535  0.00  0.00    +0.000 C 
ATOM     30  C   UNL     1      11.770  11.636  19.255  0.00  0.00    +0.000 C 
ATOM     31  C   UNL     1      10.400  11.217  19.813  0.00  0.00    +0.000 C 
ATOM     32  C   UNL     1       9.393  11.114  18.660  0.00  0.00    +0.000 C 
ATOM     33  C   UNL     1       9.913  12.281  20.805  0.00  0.00    +0.000 C 
ATOM     34  C   UNL     1       9.789  13.651  20.105  0.00  0.00    +0.000 C 
ATOM     35  C   UNL     1      11.167  14.049  19.537  0.00  0.00    +0.000 C 
ENDBRANCH  24  26
ENDBRANCH   3  21
TORSDOF 6
ENDMDL
MODEL 5
REMARK VINA RESULT:      -7.1      7.124     12.260
REMARK  Name = 
REMARK  7 active torsions:
REMARK  status: ('A' for Active; 'I' for Inactive)
REMARK    1  A    between atoms: C_1  and  O_2
REMARK    2  A    between atoms: O_2  and  C_3
REMARK    3  A    between atoms: C_5  and  N_6
REMARK    4  A    between atoms: C_7  and  C_9
REMARK    5  A    between atoms: C_15  and  C_16
REMARK    6  A    between atoms: N_18  and  C_19
REMARK    7  A    between atoms: N_22  and  C_23
REMARK                            x       y       z     vdW  Elec       q    Type
REMARK                         _______ _______ _______ _____ _____    ______ ____
ROOT
ATOM      1  C   UNL     1       3.776  14.924  18.480  0.00  0.00    +0.000 C 
ATOM      2  O   UNL     1       3.691  15.312  17.315  0.00  0.00    +0.000 OA
ATOM      3  N   UNL     1       5.015  14.872  19.100  0.00  0.00    +0.000 N 
ATOM      4  H   UNL     1       5.064  14.705  20.101  0.00  0.00    +0.000 HD
ENDROOT
BRANCH   1  11
ATOM      5  C   UNL     1       1.524  15.305  19.754  0.00  0.00    +0.000 A 
ATOM      6  C   UNL     1       0.382  14.671  20.290  0.00  0.00    +0.000 A 
ATOM      7  C   UNL     1       0.219  13.288  20.330  0.00  0.00    +0.000 A 
ATOM      8  C   UNL     1       1.206  12.494  19.762  0.00  0.00    +0.000 A 
ATOM      9 CL   UNL     1       1.082  10.772  19.738  0.00  0.00    +0.000 Cl
ATOM     10  C   UNL     1       2.335  13.094  19.197  0.00  0.00    +0.000 A 
ATOM     11  C   UNL     1       2.515  14.501  19.172  0.00  0.00    +0.000 A 
BRANCH   7  12
ATOM     12  N   UNL     1      -0.943  12.706  20.900  0.00  0.00    +0.000 N 
ATOM     13  C   UNL     1      -1.243  12.674  22.248  0.00  0.00    +0.000 C 
ATOM     14  O   UNL     1      -0.470  12.928  23.171  0.00  0.00    +0.000 OA
ATOM     15  H   UNL     1      -1.575  12.236  20.258  0.00  0.00    +0.000 HD
BRANCH  13  16
ATOM     16  C   UNL     1      -2.660  12.351  22.550  0.00  0.00    +0.000 C 
ATOM     17  C   UNL     1      -3.301  12.770  23.853  0.00  0.00    +0.000 C 
ATOM     18  C   UNL     1      -3.641  13.505  22.590  0.00  0.00    +0.000 C 
ENDBRANCH  13  16
ENDBRANCH   7  12
BRANCH   5  20
ATOM     19  C   UNL     1       0.738  17.350  20.677  0.00  0.00    +0.000 C 
ATOM     20  O   UNL     1       1.649  16.676  19.786  0.00  0.00    +0.000 OA
ENDBRANCH   5  20
ENDBRANCH   1  11
BRANCH   3  21
ATOM     21  C   UNL     1       6.178  15.349  18.340  0.00  0.00    +0.000 C 
ATOM     22  C   UNL     1       7.176  16.177  19.127  0.00  0.00    +0.000 C 
ATOM     23  C   UNL     1       8.482  15.922  18.384  0.00  0.00    +0.000 C 
ATOM     24  N   UNL     1       8.483  14.496  18.016  0.00  0.00    +0.000 NA
ATOM     25  C   UNL     1       7.048  14.213  17.734  0.00  0.00    +0.000 C 
BRANCH  24  26
ATOM     26  C   UNL     1       9.028  13.580  19.051  0.00  0.00    +0.000 C 
ATOM     27  C   UNL     1       9.323  12.142  18.485  0.00  0.00    +0.000 C 
ATOM     28  C   UNL     1      10.495  12.153  17.483  0.00  0.00    +0.000 C 
ATOM     29  C   UNL     1      11.772  12.660  18.167  0.00  0.00    +0.000 C 
ATOM     30  C   UNL     1      12.123  11.735  19.347  0.00  0.00    +0.000 C 
ATOM     31  C   UNL     1      10.962  11.706  20.355  0.00  0.00    +0.000 C 
ATOM     32  C   UNL     1       9.694  11.204  19.653  0.00  0.00    +0.000 C 
ATOM     33  C   UNL     1      10.712  13.126  20.878  0.00  0.00    +0.000 C 
ATOM     34  C   UNL     1      10.359  14.073  19.712  0.00  0.00    +0.000 C 
ATOM     35  C   UNL     1      11.525  14.079  18.702  0.00  0.00    +0.000 C 
ENDBRANCH  24  26
ENDBRANCH   3  21
TORSDOF 6
ENDMDL
MODEL 6
REMARK VINA RESULT:      -7.1      3.226     10.334
REMARK  Name = 
REMARK  7 active torsions:
REMARK  status: ('A' for Active; 'I' for Inactive)
REMARK    1  A    between atoms: C_1  and  O_2
REMARK    2  A    between atoms: O_2  and  C_3
REMARK    3  A    between atoms: C_5  and  N_6
REMARK    4  A    between atoms: C_7  and  C_9
REMARK    5  A    between atoms: C_15  and  C_16
REMARK    6  A    between atoms: N_18  and  C_19
REMARK    7  A    between atoms: N_22  and  C_23
REMARK                            x       y       z     vdW  Elec       q    Type
REMARK                         _______ _______ _______ _____ _____    ______ ____
ROOT
ATOM      1  C   UNL     1       1.298   9.550  18.601  0.00  0.00    +0.000 C 
ATOM      2  O   UNL     1       0.629   9.404  17.578  0.00  0.00    +0.000 OA
ATOM      3  N   UNL     1       2.383   8.721  18.839  0.00  0.00    +0.000 N 
ATOM      4  H   UNL     1       3.022   8.943  19.596  0.00  0.00    +0.000 HD
ENDROOT
BRANCH   1  11
ATOM      5  C   UNL     1       1.001  12.015  19.425  0.00  0.00    +0.000 A 
ATOM      6  C   UNL     1       0.469  12.832  20.446  0.00  0.00    +0.000 A 
ATOM      7  C   UNL     1      -0.105  12.328  21.612  0.00  0.00    +0.000 A 
ATOM      8  C   UNL     1      -0.211  10.951  21.750  0.00  0.00    +0.000 A 
ATOM      9 CL   UNL     1      -0.931  10.233  23.145  0.00  0.00    +0.000 Cl
ATOM     10  C   UNL     1       0.280  10.117  20.742  0.00  0.00    +0.000 A 
ATOM     11  C   UNL     1       0.883  10.624  19.563  0.00  0.00    +0.000 A 
BRANCH   7  12
ATOM     12  N   UNL     1      -0.605  13.199  22.615  0.00  0.00    +0.000 N 
ATOM     13  C   UNL     1      -1.888  13.709  22.665  0.00  0.00    +0.000 C 
ATOM     14  O   UNL     1      -2.715  13.684  21.755  0.00  0.00    +0.000 OA
ATOM     15  H   UNL     1       0.059  13.503  23.322  0.00  0.00    +0.000 HD
BRANCH  13  16
ATOM     16  C   UNL     1      -2.267  14.280  23.982  0.00  0.00    +0.000 C 
ATOM     17  C   UNL     1      -3.461  15.195  24.127  0.00  0.00    +0.000 C 
ATOM     18  C   UNL     1      -3.551  13.777  24.611  0.00  0.00    +0.000 C 
ENDBRANCH  13  16
ENDBRANCH   7  12
BRANCH   5  20
ATOM     19  C   UNL     1       2.678  13.484  18.602  0.00  0.00    +0.000 C 
ATOM     20  O   UNL     1       1.599  12.571  18.317  0.00  0.00    +0.000 OA
ENDBRANCH   5  20
ENDBRANCH   1  11
BRANCH   3  21
ATOM     21  C   UNL     1       2.721   7.730  17.809  0.00  0.00    +0.000 C 
ATOM     22  C   UNL     1       4.180   7.317  17.756  0.00  0.00    +0.000 C 
ATOM     23  C   UNL     1       4.108   5.906  17.185  0.00  0.00    +0.000 C 
ATOM     24  N   UNL     1       2.942   5.260  17.811  0.00  0.00    +0.000 NA
ATOM     25  C   UNL     1       1.969   6.379  17.958  0.00  0.00    +0.000 C 
BRANCH  24  26
ATOM     26  C   UNL     1       3.213   4.596  19.112  0.00  0.00    +0.000 C 
ATOM     27  C   UNL     1       2.097   4.891  20.181  0.00  0.00    +0.000 C 
ATOM     28  C   UNL     1       0.758   4.225  19.806  0.00  0.00    +0.000 C 
ATOM     29  C   UNL     1       0.930   2.703  19.715  0.00  0.00    +0.000 C 
ATOM     30  C   UNL     1       1.403   2.159  21.075  0.00  0.00    +0.000 C 
ATOM     31  C   UNL     1       2.736   2.816  21.470  0.00  0.00    +0.000 C 
ATOM     32  C   UNL     1       2.547   4.337  21.549  0.00  0.00    +0.000 C 
ATOM     33  C   UNL     1       3.790   2.502  20.400  0.00  0.00    +0.000 C 
ATOM     34  C   UNL     1       3.337   3.038  19.026  0.00  0.00    +0.000 C 
ATOM     35  C   UNL     1       1.992   2.382  18.652  0.00  0.00    +0.000 C 
ENDBRANCH  24  26
ENDBRANCH   3  21
TORSDOF 6
ENDMDL
MODEL 7
REMARK VINA RESULT:      -7.1      7.025     12.129
REMARK  Name = 
REMARK  7 active torsions:
REMARK  status: ('A' for Active; 'I' for Inactive)
REMARK    1  A    between atoms: C_1  and  O_2
REMARK    2  A    between atoms: O_2  and  C_3
REMARK    3  A    between atoms: C_5  and  N_6
REMARK    4  A    between atoms: C_7  and  C_9
REMARK    5  A    between atoms: C_15  and  C_16
REMARK    6  A    between atoms: N_18  and  C_19
REMARK    7  A    between atoms: N_22  and  C_23
REMARK                            x       y       z     vdW  Elec       q    Type
REMARK                         _______ _______ _______ _____ _____    ______ ____
ROOT
ATOM      1  C   UNL     1       3.483  15.087  18.001  0.00  0.00    +0.000 C 
ATOM      2  O   UNL     1       3.494  16.064  17.251  0.00  0.00    +0.000 OA
ATOM      3  N   UNL     1       4.680  14.538  18.435  0.00  0.00    +0.000 N 
ATOM      4  H   UNL     1       4.668  13.840  19.172  0.00  0.00    +0.000 HD
ENDROOT
BRANCH   1  11
ATOM      5  C   UNL     1       1.766  13.177  18.498  0.00  0.00    +0.000 A 
ATOM      6  C   UNL     1       0.464  12.891  18.962  0.00  0.00    +0.000 A 
ATOM      7  C   UNL     1      -0.478  13.873  19.260  0.00  0.00    +0.000 A 
ATOM      8  C   UNL     1      -0.097  15.204  19.149  0.00  0.00    +0.000 A 
ATOM      9 CL   UNL     1      -1.184  16.491  19.523  0.00  0.00    +0.000 Cl
ATOM     10  C   UNL     1       1.195  15.518  18.721  0.00  0.00    +0.000 A 
ATOM     11  C   UNL     1       2.151  14.522  18.396  0.00  0.00    +0.000 A 
BRANCH   7  12
ATOM     12  N   UNL     1      -1.780  13.525  19.704  0.00  0.00    +0.000 N 
ATOM     13  C   UNL     1      -2.561  12.512  19.180  0.00  0.00    +0.000 C 
ATOM     14  O   UNL     1      -2.362  11.916  18.122  0.00  0.00    +0.000 OA
ATOM     15  H   UNL     1      -2.178  14.105  20.438  0.00  0.00    +0.000 HD
BRANCH  13  16
ATOM     16  C   UNL     1      -3.700  12.112  20.042  0.00  0.00    +0.000 C 
ATOM     17  C   UNL     1      -4.081  12.914  21.265  0.00  0.00    +0.000 C 
ATOM     18  C   UNL     1      -4.926  13.003  20.029  0.00  0.00    +0.000 C 
ENDBRANCH  13  16
ENDBRANCH   7  12
BRANCH   5  20
ATOM     19  C   UNL     1       2.052  10.846  18.133  0.00  0.00    +0.000 C 
ATOM     20  O   UNL     1       2.638  12.162  18.174  0.00  0.00    +0.000 OA
ENDBRANCH   5  20
ENDBRANCH   1  11
BRANCH   3  21
ATOM     21  C   UNL     1       5.923  15.199  18.017  0.00  0.00    +0.000 C 
ATOM     22  C   UNL     1       6.647  15.971  19.103  0.00  0.00    +0.000 C 
ATOM     23  C   UNL     1       8.098  15.918  18.642  0.00  0.00    +0.000 C 
ATOM     24  N   UNL     1       8.318  14.563  18.108  0.00  0.00    +0.000 NA
ATOM     25  C   UNL     1       7.009  14.225  17.481  0.00  0.00    +0.000 C 
BRANCH  24  26
ATOM     26  C   UNL     1       8.721  13.547  19.114  0.00  0.00    +0.000 C 
ATOM     27  C   UNL     1       9.273  12.231  18.451  0.00  0.00    +0.000 C 
ATOM     28  C   UNL     1      10.624  12.471  17.747  0.00  0.00    +0.000 C 
ATOM     29  C   UNL     1      11.669  12.962  18.758  0.00  0.00    +0.000 C 
ATOM     30  C   UNL     1      11.853  11.903  19.859  0.00  0.00    +0.000 C 
ATOM     31  C   UNL     1      10.514  11.645  20.571  0.00  0.00    +0.000 C 
ATOM     32  C   UNL     1       9.481  11.161  19.544  0.00  0.00    +0.000 C 
ATOM     33  C   UNL     1      10.016  12.953  21.199  0.00  0.00    +0.000 C 
ATOM     34  C   UNL     1       9.825  14.031  20.113  0.00  0.00    +0.000 C 
ATOM     35  C   UNL     1      11.172  14.267  19.399  0.00  0.00    +0.000 C 
ENDBRANCH  24  26
ENDBRANCH   3  21
TORSDOF 6
ENDMDL
MODEL 8
REMARK VINA RESULT:      -7.1      7.186     12.311
REMARK  Name = 
REMARK  7 active torsions:
REMARK  status: ('A' for Active; 'I' for Inactive)
REMARK    1  A    between atoms: C_1  and  O_2
REMARK    2  A    between atoms: O_2  and  C_3
REMARK    3  A    between atoms: C_5  and  N_6
REMARK    4  A    between atoms: C_7  and  C_9
REMARK    5  A    between atoms: C_15  and  C_16
REMARK    6  A    between atoms: N_18  and  C_19
REMARK    7  A    between atoms: N_22  and  C_23
REMARK                            x       y       z     vdW  Elec       q    Type
REMARK                         _______ _______ _______ _____ _____    ______ ____
ROOT
ATOM      1  C   UNL     1       3.709  15.112  18.351  0.00  0.00    +0.000 C 
ATOM      2  O   UNL     1       3.598  15.506  17.190  0.00  0.00    +0.000 OA
ATOM      3  N   UNL     1       4.968  14.872  18.880  0.00  0.00    +0.000 N 
ATOM      4  H   UNL     1       5.065  14.703  19.876  0.00  0.00    +0.000 HD
ENDROOT
BRANCH   1  11
ATOM      5  C   UNL     1       2.115  15.385  20.407  0.00  0.00    +0.000 A 
ATOM      6  C   UNL     1       0.831  15.092  20.916  0.00  0.00    +0.000 A 
ATOM      7  C   UNL     1      -0.090  14.281  20.256  0.00  0.00    +0.000 A 
ATOM      8  C   UNL     1       0.251  13.784  19.005  0.00  0.00    +0.000 A 
ATOM      9 CL   UNL     1      -0.834  12.794  18.097  0.00  0.00    +0.000 Cl
ATOM     10  C   UNL     1       1.503  14.082  18.461  0.00  0.00    +0.000 A 
ATOM     11  C   UNL     1       2.453  14.889  19.139  0.00  0.00    +0.000 A 
BRANCH   7  12
ATOM     12  N   UNL     1      -1.359  14.004  20.827  0.00  0.00    +0.000 N 
ATOM     13  C   UNL     1      -1.656  12.920  21.631  0.00  0.00    +0.000 C 
ATOM     14  O   UNL     1      -0.956  11.922  21.790  0.00  0.00    +0.000 OA
ATOM     15  H   UNL     1      -2.115  14.637  20.578  0.00  0.00    +0.000 HD
BRANCH  13  16
ATOM     16  C   UNL     1      -2.924  13.053  22.390  0.00  0.00    +0.000 C 
ATOM     17  C   UNL     1      -3.202  12.204  23.609  0.00  0.00    +0.000 C 
ATOM     18  C   UNL     1      -2.839  13.649  23.781  0.00  0.00    +0.000 C 
ENDBRANCH  13  16
ENDBRANCH   7  12
BRANCH   5  20
ATOM     19  C   UNL     1       2.831  17.578  20.979  0.00  0.00    +0.000 C 
ATOM     20  O   UNL     1       3.001  16.154  21.128  0.00  0.00    +0.000 OA
ENDBRANCH   5  20
ENDBRANCH   1  11
BRANCH   3  21
ATOM     21  C   UNL     1       6.130  15.164  18.030  0.00  0.00    +0.000 C 
ATOM     22  C   UNL     1       7.180  16.067  18.649  0.00  0.00    +0.000 C 
ATOM     23  C   UNL     1       8.456  15.635  17.938  0.00  0.00    +0.000 C 
ATOM     24  N   UNL     1       8.391  14.169  17.816  0.00  0.00    +0.000 NA
ATOM     25  C   UNL     1       6.939  13.905  17.611  0.00  0.00    +0.000 C 
BRANCH  24  26
ATOM     26  C   UNL     1       8.924  13.417  18.982  0.00  0.00    +0.000 C 
ATOM     27  C   UNL     1       9.262  11.921  18.628  0.00  0.00    +0.000 C 
ATOM     28  C   UNL     1      10.462  11.821  17.665  0.00  0.00    +0.000 C 
ATOM     29  C   UNL     1      11.709  12.447  18.306  0.00  0.00    +0.000 C 
ATOM     30  C   UNL     1      12.043  11.701  19.610  0.00  0.00    +0.000 C 
ATOM     31  C   UNL     1      10.855  11.785  20.583  0.00  0.00    +0.000 C 
ATOM     32  C   UNL     1       9.617  11.162  19.924  0.00  0.00    +0.000 C 
ATOM     33  C   UNL     1      10.562  13.258  20.897  0.00  0.00    +0.000 C 
ATOM     34  C   UNL     1      10.225  14.026  19.602  0.00  0.00    +0.000 C 
ATOM     35  C   UNL     1      11.420  13.919  18.632  0.00  0.00    +0.000 C 
ENDBRANCH  24  26
ENDBRANCH   3  21
TORSDOF 6
ENDMDL
MODEL 9
REMARK VINA RESULT:      -7.1      7.250     12.382
REMARK  Name = 
REMARK  7 active torsions:
REMARK  status: ('A' for Active; 'I' for Inactive)
REMARK    1  A    between atoms: C_1  and  O_2
REMARK    2  A    between atoms: O_2  and  C_3
REMARK    3  A    between atoms: C_5  and  N_6
REMARK    4  A    between atoms: C_7  and  C_9
REMARK    5  A    between atoms: C_15  and  C_16
REMARK    6  A    between atoms: N_18  and  C_19
REMARK    7  A    between atoms: N_22  and  C_23
REMARK                            x       y       z     vdW  Elec       q    Type
REMARK                         _______ _______ _______ _____ _____    ______ ____
ROOT
ATOM      1  C   UNL     1       3.684  15.366  18.655  0.00  0.00    +0.000 C 
ATOM      2  O   UNL     1       3.666  16.437  18.051  0.00  0.00    +0.000 OA
ATOM      3  N   UNL     1       4.868  14.651  18.757  0.00  0.00    +0.000 N 
ATOM      4  H   UNL     1       4.915  13.855  19.386  0.00  0.00    +0.000 HD
ENDROOT
BRANCH   1  11
ATOM      5  C   UNL     1       1.813  13.600  19.132  0.00  0.00    +0.000 A 
ATOM      6  C   UNL     1       0.618  13.352  19.841  0.00  0.00    +0.000 A 
ATOM      7  C   UNL     1      -0.046  14.321  20.591  0.00  0.00    +0.000 A 
ATOM      8  C   UNL     1       0.528  15.581  20.691  0.00  0.00    +0.000 A 
ATOM      9 CL   UNL     1      -0.205  16.839  21.619  0.00  0.00    +0.000 Cl
ATOM     10  C   UNL     1       1.726  15.848  20.025  0.00  0.00    +0.000 A 
ATOM     11  C   UNL     1       2.396  14.871  19.244  0.00  0.00    +0.000 A 
BRANCH   7  12
ATOM     12  N   UNL     1      -1.257  14.018  21.267  0.00  0.00    +0.000 N 
ATOM     13  C   UNL     1      -1.354  13.547  22.562  0.00  0.00    +0.000 C 
ATOM     14  O   UNL     1      -0.432  13.103  23.244  0.00  0.00    +0.000 OA
ATOM     15  H   UNL     1      -2.112  14.115  20.727  0.00  0.00    +0.000 HD
BRANCH  13  16
ATOM     16  C   UNL     1      -2.711  13.663  23.153  0.00  0.00    +0.000 C 
ATOM     17  C   UNL     1      -3.928  13.126  22.435  0.00  0.00    +0.000 C 
ATOM     18  C   UNL     1      -3.376  12.382  23.615  0.00  0.00    +0.000 C 
ENDBRANCH  13  16
ENDBRANCH   7  12
BRANCH   5  20
ATOM     19  C   UNL     1       1.797  11.311  18.495  0.00  0.00    +0.000 C 
ATOM     20  O   UNL     1       2.398  12.615  18.369  0.00  0.00    +0.000 OA
ENDBRANCH   5  20
ENDBRANCH   1  11
BRANCH   3  21
ATOM     21  C   UNL     1       6.077  15.251  18.178  0.00  0.00    +0.000 C 
ATOM     22  C   UNL     1       6.947  16.028  19.147  0.00  0.00    +0.000 C 
ATOM     23  C   UNL     1       8.333  15.905  18.525  0.00  0.00    +0.000 C 
ATOM     24  N   UNL     1       8.443  14.527  18.017  0.00  0.00    +0.000 NA
ATOM     25  C   UNL     1       7.059  14.220  17.556  0.00  0.00    +0.000 C 
BRANCH  24  26
ATOM     26  C   UNL     1       8.924  13.527  19.005  0.00  0.00    +0.000 C 
ATOM     27  C   UNL     1       9.417  12.198  18.324  0.00  0.00    +0.000 C 
ATOM     28  C   UNL     1      10.707  12.420  17.509  0.00  0.00    +0.000 C 
ATOM     29  C   UNL     1      11.832  12.926  18.423  0.00  0.00    +0.000 C 
ATOM     30  C   UNL     1      12.102  11.886  19.524  0.00  0.00    +0.000 C 
ATOM     31  C   UNL     1      10.825  11.645  20.346  0.00  0.00    +0.000 C 
ATOM     32  C   UNL     1       9.711  11.147  19.415  0.00  0.00    +0.000 C 
ATOM     33  C   UNL     1      10.382  12.966  20.989  0.00  0.00    +0.000 C 
ATOM     34  C   UNL     1      10.106  14.026  19.903  0.00  0.00    +0.000 C 
ATOM     35  C   UNL     1      11.391  14.244  19.078  0.00  0.00    +0.000 C 
ENDBRANCH  24  26
ENDBRANCH   3  21
TORSDOF 6
ENDMDL
