MODEL 1
REMARK VINA RESULT:      -8.8      0.000      0.000
REMARK  Name = 
REMARK  8 active torsions:
REMARK  status: ('A' for Active; 'I' for Inactive)
REMARK    1  A    between atoms: C_1  and  C_2
REMARK    2  A    between atoms: C_2  and  O_3
REMARK    3  A    between atoms: C_2  and  C_17
REMARK    4  A    between atoms: O_3  and  C_4
REMARK    5  A    between atoms: C_4  and  C_5
REMARK    6  A    between atoms: C_5  and  C_6
REMARK    7  A    between atoms: C_19  and  C_20
REMARK    8  A    between atoms: C_25  and  C_26
REMARK                            x       y       z     vdW  Elec       q    Type
REMARK                         _______ _______ _______ _____ _____    ______ ____
ROOT
ATOM      1  C   UNL     1       5.008   7.790  17.788  0.00  0.00    +0.000 C 
ATOM      2  C   UNL     1       3.787   6.979  17.365  0.00  0.00    +0.000 C 
ENDROOT
BRANCH   2   3
ATOM      3  C   UNL     1       2.928   6.609  18.557  0.00  0.00    +0.000 A 
ATOM      4  C   UNL     1       2.880   5.280  18.995  0.00  0.00    +0.000 A 
ATOM      5  C   UNL     1       2.194   4.933  20.165  0.00  0.00    +0.000 A 
ATOM      6  C   UNL     1       1.547   5.944  20.899  0.00  0.00    +0.000 A 
ATOM      7  C   UNL     1       1.571   7.281  20.472  0.00  0.00    +0.000 A 
ATOM      8  C   UNL     1       2.272   7.601  19.301  0.00  0.00    +0.000 A 
BRANCH   5   9
ATOM      9  C   UNL     1       2.164   3.503  20.647  0.00  0.00    +0.000 C 
ATOM     10  F   UNL     1       1.003   2.857  20.349  0.00  0.00    +0.000 F 
ATOM     11  F   UNL     1       3.158   2.749  20.104  0.00  0.00    +0.000 F 
ATOM     12  F   UNL     1       2.310   3.408  21.996  0.00  0.00    +0.000 F 
ENDBRANCH   5   9
BRANCH   7  13
ATOM     13  C   UNL     1       0.874   8.379  21.242  0.00  0.00    +0.000 C 
ATOM     14  F   UNL     1      -0.405   8.066  21.585  0.00  0.00    +0.000 F 
ATOM     15  F   UNL     1       1.511   8.696  22.401  0.00  0.00    +0.000 F 
ATOM     16  F   UNL     1       0.797   9.536  20.528  0.00  0.00    +0.000 F 
ENDBRANCH   7  13
ENDBRANCH   2   3
BRANCH   2  17
ATOM     17  O   UNL     1       4.226   5.781  16.713  0.00  0.00    +0.000 OA
BRANCH  17  18
ATOM     18  C   UNL     1       5.341   6.009  15.825  0.00  0.00    +0.000 C 
BRANCH  18  19
ATOM     19  C   UNL     1       6.318   4.800  15.843  0.00  0.00    +0.000 C 
ATOM     20  C   UNL     1       5.686   3.655  16.675  0.00  0.00    +0.000 C 
ATOM     21  N   UNL     1       6.163   3.917  18.010  0.00  0.00    +0.000 N 
ATOM     22  C   UNL     1       7.276   4.733  17.976  0.00  0.00    +0.000 C 
ATOM     23  O   UNL     1       7.936   5.077  18.937  0.00  0.00    +0.000 OA
ATOM     24  N   UNL     1       7.485   5.113  16.661  0.00  0.00    +0.000 N 
ATOM     25  H   UNL     1       5.900   3.436  18.862  0.00  0.00    +0.000 HD
ATOM     26  H   UNL     1       8.068   5.922  16.496  0.00  0.00    +0.000 HD
BRANCH  19  27
ATOM     27  C   UNL     1       6.636   4.439  14.396  0.00  0.00    +0.000 A 
ATOM     28  C   UNL     1       7.596   5.156  13.663  0.00  0.00    +0.000 A 
ATOM     29  C   UNL     1       7.737   4.972  12.287  0.00  0.00    +0.000 A 
ATOM     30  C   UNL     1       6.922   4.064  11.619  0.00  0.00    +0.000 A 
ATOM     31  C   UNL     1       5.985   3.319  12.328  0.00  0.00    +0.000 A 
ATOM     32  C   UNL     1       5.845   3.501  13.705  0.00  0.00    +0.000 A 
ENDBRANCH  19  27
ENDBRANCH  18  19
ENDBRANCH  17  18
ENDBRANCH   2  17
TORSDOF 7
ENDMDL
MODEL 2
REMARK VINA RESULT:      -8.8      0.116      3.223
REMARK  Name = 
REMARK  8 active torsions:
REMARK  status: ('A' for Active; 'I' for Inactive)
REMARK    1  A    between atoms: C_1  and  C_2
REMARK    2  A    between atoms: C_2  and  O_3
REMARK    3  A    between atoms: C_2  and  C_17
REMARK    4  A    between atoms: O_3  and  C_4
REMARK    5  A    between atoms: C_4  and  C_5
REMARK    6  A    between atoms: C_5  and  C_6
REMARK    7  A    between atoms: C_19  and  C_20
REMARK    8  A    between atoms: C_25  and  C_26
REMARK                            x       y       z     vdW  Elec       q    Type
REMARK                         _______ _______ _______ _____ _____    ______ ____
ROOT
ATOM      1  C   UNL     1       5.117   7.745  17.783  0.00  0.00    +0.000 C 
ATOM      2  C   UNL     1       3.858   6.950  17.450  0.00  0.00    +0.000 C 
ENDROOT
BRANCH   2   3
ATOM      3  C   UNL     1       3.089   6.581  18.703  0.00  0.00    +0.000 A 
ATOM      4  C   UNL     1       2.397   7.570  19.411  0.00  0.00    +0.000 A 
ATOM      5  C   UNL     1       1.580   7.236  20.500  0.00  0.00    +0.000 A 
ATOM      6  C   UNL     1       1.467   5.885  20.874  0.00  0.00    +0.000 A 
ATOM      7  C   UNL     1       2.162   4.879  20.187  0.00  0.00    +0.000 A 
ATOM      8  C   UNL     1       2.966   5.241  19.097  0.00  0.00    +0.000 A 
BRANCH   5   9
ATOM      9  C   UNL     1       0.816   8.302  21.246  0.00  0.00    +0.000 C 
ATOM     10  F   UNL     1       1.423   8.693  22.401  0.00  0.00    +0.000 F 
ATOM     11  F   UNL     1       0.650   9.435  20.512  0.00  0.00    +0.000 F 
ATOM     12  F   UNL     1      -0.432   7.893  21.599  0.00  0.00    +0.000 F 
ENDBRANCH   5   9
BRANCH   7  13
ATOM     13  C   UNL     1       2.059   3.423  20.581  0.00  0.00    +0.000 C 
ATOM     14  F   UNL     1       0.837   2.881  20.326  0.00  0.00    +0.000 F 
ATOM     15  F   UNL     1       2.964   2.638  19.938  0.00  0.00    +0.000 F 
ATOM     16  F   UNL     1       2.280   3.236  21.912  0.00  0.00    +0.000 F 
ENDBRANCH   7  13
ENDBRANCH   2   3
BRANCH   2  17
ATOM     17  O   UNL     1       4.231   5.752  16.758  0.00  0.00    +0.000 OA
BRANCH  17  18
ATOM     18  C   UNL     1       5.304   5.966  15.817  0.00  0.00    +0.000 C 
BRANCH  18  19
ATOM     19  C   UNL     1       6.301   4.774  15.833  0.00  0.00    +0.000 C 
ATOM     20  C   UNL     1       5.692   3.621  16.670  0.00  0.00    +0.000 C 
ATOM     21  N   UNL     1       6.171   3.895  18.002  0.00  0.00    +0.000 N 
ATOM     22  C   UNL     1       7.270   4.729  17.961  0.00  0.00    +0.000 C 
ATOM     23  O   UNL     1       7.929   5.087  18.919  0.00  0.00    +0.000 OA
ATOM     24  N   UNL     1       7.467   5.108  16.645  0.00  0.00    +0.000 N 
ATOM     25  H   UNL     1       5.920   3.412  18.857  0.00  0.00    +0.000 HD
ATOM     26  H   UNL     1       8.035   5.927  16.474  0.00  0.00    +0.000 HD
BRANCH  19  27
ATOM     27  C   UNL     1       6.618   4.415  14.385  0.00  0.00    +0.000 A 
ATOM     28  C   UNL     1       7.588   5.123  13.657  0.00  0.00    +0.000 A 
ATOM     29  C   UNL     1       7.729   4.943  12.280  0.00  0.00    +0.000 A 
ATOM     30  C   UNL     1       6.906   4.046  11.607  0.00  0.00    +0.000 A 
ATOM     31  C   UNL     1       5.959   3.309  12.312  0.00  0.00    +0.000 A 
ATOM     32  C   UNL     1       5.818   3.487  13.689  0.00  0.00    +0.000 A 
ENDBRANCH  19  27
ENDBRANCH  18  19
ENDBRANCH  17  18
ENDBRANCH   2  17
TORSDOF 7
ENDMDL
MODEL 3
REMARK VINA RESULT:      -8.7      0.360      1.375
REMARK  Name = 
REMARK  8 active torsions:
REMARK  status: ('A' for Active; 'I' for Inactive)
REMARK    1  A    between atoms: C_1  and  C_2
REMARK    2  A    between atoms: C_2  and  O_3
REMARK    3  A    between atoms: C_2  and  C_17
REMARK    4  A    between atoms: O_3  and  C_4
REMARK    5  A    between atoms: C_4  and  C_5
REMARK    6  A    between atoms: C_5  and  C_6
REMARK    7  A    between atoms: C_19  and  C_20
REMARK    8  A    between atoms: C_25  and  C_26
REMARK                            x       y       z     vdW  Elec       q    Type
REMARK                         _______ _______ _______ _____ _____    ______ ____
ROOT
ATOM      1  C   UNL     1       5.409   7.418  18.063  0.00  0.00    +0.000 C 
ATOM      2  C   UNL     1       4.040   7.053  17.496  0.00  0.00    +0.000 C 
ENDROOT
BRANCH   2   3
ATOM      3  C   UNL     1       3.069   6.677  18.596  0.00  0.00    +0.000 A 
ATOM      4  C   UNL     1       2.942   5.338  18.985  0.00  0.00    +0.000 A 
ATOM      5  C   UNL     1       2.145   4.980  20.079  0.00  0.00    +0.000 A 
ATOM      6  C   UNL     1       1.466   5.990  20.785  0.00  0.00    +0.000 A 
ATOM      7  C   UNL     1       1.568   7.337  20.405  0.00  0.00    +0.000 A 
ATOM      8  C   UNL     1       2.379   7.667  19.310  0.00  0.00    +0.000 A 
BRANCH   5   9
ATOM      9  C   UNL     1       2.030   3.538  20.510  0.00  0.00    +0.000 C 
ATOM     10  F   UNL     1       2.520   3.308  21.761  0.00  0.00    +0.000 F 
ATOM     11  F   UNL     1       0.743   3.099  20.529  0.00  0.00    +0.000 F 
ATOM     12  F   UNL     1       2.706   2.695  19.683  0.00  0.00    +0.000 F 
ENDBRANCH   5   9
BRANCH   7  13
ATOM     13  C   UNL     1       0.839   8.434  21.146  0.00  0.00    +0.000 C 
ATOM     14  F   UNL     1       0.698   9.574  20.415  0.00  0.00    +0.000 F 
ATOM     15  F   UNL     1      -0.415   8.070  21.526  0.00  0.00    +0.000 F 
ATOM     16  F   UNL     1       1.485   8.799  22.287  0.00  0.00    +0.000 F 
ENDBRANCH   7  13
ENDBRANCH   2   3
BRANCH   2  17
ATOM     17  O   UNL     1       4.187   5.945  16.600  0.00  0.00    +0.000 OA
BRANCH  17  18
ATOM     18  C   UNL     1       5.298   6.108  15.692  0.00  0.00    +0.000 C 
BRANCH  18  19
ATOM     19  C   UNL     1       6.112   4.790  15.571  0.00  0.00    +0.000 C 
ATOM     20  C   UNL     1       5.414   3.690  16.411  0.00  0.00    +0.000 C 
ATOM     21  N   UNL     1       6.034   3.823  17.706  0.00  0.00    +0.000 N 
ATOM     22  C   UNL     1       7.235   4.497  17.602  0.00  0.00    +0.000 C 
ATOM     23  O   UNL     1       8.014   4.708  18.512  0.00  0.00    +0.000 OA
ATOM     24  N   UNL     1       7.375   4.915  16.290  0.00  0.00    +0.000 N 
ATOM     25  H   UNL     1       5.787   3.335  18.559  0.00  0.00    +0.000 HD
ATOM     26  H   UNL     1       8.039   5.654  16.104  0.00  0.00    +0.000 HD
BRANCH  19  27
ATOM     27  C   UNL     1       6.255   4.467  14.088  0.00  0.00    +0.000 A 
ATOM     28  C   UNL     1       5.421   3.524  13.466  0.00  0.00    +0.000 A 
ATOM     29  C   UNL     1       5.684   3.071  12.173  0.00  0.00    +0.000 A 
ATOM     30  C   UNL     1       6.785   3.557  11.475  0.00  0.00    +0.000 A 
ATOM     31  C   UNL     1       7.608   4.517  12.057  0.00  0.00    +0.000 A 
ATOM     32  C   UNL     1       7.344   4.972  13.350  0.00  0.00    +0.000 A 
ENDBRANCH  19  27
ENDBRANCH  18  19
ENDBRANCH  17  18
ENDBRANCH   2  17
TORSDOF 7
ENDMDL
MODEL 4
REMARK VINA RESULT:      -8.7      0.329      3.352
REMARK  Name = 
REMARK  8 active torsions:
REMARK  status: ('A' for Active; 'I' for Inactive)
REMARK    1  A    between atoms: C_1  and  C_2
REMARK    2  A    between atoms: C_2  and  O_3
REMARK    3  A    between atoms: C_2  and  C_17
REMARK    4  A    between atoms: O_3  and  C_4
REMARK    5  A    between atoms: C_4  and  C_5
REMARK    6  A    between atoms: C_5  and  C_6
REMARK    7  A    between atoms: C_19  and  C_20
REMARK    8  A    between atoms: C_25  and  C_26
REMARK                            x       y       z     vdW  Elec       q    Type
REMARK                         _______ _______ _______ _____ _____    ______ ____
ROOT
ATOM      1  C   UNL     1       4.194   8.133  17.344  0.00  0.00    +0.000 C 
ATOM      2  C   UNL     1       3.320   6.883  17.333  0.00  0.00    +0.000 C 
ENDROOT
BRANCH   2   3
ATOM      3  C   UNL     1       2.722   6.614  18.699  0.00  0.00    +0.000 A 
ATOM      4  C   UNL     1       2.123   7.659  19.414  0.00  0.00    +0.000 A 
ATOM      5  C   UNL     1       1.455   7.413  20.621  0.00  0.00    +0.000 A 
ATOM      6  C   UNL     1       1.397   6.095  21.109  0.00  0.00    +0.000 A 
ATOM      7  C   UNL     1       2.001   5.035  20.416  0.00  0.00    +0.000 A 
ATOM      8  C   UNL     1       2.656   5.309  19.207  0.00  0.00    +0.000 A 
BRANCH   5   9
ATOM      9  C   UNL     1       0.790   8.538  21.376  0.00  0.00    +0.000 C 
ATOM     10  F   UNL     1      -0.479   8.243  21.776  0.00  0.00    +0.000 F 
ATOM     11  F   UNL     1       1.466   8.879  22.506  0.00  0.00    +0.000 F 
ATOM     12  F   UNL     1       0.695   9.674  20.634  0.00  0.00    +0.000 F 
ENDBRANCH   5   9
BRANCH   7  13
ATOM     13  C   UNL     1       1.956   3.615  20.930  0.00  0.00    +0.000 C 
ATOM     14  F   UNL     1       2.295   3.508  22.244  0.00  0.00    +0.000 F 
ATOM     15  F   UNL     1       0.726   3.049  20.809  0.00  0.00    +0.000 F 
ATOM     16  F   UNL     1       2.812   2.799  20.256  0.00  0.00    +0.000 F 
ENDBRANCH   7  13
ENDBRANCH   2   3
BRANCH   2  17
ATOM     17  O   UNL     1       4.118   5.759  16.942  0.00  0.00    +0.000 OA
BRANCH  17  18
ATOM     18  C   UNL     1       5.242   6.136  16.117  0.00  0.00    +0.000 C 
BRANCH  18  19
ATOM     19  C   UNL     1       6.226   4.945  15.943  0.00  0.00    +0.000 C 
ATOM     20  C   UNL     1       5.683   3.727  16.732  0.00  0.00    +0.000 C 
ATOM     21  N   UNL     1       6.281   3.885  18.034  0.00  0.00    +0.000 N 
ATOM     22  C   UNL     1       7.380   4.718  17.965  0.00  0.00    +0.000 C 
ATOM     23  O   UNL     1       8.124   4.993  18.887  0.00  0.00    +0.000 OA
ATOM     24  N   UNL     1       7.462   5.208  16.673  0.00  0.00    +0.000 N 
ATOM     25  H   UNL     1       6.103   3.332  18.864  0.00  0.00    +0.000 HD
ATOM     26  H   UNL     1       8.020   6.037  16.522  0.00  0.00    +0.000 HD
BRANCH  19  27
ATOM     27  C   UNL     1       6.409   4.710  14.448  0.00  0.00    +0.000 A 
ATOM     28  C   UNL     1       5.638   3.756  13.764  0.00  0.00    +0.000 A 
ATOM     29  C   UNL     1       5.946   3.386  12.454  0.00  0.00    +0.000 A 
ATOM     30  C   UNL     1       7.029   3.968  11.802  0.00  0.00    +0.000 A 
ATOM     31  C   UNL     1       7.788   4.939  12.448  0.00  0.00    +0.000 A 
ATOM     32  C   UNL     1       7.479   5.311  13.758  0.00  0.00    +0.000 A 
ENDBRANCH  19  27
ENDBRANCH  18  19
ENDBRANCH  17  18
ENDBRANCH   2  17
TORSDOF 7
ENDMDL
MODEL 5
REMARK VINA RESULT:      -8.5      2.977      4.301
REMARK  Name = 
REMARK  8 active torsions:
REMARK  status: ('A' for Active; 'I' for Inactive)
REMARK    1  A    between atoms: C_1  and  C_2
REMARK    2  A    between atoms: C_2  and  O_3
REMARK    3  A    between atoms: C_2  and  C_17
REMARK    4  A    between atoms: O_3  and  C_4
REMARK    5  A    between atoms: C_4  and  C_5
REMARK    6  A    between atoms: C_5  and  C_6
REMARK    7  A    between atoms: C_19  and  C_20
REMARK    8  A    between atoms: C_25  and  C_26
REMARK                            x       y       z     vdW  Elec       q    Type
REMARK                         _______ _______ _______ _____ _____    ______ ____
ROOT
ATOM      1  C   UNL     1       0.963   4.389  20.355  0.00  0.00    +0.000 C 
ATOM      2  C   UNL     1       2.111   5.276  20.825  0.00  0.00    +0.000 C 
ENDROOT
BRANCH   2   3
ATOM      3  C   UNL     1       1.781   6.745  20.656  0.00  0.00    +0.000 A 
ATOM      4  C   UNL     1       2.010   7.373  19.425  0.00  0.00    +0.000 A 
ATOM      5  C   UNL     1       1.600   8.694  19.205  0.00  0.00    +0.000 A 
ATOM      6  C   UNL     1       0.953   9.387  20.244  0.00  0.00    +0.000 A 
ATOM      7  C   UNL     1       0.724   8.782  21.489  0.00  0.00    +0.000 A 
ATOM      8  C   UNL     1       1.139   7.457  21.680  0.00  0.00    +0.000 A 
BRANCH   5   9
ATOM      9  C   UNL     1       1.826   9.359  17.869  0.00  0.00    +0.000 C 
ATOM     10  F   UNL     1       0.674   9.606  17.186  0.00  0.00    +0.000 F 
ATOM     11  F   UNL     1       2.455  10.559  17.984  0.00  0.00    +0.000 F 
ATOM     12  F   UNL     1       2.598   8.605  17.040  0.00  0.00    +0.000 F 
ENDBRANCH   5   9
BRANCH   7  13
ATOM     13  C   UNL     1       0.040   9.514  22.620  0.00  0.00    +0.000 C 
ATOM     14  F   UNL     1       0.745   9.485  23.785  0.00  0.00    +0.000 F 
ATOM     15  F   UNL     1      -0.178  10.828  22.343  0.00  0.00    +0.000 F 
ATOM     16  F   UNL     1      -1.181   8.985  22.909  0.00  0.00    +0.000 F 
ENDBRANCH   7  13
ENDBRANCH   2   3
BRANCH   2  17
ATOM     17  O   UNL     1       3.283   4.968  20.060  0.00  0.00    +0.000 OA
BRANCH  17  18
ATOM     18  C   UNL     1       2.979   4.256  18.841  0.00  0.00    +0.000 C 
BRANCH  18  19
ATOM     19  C   UNL     1       4.224   3.482  18.326  0.00  0.00    +0.000 C 
ATOM     20  C   UNL     1       3.792   2.052  17.916  0.00  0.00    +0.000 C 
ATOM     21  N   UNL     1       3.963   1.295  19.131  0.00  0.00    +0.000 N 
ATOM     22  C   UNL     1       4.812   1.954  19.998  0.00  0.00    +0.000 C 
ATOM     23  O   UNL     1       5.194   1.538  21.074  0.00  0.00    +0.000 OA
ATOM     24  N   UNL     1       5.121   3.182  19.438  0.00  0.00    +0.000 N 
ATOM     25  H   UNL     1       3.703   0.330  19.296  0.00  0.00    +0.000 HD
ATOM     26  H   UNL     1       5.488   3.896  20.052  0.00  0.00    +0.000 HD
BRANCH  19  27
ATOM     27  C   UNL     1       4.853   4.306  17.208  0.00  0.00    +0.000 A 
ATOM     28  C   UNL     1       4.629   5.689  17.112  0.00  0.00    +0.000 A 
ATOM     29  C   UNL     1       5.022   6.405  15.980  0.00  0.00    +0.000 A 
ATOM     30  C   UNL     1       5.651   5.752  14.926  0.00  0.00    +0.000 A 
ATOM     31  C   UNL     1       5.913   4.388  15.012  0.00  0.00    +0.000 A 
ATOM     32  C   UNL     1       5.522   3.671  16.144  0.00  0.00    +0.000 A 
ENDBRANCH  19  27
ENDBRANCH  18  19
ENDBRANCH  17  18
ENDBRANCH   2  17
TORSDOF 7
ENDMDL
MODEL 6
REMARK VINA RESULT:      -8.3      2.987      4.307
REMARK  Name = 
REMARK  8 active torsions:
REMARK  status: ('A' for Active; 'I' for Inactive)
REMARK    1  A    between atoms: C_1  and  C_2
REMARK    2  A    between atoms: C_2  and  O_3
REMARK    3  A    between atoms: C_2  and  C_17
REMARK    4  A    between atoms: O_3  and  C_4
REMARK    5  A    between atoms: C_4  and  C_5
REMARK    6  A    between atoms: C_5  and  C_6
REMARK    7  A    between atoms: C_19  and  C_20
REMARK    8  A    between atoms: C_25  and  C_26
REMARK                            x       y       z     vdW  Elec       q    Type
REMARK                         _______ _______ _______ _____ _____    ______ ____
ROOT
ATOM      1  C   UNL     1       1.147   4.664  20.617  0.00  0.00    +0.000 C 
ATOM      2  C   UNL     1       2.299   5.614  20.304  0.00  0.00    +0.000 C 
ENDROOT
BRANCH   2   3
ATOM      3  C   UNL     1       1.853   7.061  20.356  0.00  0.00    +0.000 A 
ATOM      4  C   UNL     1       1.950   7.861  19.211  0.00  0.00    +0.000 A 
ATOM      5  C   UNL     1       1.432   9.163  19.198  0.00  0.00    +0.000 A 
ATOM      6  C   UNL     1       0.811   9.659  20.358  0.00  0.00    +0.000 A 
ATOM      7  C   UNL     1       0.713   8.879  21.521  0.00  0.00    +0.000 A 
ATOM      8  C   UNL     1       1.234   7.578  21.504  0.00  0.00    +0.000 A 
BRANCH   5   9
ATOM      9  C   UNL     1       1.517  10.013  17.954  0.00  0.00    +0.000 C 
ATOM     10  F   UNL     1       2.066  11.240  18.176  0.00  0.00    +0.000 F 
ATOM     11  F   UNL     1       2.273   9.439  16.980  0.00  0.00    +0.000 F 
ATOM     12  F   UNL     1       0.296  10.245  17.400  0.00  0.00    +0.000 F 
ENDBRANCH   5   9
BRANCH   7  13
ATOM     13  C   UNL     1       0.058   9.399  22.780  0.00  0.00    +0.000 C 
ATOM     14  F   UNL     1      -0.242  10.725  22.722  0.00  0.00    +0.000 F 
ATOM     15  F   UNL     1      -1.106   8.759  23.071  0.00  0.00    +0.000 F 
ATOM     16  F   UNL     1       0.854   9.244  23.873  0.00  0.00    +0.000 F 
ENDBRANCH   7  13
ENDBRANCH   2   3
BRANCH   2  17
ATOM     17  O   UNL     1       2.800   5.324  18.993  0.00  0.00    +0.000 OA
BRANCH  17  18
ATOM     18  C   UNL     1       4.239   5.210  18.961  0.00  0.00    +0.000 C 
BRANCH  18  19
ATOM     19  C   UNL     1       4.672   3.837  18.377  0.00  0.00    +0.000 C 
ATOM     20  C   UNL     1       3.416   2.947  18.201  0.00  0.00    +0.000 C 
ATOM     21  N   UNL     1       3.323   2.255  19.462  0.00  0.00    +0.000 N 
ATOM     22  C   UNL     1       4.536   2.284  20.121  0.00  0.00    +0.000 C 
ATOM     23  O   UNL     1       4.786   1.735  21.177  0.00  0.00    +0.000 OA
ATOM     24  N   UNL     1       5.402   3.073  19.384  0.00  0.00    +0.000 N 
ATOM     25  H   UNL     1       2.580   1.641  19.774  0.00  0.00    +0.000 HD
ATOM     26  H   UNL     1       6.222   3.432  19.854  0.00  0.00    +0.000 HD
BRANCH  19  27
ATOM     27  C   UNL     1       5.452   4.104  17.094  0.00  0.00    +0.000 A 
ATOM     28  C   UNL     1       6.783   4.550  17.134  0.00  0.00    +0.000 A 
ATOM     29  C   UNL     1       7.427   4.998  15.980  0.00  0.00    +0.000 A 
ATOM     30  C   UNL     1       6.753   5.004  14.763  0.00  0.00    +0.000 A 
ATOM     31  C   UNL     1       5.444   4.537  14.693  0.00  0.00    +0.000 A 
ATOM     32  C   UNL     1       4.800   4.087  15.846  0.00  0.00    +0.000 A 
ENDBRANCH  19  27
ENDBRANCH  18  19
ENDBRANCH  17  18
ENDBRANCH   2  17
TORSDOF 7
ENDMDL
MODEL 7
REMARK VINA RESULT:      -8.3      0.946      1.678
REMARK  Name = 
REMARK  8 active torsions:
REMARK  status: ('A' for Active; 'I' for Inactive)
REMARK    1  A    between atoms: C_1  and  C_2
REMARK    2  A    between atoms: C_2  and  O_3
REMARK    3  A    between atoms: C_2  and  C_17
REMARK    4  A    between atoms: O_3  and  C_4
REMARK    5  A    between atoms: C_4  and  C_5
REMARK    6  A    between atoms: C_5  and  C_6
REMARK    7  A    between atoms: C_19  and  C_20
REMARK    8  A    between atoms: C_25  and  C_26
REMARK                            x       y       z     vdW  Elec       q    Type
REMARK                         _______ _______ _______ _____ _____    ______ ____
ROOT
ATOM      1  C   UNL     1       3.974   7.717  17.259  0.00  0.00    +0.000 C 
ATOM      2  C   UNL     1       3.574   6.253  17.416  0.00  0.00    +0.000 C 
ENDROOT
BRANCH   2   3
ATOM      3  C   UNL     1       2.738   6.039  18.662  0.00  0.00    +0.000 A 
ATOM      4  C   UNL     1       2.616   4.755  19.206  0.00  0.00    +0.000 A 
ATOM      5  C   UNL     1       1.952   4.550  20.422  0.00  0.00    +0.000 A 
ATOM      6  C   UNL     1       1.403   5.658  21.092  0.00  0.00    +0.000 A 
ATOM      7  C   UNL     1       1.502   6.953  20.559  0.00  0.00    +0.000 A 
ATOM      8  C   UNL     1       2.178   7.129  19.344  0.00  0.00    +0.000 A 
BRANCH   5   9
ATOM      9  C   UNL     1       1.843   3.168  21.018  0.00  0.00    +0.000 C 
ATOM     10  F   UNL     1       3.031   2.682  21.475  0.00  0.00    +0.000 F 
ATOM     11  F   UNL     1       0.991   3.120  22.077  0.00  0.00    +0.000 F 
ATOM     12  F   UNL     1       1.386   2.252  20.122  0.00  0.00    +0.000 F 
ENDBRANCH   5   9
BRANCH   7  13
ATOM     13  C   UNL     1       0.911   8.154  21.260  0.00  0.00    +0.000 C 
ATOM     14  F   UNL     1       1.579   8.497  22.396  0.00  0.00    +0.000 F 
ATOM     15  F   UNL     1       0.897   9.266  20.478  0.00  0.00    +0.000 F 
ATOM     16  F   UNL     1      -0.381   7.944  21.635  0.00  0.00    +0.000 F 
ENDBRANCH   7  13
ENDBRANCH   2   3
BRANCH   2  17
ATOM     17  O   UNL     1       4.759   5.452  17.504  0.00  0.00    +0.000 OA
BRANCH  17  18
ATOM     18  C   UNL     1       5.047   4.752  16.275  0.00  0.00    +0.000 C 
BRANCH  18  19
ATOM     19  C   UNL     1       6.495   5.050  15.794  0.00  0.00    +0.000 C 
ATOM     20  C   UNL     1       7.491   4.253  16.674  0.00  0.00    +0.000 C 
ATOM     21  N   UNL     1       7.780   5.166  17.752  0.00  0.00    +0.000 N 
ATOM     22  C   UNL     1       7.463   6.460  17.390  0.00  0.00    +0.000 C 
ATOM     23  O   UNL     1       7.651   7.455  18.063  0.00  0.00    +0.000 OA
ATOM     24  N   UNL     1       6.865   6.418  16.142  0.00  0.00    +0.000 N 
ATOM     25  H   UNL     1       8.328   4.982  18.583  0.00  0.00    +0.000 HD
ATOM     26  H   UNL     1       6.320   7.221  15.857  0.00  0.00    +0.000 HD
BRANCH  19  27
ATOM     27  C   UNL     1       6.563   4.733  14.304  0.00  0.00    +0.000 A 
ATOM     28  C   UNL     1       5.723   3.766  13.728  0.00  0.00    +0.000 A 
ATOM     29  C   UNL     1       5.926   3.322  12.421  0.00  0.00    +0.000 A 
ATOM     30  C   UNL     1       6.971   3.842  11.663  0.00  0.00    +0.000 A 
ATOM     31  C   UNL     1       7.797   4.824  12.200  0.00  0.00    +0.000 A 
ATOM     32  C   UNL     1       7.593   5.270  13.508  0.00  0.00    +0.000 A 
ENDBRANCH  19  27
ENDBRANCH  18  19
ENDBRANCH  17  18
ENDBRANCH   2  17
TORSDOF 7
ENDMDL
MODEL 8
REMARK VINA RESULT:      -8.2      2.963      4.487
REMARK  Name = 
REMARK  8 active torsions:
REMARK  status: ('A' for Active; 'I' for Inactive)
REMARK    1  A    between atoms: C_1  and  C_2
REMARK    2  A    between atoms: C_2  and  O_3
REMARK    3  A    between atoms: C_2  and  C_17
REMARK    4  A    between atoms: O_3  and  C_4
REMARK    5  A    between atoms: C_4  and  C_5
REMARK    6  A    between atoms: C_5  and  C_6
REMARK    7  A    between atoms: C_19  and  C_20
REMARK    8  A    between atoms: C_25  and  C_26
REMARK                            x       y       z     vdW  Elec       q    Type
REMARK                         _______ _______ _______ _____ _____    ______ ____
ROOT
ATOM      1  C   UNL     1       1.353   4.403  20.301  0.00  0.00    +0.000 C 
ATOM      2  C   UNL     1       2.383   5.485  20.610  0.00  0.00    +0.000 C 
ENDROOT
BRANCH   2   3
ATOM      3  C   UNL     1       1.788   6.872  20.471  0.00  0.00    +0.000 A 
ATOM      4  C   UNL     1       1.166   7.476  21.571  0.00  0.00    +0.000 A 
ATOM      5  C   UNL     1       0.718   8.801  21.504  0.00  0.00    +0.000 A 
ATOM      6  C   UNL     1       0.901   9.521  20.310  0.00  0.00    +0.000 A 
ATOM      7  C   UNL     1       1.510   8.932  19.192  0.00  0.00    +0.000 A 
ATOM      8  C   UNL     1       1.955   7.606  19.288  0.00  0.00    +0.000 A 
BRANCH   5   9
ATOM      9  C   UNL     1       0.070   9.456  22.699  0.00  0.00    +0.000 C 
ATOM     10  F   UNL     1      -0.206  10.777  22.508  0.00  0.00    +0.000 F 
ATOM     11  F   UNL     1      -1.114   8.876  23.035  0.00  0.00    +0.000 F 
ATOM     12  F   UNL     1       0.851   9.395  23.811  0.00  0.00    +0.000 F 
ENDBRANCH   5   9
BRANCH   7  13
ATOM     13  C   UNL     1       1.706   9.687  17.897  0.00  0.00    +0.000 C 
ATOM     14  F   UNL     1       2.409  10.843  18.049  0.00  0.00    +0.000 F 
ATOM     15  F   UNL     1       2.369   8.961  16.958  0.00  0.00    +0.000 F 
ATOM     16  F   UNL     1       0.522  10.043  17.327  0.00  0.00    +0.000 F 
ENDBRANCH   7  13
ENDBRANCH   2   3
BRANCH   2  17
ATOM     17  O   UNL     1       3.484   5.354  19.703  0.00  0.00    +0.000 OA
BRANCH  17  18
ATOM     18  C   UNL     1       3.171   4.521  18.567  0.00  0.00    +0.000 C 
BRANCH  18  19
ATOM     19  C   UNL     1       4.370   3.599  18.208  0.00  0.00    +0.000 C 
ATOM     20  C   UNL     1       3.831   2.196  17.834  0.00  0.00    +0.000 C 
ATOM     21  N   UNL     1       3.819   1.501  19.097  0.00  0.00    +0.000 N 
ATOM     22  C   UNL     1       4.653   2.126  20.003  0.00  0.00    +0.000 C 
ATOM     23  O   UNL     1       4.898   1.740  21.129  0.00  0.00    +0.000 OA
ATOM     24  N   UNL     1       5.133   3.282  19.411  0.00  0.00    +0.000 N 
ATOM     25  H   UNL     1       3.449   0.577  19.288  0.00  0.00    +0.000 HD
ATOM     26  H   UNL     1       5.517   3.993  20.018  0.00  0.00    +0.000 HD
BRANCH  19  27
ATOM     27  C   UNL     1       5.173   4.289  17.111  0.00  0.00    +0.000 A 
ATOM     28  C   UNL     1       5.034   3.915  15.765  0.00  0.00    +0.000 A 
ATOM     29  C   UNL     1       5.914   4.389  14.791  0.00  0.00    +0.000 A 
ATOM     30  C   UNL     1       6.947   5.250  15.145  0.00  0.00    +0.000 A 
ATOM     31  C   UNL     1       7.086   5.661  16.467  0.00  0.00    +0.000 A 
ATOM     32  C   UNL     1       6.205   5.189  17.442  0.00  0.00    +0.000 A 
ENDBRANCH  19  27
ENDBRANCH  18  19
ENDBRANCH  17  18
ENDBRANCH   2  17
TORSDOF 7
ENDMDL
MODEL 9
REMARK VINA RESULT:      -8.1      3.225      5.434
REMARK  Name = 
REMARK  8 active torsions:
REMARK  status: ('A' for Active; 'I' for Inactive)
REMARK    1  A    between atoms: C_1  and  C_2
REMARK    2  A    between atoms: C_2  and  O_3
REMARK    3  A    between atoms: C_2  and  C_17
REMARK    4  A    between atoms: O_3  and  C_4
REMARK    5  A    between atoms: C_4  and  C_5
REMARK    6  A    between atoms: C_5  and  C_6
REMARK    7  A    between atoms: C_19  and  C_20
REMARK    8  A    between atoms: C_25  and  C_26
REMARK                            x       y       z     vdW  Elec       q    Type
REMARK                         _______ _______ _______ _____ _____    ______ ____
ROOT
ATOM      1  C   UNL     1       3.504   7.904  17.648  0.00  0.00    +0.000 C 
ATOM      2  C   UNL     1       2.089   7.713  18.185  0.00  0.00    +0.000 C 
ENDROOT
BRANCH   2   3
ATOM      3  C   UNL     1       1.650   8.898  19.021  0.00  0.00    +0.000 A 
ATOM      4  C   UNL     1       1.731  10.192  18.492  0.00  0.00    +0.000 A 
ATOM      5  C   UNL     1       1.218  11.289  19.195  0.00  0.00    +0.000 A 
ATOM      6  C   UNL     1       0.620  11.073  20.450  0.00  0.00    +0.000 A 
ATOM      7  C   UNL     1       0.540   9.787  21.005  0.00  0.00    +0.000 A 
ATOM      8  C   UNL     1       1.055   8.706  20.277  0.00  0.00    +0.000 A 
BRANCH   5   9
ATOM      9  C   UNL     1       1.284  12.679  18.610  0.00  0.00    +0.000 C 
ATOM     10  F   UNL     1       2.242  12.815  17.651  0.00  0.00    +0.000 F 
ATOM     11  F   UNL     1       0.116  13.055  18.024  0.00  0.00    +0.000 F 
ATOM     12  F   UNL     1       1.558  13.624  19.549  0.00  0.00    +0.000 F 
ENDBRANCH   5   9
BRANCH   7  13
ATOM     13  C   UNL     1      -0.090   9.538  22.356  0.00  0.00    +0.000 C 
ATOM     14  F   UNL     1       0.823   9.361  23.351  0.00  0.00    +0.000 F 
ATOM     15  F   UNL     1      -0.896  10.556  22.758  0.00  0.00    +0.000 F 
ATOM     16  F   UNL     1      -0.867   8.420  22.361  0.00  0.00    +0.000 F 
ENDBRANCH   7  13
ENDBRANCH   2   3
BRANCH   2  17
ATOM     17  O   UNL     1       2.053   6.530  18.992  0.00  0.00    +0.000 OA
BRANCH  17  18
ATOM     18  C   UNL     1       3.366   5.980  19.232  0.00  0.00    +0.000 C 
BRANCH  18  19
ATOM     19  C   UNL     1       3.442   4.502  18.757  0.00  0.00    +0.000 C 
ATOM     20  C   UNL     1       2.123   4.140  18.028  0.00  0.00    +0.000 C 
ATOM     21  N   UNL     1       1.287   3.639  19.089  0.00  0.00    +0.000 N 
ATOM     22  C   UNL     1       2.053   3.262  20.174  0.00  0.00    +0.000 C 
ATOM     23  O   UNL     1       1.639   2.747  21.195  0.00  0.00    +0.000 OA
ATOM     24  N   UNL     1       3.367   3.604  19.906  0.00  0.00    +0.000 N 
ATOM     25  H   UNL     1       0.310   3.378  19.031  0.00  0.00    +0.000 HD
ATOM     26  H   UNL     1       4.004   3.664  20.688  0.00  0.00    +0.000 HD
BRANCH  19  27
ATOM     27  C   UNL     1       4.703   4.350  17.913  0.00  0.00    +0.000 A 
ATOM     28  C   UNL     1       5.969   4.651  18.440  0.00  0.00    +0.000 A 
ATOM     29  C   UNL     1       7.094   4.720  17.617  0.00  0.00    +0.000 A 
ATOM     30  C   UNL     1       6.973   4.484  16.251  0.00  0.00    +0.000 A 
ATOM     31  C   UNL     1       5.734   4.153  15.711  0.00  0.00    +0.000 A 
ATOM     32  C   UNL     1       4.609   4.082  16.534  0.00  0.00    +0.000 A 
ENDBRANCH  19  27
ENDBRANCH  18  19
ENDBRANCH  17  18
ENDBRANCH   2  17
TORSDOF 7
ENDMDL
