MODEL 1
REMARK VINA RESULT:      -8.4      0.000      0.000
REMARK  Name = 
REMARK  8 active torsions:
REMARK  status: ('A' for Active; 'I' for Inactive)
REMARK    1  A    between atoms: C_1  and  O_2
REMARK    2  A    between atoms: O_2  and  C_3
REMARK    3  A    between atoms: C_6  and  C_7
REMARK    4  A    between atoms: C_7  and  C_8
REMARK    5  A    between atoms: N_10  and  C_11
REMARK    6  A    between atoms: C_14  and  N_15
REMARK    7  A    between atoms: C_18  and  C_19
REMARK    8  A    between atoms: C_21  and  N_22
REMARK                            x       y       z     vdW  Elec       q    Type
REMARK                         _______ _______ _______ _____ _____    ______ ____
ROOT
ATOM      1  C   UNL     1       2.594   6.558  19.178  0.00  0.00    +0.000 A 
ATOM      2  C   UNL     1       2.011   6.428  20.440  0.00  0.00    +0.000 A 
ATOM      3  C   UNL     1       1.336   7.511  21.023  0.00  0.00    +0.000 A 
ATOM      4  C   UNL     1       1.220   8.735  20.350  0.00  0.00    +0.000 A 
ATOM      5  C   UNL     1       1.768   8.814  19.064  0.00  0.00    +0.000 A 
ATOM      6  C   UNL     1       2.493   7.764  18.500  0.00  0.00    +0.000 A 
ENDROOT
BRANCH   4   7
ATOM      7  N   UNL     1       0.546   9.808  20.961  0.00  0.00    +0.000 N 
ATOM      8  C   UNL     1      -0.408  10.674  20.403  0.00  0.00    +0.000 A 
ATOM      9  N   UNL     1      -0.514  11.882  20.966  0.00  0.00    +0.000 NA
ATOM     10  C   UNL     1      -1.329  12.761  20.359  0.00  0.00    +0.000 A 
ATOM     11  C   UNL     1      -1.451  14.131  20.955  0.00  0.00    +0.000 C 
ATOM     12  C   UNL     1      -2.034  12.456  19.210  0.00  0.00    +0.000 A 
ATOM     13  C   UNL     1      -1.916  11.178  18.708  0.00  0.00    +0.000 A 
ATOM     14  N   UNL     1      -1.109  10.308  19.323  0.00  0.00    +0.000 NA
ATOM     15  H   UNL     1       1.062  10.322  21.661  0.00  0.00    +0.000 HD
BRANCH  13  16
ATOM     16  N   UNL     1      -2.584  10.746  17.599  0.00  0.00    +0.000 N 
ATOM     17  C   UNL     1      -2.138   9.763  16.636  0.00  0.00    +0.000 C 
ATOM     18  C   UNL     1      -2.748  10.264  15.337  0.00  0.00    +0.000 C 
ATOM     19  C   UNL     1      -4.087  10.841  15.774  0.00  0.00    +0.000 C 
ATOM     20  C   UNL     1      -3.817  11.405  17.172  0.00  0.00    +0.000 C 
ENDBRANCH  13  16
ENDBRANCH   4   7
BRANCH   1  23
ATOM     21  C   UNL     1       2.624   4.507  17.849  0.00  0.00    +0.000 C 
ATOM     22  O   UNL     1       1.407   4.434  17.695  0.00  0.00    +0.000 OA
ATOM     23  N   UNL     1       3.282   5.507  18.544  0.00  0.00    +0.000 N 
ATOM     24  H   UNL     1       4.226   5.707  18.234  0.00  0.00    +0.000 HD
BRANCH  21  25
ATOM     25  C   UNL     1       3.560   3.488  17.224  0.00  0.00    +0.000 C 
BRANCH  25  29
ATOM     26  C   UNL     1       6.924   4.979  14.925  0.00  0.00    +0.000 A 
ATOM     27  C   UNL     1       7.037   4.727  16.292  0.00  0.00    +0.000 A 
ATOM     28  C   UNL     1       5.942   4.250  17.020  0.00  0.00    +0.000 A 
ATOM     29  C   UNL     1       4.702   4.043  16.399  0.00  0.00    +0.000 A 
ATOM     30  C   UNL     1       4.602   4.279  15.022  0.00  0.00    +0.000 A 
ATOM     31  C   UNL     1       5.703   4.752  14.291  0.00  0.00    +0.000 A 
BRANCH  26  33
ATOM     32  C   UNL     1       8.116   5.387  12.916  0.00  0.00    +0.000 C 
ATOM     33  O   UNL     1       8.061   5.459  14.334  0.00  0.00    +0.000 OA
ENDBRANCH  26  33
ENDBRANCH  25  29
ENDBRANCH  21  25
ENDBRANCH   1  23
TORSDOF 6
ENDMDL
MODEL 2
REMARK VINA RESULT:      -8.3      1.035      1.334
REMARK  Name = 
REMARK  8 active torsions:
REMARK  status: ('A' for Active; 'I' for Inactive)
REMARK    1  A    between atoms: C_1  and  O_2
REMARK    2  A    between atoms: O_2  and  C_3
REMARK    3  A    between atoms: C_6  and  C_7
REMARK    4  A    between atoms: C_7  and  C_8
REMARK    5  A    between atoms: N_10  and  C_11
REMARK    6  A    between atoms: C_14  and  N_15
REMARK    7  A    between atoms: C_18  and  C_19
REMARK    8  A    between atoms: C_21  and  N_22
REMARK                            x       y       z     vdW  Elec       q    Type
REMARK                         _______ _______ _______ _____ _____    ______ ____
ROOT
ATOM      1  C   UNL     1       2.472   6.587  19.135  0.00  0.00    +0.000 A 
ATOM      2  C   UNL     1       1.930   6.463  20.416  0.00  0.00    +0.000 A 
ATOM      3  C   UNL     1       1.334   7.568  21.042  0.00  0.00    +0.000 A 
ATOM      4  C   UNL     1       1.257   8.809  20.395  0.00  0.00    +0.000 A 
ATOM      5  C   UNL     1       1.762   8.885  19.091  0.00  0.00    +0.000 A 
ATOM      6  C   UNL     1       2.409   7.809  18.482  0.00  0.00    +0.000 A 
ENDROOT
BRANCH   4   7
ATOM      7  N   UNL     1       0.663   9.904  21.049  0.00  0.00    +0.000 N 
ATOM      8  C   UNL     1      -0.283  10.813  20.550  0.00  0.00    +0.000 A 
ATOM      9  N   UNL     1      -0.307  12.020  21.126  0.00  0.00    +0.000 NA
ATOM     10  C   UNL     1      -1.116  12.937  20.571  0.00  0.00    +0.000 A 
ATOM     11  C   UNL     1      -1.148  14.306  21.181  0.00  0.00    +0.000 C 
ATOM     12  C   UNL     1      -1.895  12.672  19.460  0.00  0.00    +0.000 A 
ATOM     13  C   UNL     1      -1.858  11.395  18.944  0.00  0.00    +0.000 A 
ATOM     14  N   UNL     1      -1.056  10.487  19.508  0.00  0.00    +0.000 NA
ATOM     15  H   UNL     1       1.238  10.390  21.723  0.00  0.00    +0.000 HD
BRANCH  13  16
ATOM     16  N   UNL     1      -2.604  11.001  17.870  0.00  0.00    +0.000 N 
ATOM     17  C   UNL     1      -2.173  10.181  16.759  0.00  0.00    +0.000 C 
ATOM     18  C   UNL     1      -2.984  10.734  15.599  0.00  0.00    +0.000 C 
ATOM     19  C   UNL     1      -4.315  11.100  16.239  0.00  0.00    +0.000 C 
ATOM     20  C   UNL     1      -3.943  11.547  17.656  0.00  0.00    +0.000 C 
ENDBRANCH  13  16
ENDBRANCH   4   7
BRANCH   1  23
ATOM     21  C   UNL     1       4.317   5.013  18.827  0.00  0.00    +0.000 C 
ATOM     22  O   UNL     1       4.992   5.418  19.769  0.00  0.00    +0.000 OA
ATOM     23  N   UNL     1       3.080   5.515  18.457  0.00  0.00    +0.000 N 
ATOM     24  H   UNL     1       2.459   4.855  18.003  0.00  0.00    +0.000 HD
BRANCH  21  25
ATOM     25  C   UNL     1       4.773   3.842  17.975  0.00  0.00    +0.000 C 
BRANCH  25  29
ATOM     26  C   UNL     1       6.977   4.890  14.388  0.00  0.00    +0.000 A 
ATOM     27  C   UNL     1       5.694   4.348  14.317  0.00  0.00    +0.000 A 
ATOM     28  C   UNL     1       4.999   4.012  15.482  0.00  0.00    +0.000 A 
ATOM     29  C   UNL     1       5.585   4.184  16.744  0.00  0.00    +0.000 A 
ATOM     30  C   UNL     1       6.866   4.748  16.808  0.00  0.00    +0.000 A 
ATOM     31  C   UNL     1       7.561   5.091  15.638  0.00  0.00    +0.000 A 
BRANCH  26  33
ATOM     32  C   UNL     1       7.172   4.324  12.093  0.00  0.00    +0.000 C 
ATOM     33  O   UNL     1       7.555   5.159  13.177  0.00  0.00    +0.000 OA
ENDBRANCH  26  33
ENDBRANCH  25  29
ENDBRANCH  21  25
ENDBRANCH   1  23
TORSDOF 6
ENDMDL
MODEL 3
REMARK VINA RESULT:      -8.3      1.025      1.358
REMARK  Name = 
REMARK  8 active torsions:
REMARK  status: ('A' for Active; 'I' for Inactive)
REMARK    1  A    between atoms: C_1  and  O_2
REMARK    2  A    between atoms: O_2  and  C_3
REMARK    3  A    between atoms: C_6  and  C_7
REMARK    4  A    between atoms: C_7  and  C_8
REMARK    5  A    between atoms: N_10  and  C_11
REMARK    6  A    between atoms: C_14  and  N_15
REMARK    7  A    between atoms: C_18  and  C_19
REMARK    8  A    between atoms: C_21  and  N_22
REMARK                            x       y       z     vdW  Elec       q    Type
REMARK                         _______ _______ _______ _____ _____    ______ ____
ROOT
ATOM      1  C   UNL     1       2.531   6.633  19.022  0.00  0.00    +0.000 A 
ATOM      2  C   UNL     1       2.438   7.910  18.464  0.00  0.00    +0.000 A 
ATOM      3  C   UNL     1       1.774   8.936  19.152  0.00  0.00    +0.000 A 
ATOM      4  C   UNL     1       1.204   8.709  20.412  0.00  0.00    +0.000 A 
ATOM      5  C   UNL     1       1.362   7.433  20.967  0.00  0.00    +0.000 A 
ATOM      6  C   UNL     1       1.968   6.389  20.267  0.00  0.00    +0.000 A 
ENDROOT
BRANCH   4   7
ATOM      7  N   UNL     1       0.534   9.753  21.077  0.00  0.00    +0.000 N 
ATOM      8  C   UNL     1      -0.422  10.644  20.565  0.00  0.00    +0.000 A 
ATOM      9  N   UNL     1      -0.525  11.824  21.185  0.00  0.00    +0.000 NA
ATOM     10  C   UNL     1      -1.342  12.731  20.625  0.00  0.00    +0.000 A 
ATOM     11  C   UNL     1      -1.459  14.072  21.285  0.00  0.00    +0.000 C 
ATOM     12  C   UNL     1      -2.053  12.481  19.466  0.00  0.00    +0.000 A 
ATOM     13  C   UNL     1      -1.939  11.228  18.905  0.00  0.00    +0.000 A 
ATOM     14  N   UNL     1      -1.129  10.330  19.474  0.00  0.00    +0.000 NA
ATOM     15  H   UNL     1       1.055  10.233  21.798  0.00  0.00    +0.000 HD
BRANCH  13  16
ATOM     16  N   UNL     1      -2.613  10.849  17.779  0.00  0.00    +0.000 N 
ATOM     17  C   UNL     1      -2.155   9.947  16.746  0.00  0.00    +0.000 C 
ATOM     18  C   UNL     1      -2.803  10.512  15.494  0.00  0.00    +0.000 C 
ATOM     19  C   UNL     1      -4.151  11.016  15.989  0.00  0.00    +0.000 C 
ATOM     20  C   UNL     1      -3.874  11.495  17.417  0.00  0.00    +0.000 C 
ENDBRANCH  13  16
ENDBRANCH   4   7
BRANCH   1  23
ATOM     21  C   UNL     1       4.392   5.060  18.834  0.00  0.00    +0.000 C 
ATOM     22  O   UNL     1       4.999   5.458  19.824  0.00  0.00    +0.000 OA
ATOM     23  N   UNL     1       3.185   5.566  18.381  0.00  0.00    +0.000 N 
ATOM     24  H   UNL     1       2.597   4.910  17.879  0.00  0.00    +0.000 HD
BRANCH  21  25
ATOM     25  C   UNL     1       4.908   3.895  18.006  0.00  0.00    +0.000 C 
BRANCH  25  29
ATOM     26  C   UNL     1       6.906   4.843  14.274  0.00  0.00    +0.000 A 
ATOM     27  C   UNL     1       7.512   5.097  15.504  0.00  0.00    +0.000 A 
ATOM     28  C   UNL     1       6.853   4.789  16.698  0.00  0.00    +0.000 A 
ATOM     29  C   UNL     1       5.560   4.247  16.686  0.00  0.00    +0.000 A 
ATOM     30  C   UNL     1       4.966   3.977  15.446  0.00  0.00    +0.000 A 
ATOM     31  C   UNL     1       5.631   4.281  14.248  0.00  0.00    +0.000 A 
BRANCH  26  33
ATOM     32  C   UNL     1       7.352   4.536  11.965  0.00  0.00    +0.000 C 
ATOM     33  O   UNL     1       7.647   5.206  13.183  0.00  0.00    +0.000 OA
ENDBRANCH  26  33
ENDBRANCH  25  29
ENDBRANCH  21  25
ENDBRANCH   1  23
TORSDOF 6
ENDMDL
MODEL 4
REMARK VINA RESULT:      -8.2      2.718      4.064
REMARK  Name = 
REMARK  8 active torsions:
REMARK  status: ('A' for Active; 'I' for Inactive)
REMARK    1  A    between atoms: C_1  and  O_2
REMARK    2  A    between atoms: O_2  and  C_3
REMARK    3  A    between atoms: C_6  and  C_7
REMARK    4  A    between atoms: C_7  and  C_8
REMARK    5  A    between atoms: N_10  and  C_11
REMARK    6  A    between atoms: C_14  and  N_15
REMARK    7  A    between atoms: C_18  and  C_19
REMARK    8  A    between atoms: C_21  and  N_22
REMARK                            x       y       z     vdW  Elec       q    Type
REMARK                         _______ _______ _______ _____ _____    ______ ____
ROOT
ATOM      1  C   UNL     1       2.248   7.591  19.581  0.00  0.00    +0.000 A 
ATOM      2  C   UNL     1       1.531   8.020  20.701  0.00  0.00    +0.000 A 
ATOM      3  C   UNL     1       0.662   9.118  20.607  0.00  0.00    +0.000 A 
ATOM      4  C   UNL     1       0.485   9.796  19.393  0.00  0.00    +0.000 A 
ATOM      5  C   UNL     1       1.177   9.307  18.279  0.00  0.00    +0.000 A 
ATOM      6  C   UNL     1       2.088   8.254  18.373  0.00  0.00    +0.000 A 
ENDROOT
BRANCH   4   7
ATOM      7  N   UNL     1      -0.384  10.901  19.329  0.00  0.00    +0.000 N 
ATOM      8  C   UNL     1      -0.076  12.265  19.448  0.00  0.00    +0.000 A 
ATOM      9  N   UNL     1      -1.065  13.062  19.867  0.00  0.00    +0.000 NA
ATOM     10  C   UNL     1      -0.745  14.344  20.109  0.00  0.00    +0.000 A 
ATOM     11  C   UNL     1      -1.827  15.256  20.602  0.00  0.00    +0.000 C 
ATOM     12  C   UNL     1       0.535  14.839  19.941  0.00  0.00    +0.000 A 
ATOM     13  C   UNL     1       1.496  13.976  19.462  0.00  0.00    +0.000 A 
ATOM     14  N   UNL     1       1.166  12.704  19.216  0.00  0.00    +0.000 NA
ATOM     15  H   UNL     1      -1.318  10.759  19.688  0.00  0.00    +0.000 HD
BRANCH  13  16
ATOM     16  N   UNL     1       2.787  14.352  19.224  0.00  0.00    +0.000 N 
ATOM     17  C   UNL     1       3.835  14.549  20.201  0.00  0.00    +0.000 C 
ATOM     18  C   UNL     1       4.661  15.668  19.587  0.00  0.00    +0.000 C 
ATOM     19  C   UNL     1       4.595  15.378  18.095  0.00  0.00    +0.000 C 
ATOM     20  C   UNL     1       3.203  14.774  17.888  0.00  0.00    +0.000 C 
ENDBRANCH  13  16
ENDBRANCH   4   7
BRANCH   1  23
ATOM     21  C   UNL     1       2.692   5.189  19.493  0.00  0.00    +0.000 C 
ATOM     22  O   UNL     1       1.524   4.847  19.328  0.00  0.00    +0.000 OA
ATOM     23  N   UNL     1       3.131   6.497  19.614  0.00  0.00    +0.000 N 
ATOM     24  H   UNL     1       4.079   6.671  19.301  0.00  0.00    +0.000 HD
BRANCH  21  25
ATOM     25  C   UNL     1       3.815   4.168  19.532  0.00  0.00    +0.000 C 
BRANCH  25  29
ATOM     26  C   UNL     1       6.784   4.639  16.404  0.00  0.00    +0.000 A 
ATOM     27  C   UNL     1       5.481   4.238  16.111  0.00  0.00    +0.000 A 
ATOM     28  C   UNL     1       4.537   4.086  17.131  0.00  0.00    +0.000 A 
ATOM     29  C   UNL     1       4.885   4.307  18.471  0.00  0.00    +0.000 A 
ATOM     30  C   UNL     1       6.191   4.730  18.756  0.00  0.00    +0.000 A 
ATOM     31  C   UNL     1       7.136   4.887  17.730  0.00  0.00    +0.000 A 
BRANCH  26  33
ATOM     32  C   UNL     1       6.989   4.780  14.045  0.00  0.00    +0.000 C 
ATOM     33  O   UNL     1       7.614   4.732  15.320  0.00  0.00    +0.000 OA
ENDBRANCH  26  33
ENDBRANCH  25  29
ENDBRANCH  21  25
ENDBRANCH   1  23
TORSDOF 6
ENDMDL
MODEL 5
REMARK VINA RESULT:      -8.1      2.551      3.890
REMARK  Name = 
REMARK  8 active torsions:
REMARK  status: ('A' for Active; 'I' for Inactive)
REMARK    1  A    between atoms: C_1  and  O_2
REMARK    2  A    between atoms: O_2  and  C_3
REMARK    3  A    between atoms: C_6  and  C_7
REMARK    4  A    between atoms: C_7  and  C_8
REMARK    5  A    between atoms: N_10  and  C_11
REMARK    6  A    between atoms: C_14  and  N_15
REMARK    7  A    between atoms: C_18  and  C_19
REMARK    8  A    between atoms: C_21  and  N_22
REMARK                            x       y       z     vdW  Elec       q    Type
REMARK                         _______ _______ _______ _____ _____    ______ ____
ROOT
ATOM      1  C   UNL     1       2.138   7.819  19.460  0.00  0.00    +0.000 A 
ATOM      2  C   UNL     1       1.819   8.516  18.293  0.00  0.00    +0.000 A 
ATOM      3  C   UNL     1       0.856   9.537  18.319  0.00  0.00    +0.000 A 
ATOM      4  C   UNL     1       0.208   9.887  19.512  0.00  0.00    +0.000 A 
ATOM      5  C   UNL     1       0.591   9.205  20.673  0.00  0.00    +0.000 A 
ATOM      6  C   UNL     1       1.503   8.149  20.648  0.00  0.00    +0.000 A 
ENDROOT
BRANCH   4   7
ATOM      7  N   UNL     1      -0.761  10.907  19.509  0.00  0.00    +0.000 N 
ATOM      8  C   UNL     1      -0.568  12.297  19.544  0.00  0.00    +0.000 A 
ATOM      9  N   UNL     1      -1.573  13.023  20.046  0.00  0.00    +0.000 NA
ATOM     10  C   UNL     1      -1.347  14.337  20.205  0.00  0.00    +0.000 A 
ATOM     11  C   UNL     1      -2.447  15.173  20.786  0.00  0.00    +0.000 C 
ATOM     12  C   UNL     1      -0.145  14.935  19.874  0.00  0.00    +0.000 A 
ATOM     13  C   UNL     1       0.832  14.138  19.318  0.00  0.00    +0.000 A 
ATOM     14  N   UNL     1       0.595  12.832  19.157  0.00  0.00    +0.000 NA
ATOM     15  H   UNL     1      -1.632  10.701  19.978  0.00  0.00    +0.000 HD
BRANCH  13  16
ATOM     16  N   UNL     1       2.049  14.614  18.921  0.00  0.00    +0.000 N 
ATOM     17  C   UNL     1       2.382  15.976  18.564  0.00  0.00    +0.000 C 
ATOM     18  C   UNL     1       3.447  15.792  17.496  0.00  0.00    +0.000 C 
ATOM     19  C   UNL     1       4.213  14.565  17.966  0.00  0.00    +0.000 C 
ATOM     20  C   UNL     1       3.152  13.694  18.647  0.00  0.00    +0.000 C 
ENDBRANCH  13  16
ENDBRANCH   4   7
BRANCH   1  23
ATOM     21  C   UNL     1       2.739   5.452  19.551  0.00  0.00    +0.000 C 
ATOM     22  O   UNL     1       1.587   5.026  19.557  0.00  0.00    +0.000 OA
ATOM     23  N   UNL     1       3.095   6.789  19.496  0.00  0.00    +0.000 N 
ATOM     24  H   UNL     1       3.988   6.986  19.059  0.00  0.00    +0.000 HD
BRANCH  21  25
ATOM     25  C   UNL     1       3.929   4.509  19.558  0.00  0.00    +0.000 C 
BRANCH  25  29
ATOM     26  C   UNL     1       6.771   5.184  16.350  0.00  0.00    +0.000 A 
ATOM     27  C   UNL     1       5.466   4.768  16.086  0.00  0.00    +0.000 A 
ATOM     28  C   UNL     1       4.564   4.550  17.131  0.00  0.00    +0.000 A 
ATOM     29  C   UNL     1       4.957   4.718  18.467  0.00  0.00    +0.000 A 
ATOM     30  C   UNL     1       6.263   5.156  18.723  0.00  0.00    +0.000 A 
ATOM     31  C   UNL     1       7.167   5.378  17.672  0.00  0.00    +0.000 A 
BRANCH  26  33
ATOM     32  C   UNL     1       7.045   4.829  14.021  0.00  0.00    +0.000 C 
ATOM     33  O   UNL     1       7.559   5.342  15.243  0.00  0.00    +0.000 OA
ENDBRANCH  26  33
ENDBRANCH  25  29
ENDBRANCH  21  25
ENDBRANCH   1  23
TORSDOF 6
ENDMDL
MODEL 6
REMARK VINA RESULT:      -8.0      3.856     10.695
REMARK  Name = 
REMARK  8 active torsions:
REMARK  status: ('A' for Active; 'I' for Inactive)
REMARK    1  A    between atoms: C_1  and  O_2
REMARK    2  A    between atoms: O_2  and  C_3
REMARK    3  A    between atoms: C_6  and  C_7
REMARK    4  A    between atoms: C_7  and  C_8
REMARK    5  A    between atoms: N_10  and  C_11
REMARK    6  A    between atoms: C_14  and  N_15
REMARK    7  A    between atoms: C_18  and  C_19
REMARK    8  A    between atoms: C_21  and  N_22
REMARK                            x       y       z     vdW  Elec       q    Type
REMARK                         _______ _______ _______ _____ _____    ______ ____
ROOT
ATOM      1  C   UNL     1       0.036   9.772  20.809  0.00  0.00    +0.000 A 
ATOM      2  C   UNL     1      -0.078  10.218  19.491  0.00  0.00    +0.000 A 
ATOM      3  C   UNL     1       0.796   9.739  18.503  0.00  0.00    +0.000 A 
ATOM      4  C   UNL     1       1.787   8.798  18.812  0.00  0.00    +0.000 A 
ATOM      5  C   UNL     1       1.839   8.331  20.131  0.00  0.00    +0.000 A 
ATOM      6  C   UNL     1       1.015   8.844  21.134  0.00  0.00    +0.000 A 
ENDROOT
BRANCH   4   7
ATOM      7  N   UNL     1       2.657   8.341  17.805  0.00  0.00    +0.000 N 
ATOM      8  C   UNL     1       3.192   7.055  17.627  0.00  0.00    +0.000 A 
ATOM      9  N   UNL     1       4.348   6.981  16.959  0.00  0.00    +0.000 NA
ATOM     10  C   UNL     1       4.932   5.773  16.898  0.00  0.00    +0.000 A 
ATOM     11  C   UNL     1       6.241   5.663  16.175  0.00  0.00    +0.000 C 
ATOM     12  C   UNL     1       4.386   4.648  17.487  0.00  0.00    +0.000 A 
ATOM     13  C   UNL     1       3.170   4.785  18.120  0.00  0.00    +0.000 A 
ATOM     14  N   UNL     1       2.592   5.989  18.169  0.00  0.00    +0.000 NA
ATOM     15  H   UNL     1       3.329   9.010  17.455  0.00  0.00    +0.000 HD
BRANCH  13  16
ATOM     16  N   UNL     1       2.515   3.744  18.712  0.00  0.00    +0.000 N 
ATOM     17  C   UNL     1       2.090   2.509  18.090  0.00  0.00    +0.000 C 
ATOM     18  C   UNL     1       0.814   2.173  18.845  0.00  0.00    +0.000 C 
ATOM     19  C   UNL     1       1.108   2.641  20.262  0.00  0.00    +0.000 C 
ATOM     20  C   UNL     1       2.007   3.868  20.078  0.00  0.00    +0.000 C 
ENDBRANCH  13  16
ENDBRANCH   4   7
BRANCH   1  23
ATOM     21  C   UNL     1      -0.722  11.489  22.374  0.00  0.00    +0.000 C 
ATOM     22  O   UNL     1       0.067  12.356  22.008  0.00  0.00    +0.000 OA
ATOM     23  N   UNL     1      -0.811  10.215  21.841  0.00  0.00    +0.000 N 
ATOM     24  H   UNL     1      -1.727   9.783  21.891  0.00  0.00    +0.000 HD
BRANCH  21  25
ATOM     25  C   UNL     1      -1.747  11.763  23.461  0.00  0.00    +0.000 C 
BRANCH  25  29
ATOM     26  C   UNL     1      -5.550  13.475  22.264  0.00  0.00    +0.000 A 
ATOM     27  C   UNL     1      -5.283  13.164  23.597  0.00  0.00    +0.000 A 
ATOM     28  C   UNL     1      -4.054  12.609  23.966  0.00  0.00    +0.000 A 
ATOM     29  C   UNL     1      -3.075  12.327  23.003  0.00  0.00    +0.000 A 
ATOM     30  C   UNL     1      -3.342  12.661  21.669  0.00  0.00    +0.000 A 
ATOM     31  C   UNL     1      -4.574  13.223  21.301  0.00  0.00    +0.000 A 
BRANCH  26  33
ATOM     32  C   UNL     1      -6.847  15.359  21.636  0.00  0.00    +0.000 C 
ATOM     33  O   UNL     1      -6.794  13.995  22.033  0.00  0.00    +0.000 OA
ENDBRANCH  26  33
ENDBRANCH  25  29
ENDBRANCH  21  25
ENDBRANCH   1  23
TORSDOF 6
ENDMDL
MODEL 7
REMARK VINA RESULT:      -8.0      1.197      1.458
REMARK  Name = 
REMARK  8 active torsions:
REMARK  status: ('A' for Active; 'I' for Inactive)
REMARK    1  A    between atoms: C_1  and  O_2
REMARK    2  A    between atoms: O_2  and  C_3
REMARK    3  A    between atoms: C_6  and  C_7
REMARK    4  A    between atoms: C_7  and  C_8
REMARK    5  A    between atoms: N_10  and  C_11
REMARK    6  A    between atoms: C_14  and  N_15
REMARK    7  A    between atoms: C_18  and  C_19
REMARK    8  A    between atoms: C_21  and  N_22
REMARK                            x       y       z     vdW  Elec       q    Type
REMARK                         _______ _______ _______ _____ _____    ______ ____
ROOT
ATOM      1  C   UNL     1       2.440   6.132  19.109  0.00  0.00    +0.000 A 
ATOM      2  C   UNL     1       1.833   5.787  20.319  0.00  0.00    +0.000 A 
ATOM      3  C   UNL     1       1.303   6.783  21.153  0.00  0.00    +0.000 A 
ATOM      4  C   UNL     1       1.357   8.135  20.788  0.00  0.00    +0.000 A 
ATOM      5  C   UNL     1       1.924   8.441  19.545  0.00  0.00    +0.000 A 
ATOM      6  C   UNL     1       2.507   7.466  18.735  0.00  0.00    +0.000 A 
ENDROOT
BRANCH   4   7
ATOM      7  N   UNL     1       0.827   9.114  21.648  0.00  0.00    +0.000 N 
ATOM      8  C   UNL     1      -0.026  10.185  21.335  0.00  0.00    +0.000 A 
ATOM      9  N   UNL     1       0.023  11.240  22.154  0.00  0.00    +0.000 NA
ATOM     10  C   UNL     1      -0.690  12.319  21.791  0.00  0.00    +0.000 A 
ATOM     11  C   UNL     1      -0.637  13.527  22.677  0.00  0.00    +0.000 C 
ATOM     12  C   UNL     1      -1.445  12.361  20.633  0.00  0.00    +0.000 A 
ATOM     13  C   UNL     1      -1.489  11.223  19.858  0.00  0.00    +0.000 A 
ATOM     14  N   UNL     1      -0.782  10.151  20.232  0.00  0.00    +0.000 NA
ATOM     15  H   UNL     1       1.412   9.397  22.422  0.00  0.00    +0.000 HD
BRANCH  13  16
ATOM     16  N   UNL     1      -2.221  11.128  18.710  0.00  0.00    +0.000 N 
ATOM     17  C   UNL     1      -3.535  11.680  18.461  0.00  0.00    +0.000 C 
ATOM     18  C   UNL     1      -4.155  10.661  17.519  0.00  0.00    +0.000 C 
ATOM     19  C   UNL     1      -2.980  10.205  16.668  0.00  0.00    +0.000 C 
ATOM     20  C   UNL     1      -1.779  10.263  17.617  0.00  0.00    +0.000 C 
ENDBRANCH  13  16
ENDBRANCH   4   7
BRANCH   1  23
ATOM     21  C   UNL     1       4.072   4.392  18.579  0.00  0.00    +0.000 C 
ATOM     22  O   UNL     1       4.649   4.420  19.663  0.00  0.00    +0.000 OA
ATOM     23  N   UNL     1       2.988   5.179  18.231  0.00  0.00    +0.000 N 
ATOM     24  H   UNL     1       2.355   4.776  17.549  0.00  0.00    +0.000 HD
BRANCH  21  25
ATOM     25  C   UNL     1       4.484   3.415  17.491  0.00  0.00    +0.000 C 
BRANCH  25  29
ATOM     26  C   UNL     1       7.152   4.941  14.429  0.00  0.00    +0.000 A 
ATOM     27  C   UNL     1       7.432   5.113  15.784  0.00  0.00    +0.000 A 
ATOM     28  C   UNL     1       6.560   4.619  16.759  0.00  0.00    +0.000 A 
ATOM     29  C   UNL     1       5.373   3.966  16.397  0.00  0.00    +0.000 A 
ATOM     30  C   UNL     1       5.109   3.779  15.034  0.00  0.00    +0.000 A 
ATOM     31  C   UNL     1       5.988   4.271  14.056  0.00  0.00    +0.000 A 
BRANCH  26  33
ATOM     32  C   UNL     1       7.808   5.357  12.188  0.00  0.00    +0.000 C 
ATOM     33  O   UNL     1       8.074   5.486  13.578  0.00  0.00    +0.000 OA
ENDBRANCH  26  33
ENDBRANCH  25  29
ENDBRANCH  21  25
ENDBRANCH   1  23
TORSDOF 6
ENDMDL
MODEL 8
REMARK VINA RESULT:      -8.0      2.553      3.740
REMARK  Name = 
REMARK  8 active torsions:
REMARK  status: ('A' for Active; 'I' for Inactive)
REMARK    1  A    between atoms: C_1  and  O_2
REMARK    2  A    between atoms: O_2  and  C_3
REMARK    3  A    between atoms: C_6  and  C_7
REMARK    4  A    between atoms: C_7  and  C_8
REMARK    5  A    between atoms: N_10  and  C_11
REMARK    6  A    between atoms: C_14  and  N_15
REMARK    7  A    between atoms: C_18  and  C_19
REMARK    8  A    between atoms: C_21  and  N_22
REMARK                            x       y       z     vdW  Elec       q    Type
REMARK                         _______ _______ _______ _____ _____    ______ ____
ROOT
ATOM      1  C   UNL     1       2.062   7.815  19.776  0.00  0.00    +0.000 A 
ATOM      2  C   UNL     1       1.337   8.180  20.913  0.00  0.00    +0.000 A 
ATOM      3  C   UNL     1       0.393   9.216  20.848  0.00  0.00    +0.000 A 
ATOM      4  C   UNL     1       0.147   9.893  19.646  0.00  0.00    +0.000 A 
ATOM      5  C   UNL     1       0.851   9.467  18.514  0.00  0.00    +0.000 A 
ATOM      6  C   UNL     1       1.834   8.479  18.579  0.00  0.00    +0.000 A 
ENDROOT
BRANCH   4   7
ATOM      7  N   UNL     1      -0.798  10.935  19.611  0.00  0.00    +0.000 N 
ATOM      8  C   UNL     1      -0.574  12.321  19.620  0.00  0.00    +0.000 A 
ATOM      9  N   UNL     1      -1.568  13.080  20.094  0.00  0.00    +0.000 NA
ATOM     10  C   UNL     1      -1.313  14.392  20.229  0.00  0.00    +0.000 A 
ATOM     11  C   UNL     1      -2.401  15.264  20.780  0.00  0.00    +0.000 C 
ATOM     12  C   UNL     1      -0.094  14.954  19.900  0.00  0.00    +0.000 A 
ATOM     13  C   UNL     1       0.871  14.124  19.372  0.00  0.00    +0.000 A 
ATOM     14  N   UNL     1       0.606  12.821  19.235  0.00  0.00    +0.000 NA
ATOM     15  H   UNL     1      -1.679  10.758  20.074  0.00  0.00    +0.000 HD
BRANCH  13  16
ATOM     16  N   UNL     1       2.102  14.564  18.980  0.00  0.00    +0.000 N 
ATOM     17  C   UNL     1       2.512  15.933  18.754  0.00  0.00    +0.000 C 
ATOM     18  C   UNL     1       3.528  15.799  17.632  0.00  0.00    +0.000 C 
ATOM     19  C   UNL     1       4.226  14.484  17.942  0.00  0.00    +0.000 C 
ATOM     20  C   UNL     1       3.134  13.613  18.569  0.00  0.00    +0.000 C 
ENDBRANCH  13  16
ENDBRANCH   4   7
BRANCH   1  23
ATOM     21  C   UNL     1       2.665   5.447  19.745  0.00  0.00    +0.000 C 
ATOM     22  O   UNL     1       1.514   5.020  19.689  0.00  0.00    +0.000 OA
ATOM     23  N   UNL     1       3.019   6.785  19.779  0.00  0.00    +0.000 N 
ATOM     24  H   UNL     1       3.925   7.008  19.384  0.00  0.00    +0.000 HD
BRANCH  21  25
ATOM     25  C   UNL     1       3.857   4.506  19.733  0.00  0.00    +0.000 C 
BRANCH  25  29
ATOM     26  C   UNL     1       6.565   4.671  16.347  0.00  0.00    +0.000 A 
ATOM     27  C   UNL     1       6.988   5.018  17.630  0.00  0.00    +0.000 A 
ATOM     28  C   UNL     1       6.102   4.963  18.710  0.00  0.00    +0.000 A 
ATOM     29  C   UNL     1       4.764   4.587  18.524  0.00  0.00    +0.000 A 
ATOM     30  C   UNL     1       4.352   4.221  17.235  0.00  0.00    +0.000 A 
ATOM     31  C   UNL     1       5.244   4.271  16.153  0.00  0.00    +0.000 A 
BRANCH  26  33
ATOM     32  C   UNL     1       7.060   4.830  14.033  0.00  0.00    +0.000 C 
ATOM     33  O   UNL     1       7.522   4.785  15.376  0.00  0.00    +0.000 OA
ENDBRANCH  26  33
ENDBRANCH  25  29
ENDBRANCH  21  25
ENDBRANCH   1  23
TORSDOF 6
ENDMDL
MODEL 9
REMARK VINA RESULT:      -8.0      2.545      3.800
REMARK  Name = 
REMARK  8 active torsions:
REMARK  status: ('A' for Active; 'I' for Inactive)
REMARK    1  A    between atoms: C_1  and  O_2
REMARK    2  A    between atoms: O_2  and  C_3
REMARK    3  A    between atoms: C_6  and  C_7
REMARK    4  A    between atoms: C_7  and  C_8
REMARK    5  A    between atoms: N_10  and  C_11
REMARK    6  A    between atoms: C_14  and  N_15
REMARK    7  A    between atoms: C_18  and  C_19
REMARK    8  A    between atoms: C_21  and  N_22
REMARK                            x       y       z     vdW  Elec       q    Type
REMARK                         _______ _______ _______ _____ _____    ______ ____
ROOT
ATOM      1  C   UNL     1       2.489   7.100  19.410  0.00  0.00    +0.000 A 
ATOM      2  C   UNL     1       1.921   7.207  20.681  0.00  0.00    +0.000 A 
ATOM      3  C   UNL     1       1.094   8.296  20.997  0.00  0.00    +0.000 A 
ATOM      4  C   UNL     1       0.810   9.285  20.045  0.00  0.00    +0.000 A 
ATOM      5  C   UNL     1       1.351   9.118  18.765  0.00  0.00    +0.000 A 
ATOM      6  C   UNL     1       2.222   8.073  18.458  0.00  0.00    +0.000 A 
ENDROOT
BRANCH   4   7
ATOM      7  N   UNL     1      -0.015  10.372  20.390  0.00  0.00    +0.000 N 
ATOM      8  C   UNL     1       0.348  11.711  20.607  0.00  0.00    +0.000 A 
ATOM      9  N   UNL     1      -0.460  12.422  21.401  0.00  0.00    +0.000 NA
ATOM     10  C   UNL     1      -0.053  13.662  21.720  0.00  0.00    +0.000 A 
ATOM     11  C   UNL     1      -0.926  14.476  22.627  0.00  0.00    +0.000 C 
ATOM     12  C   UNL     1       1.136  14.199  21.262  0.00  0.00    +0.000 A 
ATOM     13  C   UNL     1       1.898  13.430  20.410  0.00  0.00    +0.000 A 
ATOM     14  N   UNL     1       1.481  12.200  20.092  0.00  0.00    +0.000 NA
ATOM     15  H   UNL     1      -0.809  10.164  20.980  0.00  0.00    +0.000 HD
BRANCH  13  16
ATOM     16  N   UNL     1       3.075  13.859  19.866  0.00  0.00    +0.000 N 
ATOM     17  C   UNL     1       4.160  14.531  20.547  0.00  0.00    +0.000 C 
ATOM     18  C   UNL     1       4.715  15.449  19.470  0.00  0.00    +0.000 C 
ATOM     19  C   UNL     1       4.560  14.633  18.195  0.00  0.00    +0.000 C 
ATOM     20  C   UNL     1       3.282  13.820  18.419  0.00  0.00    +0.000 C 
ENDBRANCH  13  16
ENDBRANCH   4   7
BRANCH   1  23
ATOM     21  C   UNL     1       2.821   4.801  18.647  0.00  0.00    +0.000 C 
ATOM     22  O   UNL     1       1.629   4.517  18.568  0.00  0.00    +0.000 OA
ATOM     23  N   UNL     1       3.325   6.031  19.036  0.00  0.00    +0.000 N 
ATOM     24  H   UNL     1       4.227   6.278  18.646  0.00  0.00    +0.000 HD
BRANCH  21  25
ATOM     25  C   UNL     1       3.898   3.801  18.264  0.00  0.00    +0.000 C 
BRANCH  25  29
ATOM     26  C   UNL     1       6.878   5.026  15.358  0.00  0.00    +0.000 A 
ATOM     27  C   UNL     1       7.183   4.941  16.716  0.00  0.00    +0.000 A 
ATOM     28  C   UNL     1       6.210   4.549  17.641  0.00  0.00    +0.000 A 
ATOM     29  C   UNL     1       4.902   4.260  17.228  0.00  0.00    +0.000 A 
ATOM     30  C   UNL     1       4.608   4.327  15.860  0.00  0.00    +0.000 A 
ATOM     31  C   UNL     1       5.587   4.716  14.932  0.00  0.00    +0.000 A 
BRANCH  26  33
ATOM     32  C   UNL     1       7.764   5.213  13.166  0.00  0.00    +0.000 C 
ATOM     33  O   UNL     1       7.911   5.438  14.562  0.00  0.00    +0.000 OA
ENDBRANCH  26  33
ENDBRANCH  25  29
ENDBRANCH  21  25
ENDBRANCH   1  23
TORSDOF 6
ENDMDL
