MODEL 1
REMARK VINA RESULT:      -7.6      0.000      0.000
REMARK  Name = 
REMARK  6 active torsions:
REMARK  status: ('A' for Active; 'I' for Inactive)
REMARK    1  A    between atoms: C_1  and  C_2
REMARK    2  A    between atoms: C_2  and  C_3
REMARK    3  A    between atoms: C_2  and  C_4
REMARK    4  A    between atoms: C_4  and  N_5
REMARK    5  A    between atoms: C_11  and  C_12
REMARK    6  A    between atoms: C_12  and  O_14
REMARK                            x       y       z     vdW  Elec       q    Type
REMARK                         _______ _______ _______ _____ _____    ______ ____
ROOT
ATOM      1  N   UNL     1       3.518   4.405  19.505  0.00  0.00    +0.000 N 
ATOM      2  C   UNL     1       4.236   3.222  19.314  0.00  0.00    +0.000 A 
ATOM      3  S   UNL     1       4.336   1.916  20.361  0.00  0.00    +0.000 S 
ATOM      4  N   UNL     1       4.939   3.105  18.143  0.00  0.00    +0.000 N 
ATOM      5  C   UNL     1       5.050   4.120  17.195  0.00  0.00    +0.000 A 
ATOM      6  C   UNL     1       5.888   3.965  16.089  0.00  0.00    +0.000 A 
ATOM      7  C   UNL     1       6.046   5.022  15.179  0.00  0.00    +0.000 A 
ATOM      8  C   UNL     1       5.371   6.233  15.388  0.00  0.00    +0.000 A 
ATOM      9  C   UNL     1       4.503   6.363  16.477  0.00  0.00    +0.000 A 
ATOM     10  C   UNL     1       4.346   5.301  17.374  0.00  0.00    +0.000 A 
ATOM     11  C   UNL     1       3.459   5.423  18.542  0.00  0.00    +0.000 A 
ATOM     12  O   UNL     1       2.723   6.407  18.610  0.00  0.00    +0.000 OA
ATOM     13  H   UNL     1       5.466   2.246  18.019  0.00  0.00    +0.000 HD
ENDROOT
BRANCH   7  14
ATOM     14  C   UNL     1       6.993   4.831  14.049  0.00  0.00    +0.000 C 
ATOM     15  O   UNL     1       7.934   5.580  13.855  0.00  0.00    +0.000 OA
BRANCH  14  16
ATOM     16  O   UNL     1       6.745   3.746  13.289  0.00  0.00    +0.000 OA
ATOM     17  H   UNL     1       7.339   2.986  13.421  0.00  0.00    +0.000 HD
ENDBRANCH  14  16
ENDBRANCH   7  14
BRANCH   1  18
ATOM     18  C   UNL     1       2.740   4.653  20.733  0.00  0.00    +0.000 C 
BRANCH  18  20
ATOM     19  C   UNL     1       0.937   3.473  19.339  0.00  0.00    +0.000 C 
ATOM     20  C   UNL     1       1.342   3.989  20.723  0.00  0.00    +0.000 C 
ATOM     21  C   UNL     1       1.317   2.828  21.720  0.00  0.00    +0.000 C 
ENDBRANCH  18  20
ENDBRANCH   1  18
TORSDOF 4
ENDMDL
MODEL 2
REMARK VINA RESULT:      -7.3      4.578      5.792
REMARK  Name = 
REMARK  6 active torsions:
REMARK  status: ('A' for Active; 'I' for Inactive)
REMARK    1  A    between atoms: C_1  and  C_2
REMARK    2  A    between atoms: C_2  and  C_3
REMARK    3  A    between atoms: C_2  and  C_4
REMARK    4  A    between atoms: C_4  and  N_5
REMARK    5  A    between atoms: C_11  and  C_12
REMARK    6  A    between atoms: C_12  and  O_14
REMARK                            x       y       z     vdW  Elec       q    Type
REMARK                         _______ _______ _______ _____ _____    ______ ____
ROOT
ATOM      1  N   UNL     1       1.243   9.250  19.511  0.00  0.00    +0.000 N 
ATOM      2  C   UNL     1       1.119   8.521  20.696  0.00  0.00    +0.000 A 
ATOM      3  S   UNL     1       0.296   8.975  22.085  0.00  0.00    +0.000 S 
ATOM      4  N   UNL     1       1.735   7.297  20.739  0.00  0.00    +0.000 N 
ATOM      5  C   UNL     1       2.538   6.791  19.719  0.00  0.00    +0.000 A 
ATOM      6  C   UNL     1       3.229   5.591  19.893  0.00  0.00    +0.000 A 
ATOM      7  C   UNL     1       4.091   5.129  18.887  0.00  0.00    +0.000 A 
ATOM      8  C   UNL     1       4.264   5.878  17.715  0.00  0.00    +0.000 A 
ATOM      9  C   UNL     1       3.536   7.058  17.534  0.00  0.00    +0.000 A 
ATOM     10  C   UNL     1       2.673   7.506  18.539  0.00  0.00    +0.000 A 
ATOM     11  C   UNL     1       1.916   8.759  18.383  0.00  0.00    +0.000 A 
ATOM     12  O   UNL     1       1.919   9.304  17.280  0.00  0.00    +0.000 OA
ATOM     13  H   UNL     1       1.647   6.780  21.609  0.00  0.00    +0.000 HD
ENDROOT
BRANCH   7  14
ATOM     14  C   UNL     1       4.850   3.876  19.142  0.00  0.00    +0.000 C 
ATOM     15  O   UNL     1       4.354   2.921  19.716  0.00  0.00    +0.000 OA
BRANCH  14  16
ATOM     16  O   UNL     1       6.106   3.873  18.656  0.00  0.00    +0.000 OA
ATOM     17  H   UNL     1       6.408   3.039  18.256  0.00  0.00    +0.000 HD
ENDBRANCH  14  16
ENDBRANCH   7  14
BRANCH   1  18
ATOM     18  C   UNL     1       0.641  10.587  19.354  0.00  0.00    +0.000 C 
BRANCH  18  20
ATOM     19  C   UNL     1      -1.546  11.874  19.734  0.00  0.00    +0.000 C 
ATOM     20  C   UNL     1      -0.903  10.563  19.272  0.00  0.00    +0.000 C 
ATOM     21  C   UNL     1      -1.338  10.270  17.833  0.00  0.00    +0.000 C 
ENDBRANCH  18  20
ENDBRANCH   1  18
TORSDOF 4
ENDMDL
MODEL 3
REMARK VINA RESULT:      -7.1      2.385      2.775
REMARK  Name = 
REMARK  6 active torsions:
REMARK  status: ('A' for Active; 'I' for Inactive)
REMARK    1  A    between atoms: C_1  and  C_2
REMARK    2  A    between atoms: C_2  and  C_3
REMARK    3  A    between atoms: C_2  and  C_4
REMARK    4  A    between atoms: C_4  and  N_5
REMARK    5  A    between atoms: C_11  and  C_12
REMARK    6  A    between atoms: C_12  and  O_14
REMARK                            x       y       z     vdW  Elec       q    Type
REMARK                         _______ _______ _______ _____ _____    ______ ____
ROOT
ATOM      1  N   UNL     1       3.189   3.124  19.045  0.00  0.00    +0.000 N 
ATOM      2  C   UNL     1       4.370   2.764  19.698  0.00  0.00    +0.000 A 
ATOM      3  S   UNL     1       4.592   1.488  20.763  0.00  0.00    +0.000 S 
ATOM      4  N   UNL     1       5.477   3.532  19.446  0.00  0.00    +0.000 N 
ATOM      5  C   UNL     1       5.465   4.685  18.662  0.00  0.00    +0.000 A 
ATOM      6  C   UNL     1       6.607   5.479  18.558  0.00  0.00    +0.000 A 
ATOM      7  C   UNL     1       6.562   6.675  17.824  0.00  0.00    +0.000 A 
ATOM      8  C   UNL     1       5.368   7.073  17.208  0.00  0.00    +0.000 A 
ATOM      9  C   UNL     1       4.241   6.250  17.286  0.00  0.00    +0.000 A 
ATOM     10  C   UNL     1       4.298   5.055  18.012  0.00  0.00    +0.000 A 
ATOM     11  C   UNL     1       3.117   4.185  18.131  0.00  0.00    +0.000 A 
ATOM     12  O   UNL     1       2.139   4.437  17.429  0.00  0.00    +0.000 OA
ATOM     13  H   UNL     1       6.328   3.269  19.933  0.00  0.00    +0.000 HD
ENDROOT
BRANCH   7  14
ATOM     14  C   UNL     1       7.787   7.516  17.789  0.00  0.00    +0.000 C 
ATOM     15  O   UNL     1       8.046   8.251  16.851  0.00  0.00    +0.000 OA
BRANCH  14  16
ATOM     16  O   UNL     1       8.560   7.426  18.889  0.00  0.00    +0.000 OA
ATOM     17  H   UNL     1       8.961   8.257  19.200  0.00  0.00    +0.000 HD
ENDBRANCH  14  16
ENDBRANCH   7  14
BRANCH   1  18
ATOM     18  C   UNL     1       1.929   2.385  19.253  0.00  0.00    +0.000 C 
BRANCH  18  20
ATOM     19  C   UNL     1       1.449   2.395  21.774  0.00  0.00    +0.000 C 
ATOM     20  C   UNL     1       1.062   2.954  20.401  0.00  0.00    +0.000 C 
ATOM     21  C   UNL     1       1.180   4.481  20.427  0.00  0.00    +0.000 C 
ENDBRANCH  18  20
ENDBRANCH   1  18
TORSDOF 4
ENDMDL
MODEL 4
REMARK VINA RESULT:      -7.0      4.580      5.964
REMARK  Name = 
REMARK  6 active torsions:
REMARK  status: ('A' for Active; 'I' for Inactive)
REMARK    1  A    between atoms: C_1  and  C_2
REMARK    2  A    between atoms: C_2  and  C_3
REMARK    3  A    between atoms: C_2  and  C_4
REMARK    4  A    between atoms: C_4  and  N_5
REMARK    5  A    between atoms: C_11  and  C_12
REMARK    6  A    between atoms: C_12  and  O_14
REMARK                            x       y       z     vdW  Elec       q    Type
REMARK                         _______ _______ _______ _____ _____    ______ ____
ROOT
ATOM      1  N   UNL     1       1.211   9.259  19.478  0.00  0.00    +0.000 N 
ATOM      2  C   UNL     1       1.070   8.516  20.652  0.00  0.00    +0.000 A 
ATOM      3  S   UNL     1       0.208   8.944  22.026  0.00  0.00    +0.000 S 
ATOM      4  N   UNL     1       1.702   7.300  20.697  0.00  0.00    +0.000 N 
ATOM      5  C   UNL     1       2.536   6.817  19.691  0.00  0.00    +0.000 A 
ATOM      6  C   UNL     1       3.240   5.625  19.870  0.00  0.00    +0.000 A 
ATOM      7  C   UNL     1       4.132   5.186  18.879  0.00  0.00    +0.000 A 
ATOM      8  C   UNL     1       4.322   5.949  17.719  0.00  0.00    +0.000 A 
ATOM      9  C   UNL     1       3.581   7.121  17.533  0.00  0.00    +0.000 A 
ATOM     10  C   UNL     1       2.688   7.546  18.522  0.00  0.00    +0.000 A 
ATOM     11  C   UNL     1       1.917   8.790  18.360  0.00  0.00    +0.000 A 
ATOM     12  O   UNL     1       1.939   9.346  17.264  0.00  0.00    +0.000 OA
ATOM     13  H   UNL     1       1.601   6.773  21.559  0.00  0.00    +0.000 HD
ENDROOT
BRANCH   7  14
ATOM     14  C   UNL     1       4.902   3.941  19.140  0.00  0.00    +0.000 C 
ATOM     15  O   UNL     1       4.432   3.003  19.761  0.00  0.00    +0.000 OA
BRANCH  14  16
ATOM     16  O   UNL     1       6.138   3.924  18.604  0.00  0.00    +0.000 OA
ATOM     17  H   UNL     1       6.818   4.436  19.078  0.00  0.00    +0.000 HD
ENDBRANCH  14  16
ENDBRANCH   7  14
BRANCH   1  18
ATOM     18  C   UNL     1       0.594  10.589  19.320  0.00  0.00    +0.000 C 
BRANCH  18  20
ATOM     19  C   UNL     1       1.956  12.649  18.620  0.00  0.00    +0.000 C 
ATOM     20  C   UNL     1       1.508  11.751  19.777  0.00  0.00    +0.000 C 
ATOM     21  C   UNL     1       0.777  12.602  20.820  0.00  0.00    +0.000 C 
ENDBRANCH  18  20
ENDBRANCH   1  18
TORSDOF 4
ENDMDL
MODEL 5
REMARK VINA RESULT:      -6.9      1.731      2.032
REMARK  Name = 
REMARK  6 active torsions:
REMARK  status: ('A' for Active; 'I' for Inactive)
REMARK    1  A    between atoms: C_1  and  C_2
REMARK    2  A    between atoms: C_2  and  C_3
REMARK    3  A    between atoms: C_2  and  C_4
REMARK    4  A    between atoms: C_4  and  N_5
REMARK    5  A    between atoms: C_11  and  C_12
REMARK    6  A    between atoms: C_12  and  O_14
REMARK                            x       y       z     vdW  Elec       q    Type
REMARK                         _______ _______ _______ _____ _____    ______ ____
ROOT
ATOM      1  N   UNL     1       4.119   3.508  18.988  0.00  0.00    +0.000 N 
ATOM      2  C   UNL     1       3.350   3.074  17.906  0.00  0.00    +0.000 A 
ATOM      3  S   UNL     1       1.912   2.211  17.965  0.00  0.00    +0.000 S 
ATOM      4  N   UNL     1       3.812   3.382  16.653  0.00  0.00    +0.000 N 
ATOM      5  C   UNL     1       5.030   4.012  16.404  0.00  0.00    +0.000 A 
ATOM      6  C   UNL     1       5.484   4.176  15.094  0.00  0.00    +0.000 A 
ATOM      7  C   UNL     1       6.745   4.747  14.859  0.00  0.00    +0.000 A 
ATOM      8  C   UNL     1       7.548   5.139  15.939  0.00  0.00    +0.000 A 
ATOM      9  C   UNL     1       7.066   5.005  17.245  0.00  0.00    +0.000 A 
ATOM     10  C   UNL     1       5.805   4.444  17.469  0.00  0.00    +0.000 A 
ATOM     11  C   UNL     1       5.287   4.269  18.836  0.00  0.00    +0.000 A 
ATOM     12  O   UNL     1       5.905   4.792  19.761  0.00  0.00    +0.000 OA
ATOM     13  H   UNL     1       3.251   3.053  15.873  0.00  0.00    +0.000 HD
ENDROOT
BRANCH   7  14
ATOM     14  C   UNL     1       7.209   4.850  13.451  0.00  0.00    +0.000 C 
ATOM     15  O   UNL     1       8.029   5.679  13.095  0.00  0.00    +0.000 OA
BRANCH  14  16
ATOM     16  O   UNL     1       6.681   3.932  12.618  0.00  0.00    +0.000 OA
ATOM     17  H   UNL     1       6.996   3.018  12.733  0.00  0.00    +0.000 HD
ENDBRANCH  14  16
ENDBRANCH   7  14
BRANCH   1  18
ATOM     18  C   UNL     1       3.733   3.218  20.382  0.00  0.00    +0.000 C 
BRANCH  18  20
ATOM     19  C   UNL     1       1.712   2.776  21.900  0.00  0.00    +0.000 C 
ATOM     20  C   UNL     1       2.255   3.550  20.695  0.00  0.00    +0.000 C 
ATOM     21  C   UNL     1       2.108   5.052  20.954  0.00  0.00    +0.000 C 
ENDBRANCH  18  20
ENDBRANCH   1  18
TORSDOF 4
ENDMDL
MODEL 6
REMARK VINA RESULT:      -6.8      2.934      6.401
REMARK  Name = 
REMARK  6 active torsions:
REMARK  status: ('A' for Active; 'I' for Inactive)
REMARK    1  A    between atoms: C_1  and  C_2
REMARK    2  A    between atoms: C_2  and  C_3
REMARK    3  A    between atoms: C_2  and  C_4
REMARK    4  A    between atoms: C_4  and  N_5
REMARK    5  A    between atoms: C_11  and  C_12
REMARK    6  A    between atoms: C_12  and  O_14
REMARK                            x       y       z     vdW  Elec       q    Type
REMARK                         _______ _______ _______ _____ _____    ______ ____
ROOT
ATOM      1  N   UNL     1       4.327   5.147  17.875  0.00  0.00    +0.000 N 
ATOM      2  C   UNL     1       3.967   4.635  19.123  0.00  0.00    +0.000 A 
ATOM      3  S   UNL     1       4.365   3.133  19.756  0.00  0.00    +0.000 S 
ATOM      4  N   UNL     1       3.205   5.441  19.928  0.00  0.00    +0.000 N 
ATOM      5  C   UNL     1       2.703   6.681  19.540  0.00  0.00    +0.000 A 
ATOM      6  C   UNL     1       1.831   7.382  20.374  0.00  0.00    +0.000 A 
ATOM      7  C   UNL     1       1.275   8.596  19.941  0.00  0.00    +0.000 A 
ATOM      8  C   UNL     1       1.588   9.095  18.669  0.00  0.00    +0.000 A 
ATOM      9  C   UNL     1       2.494   8.404  17.858  0.00  0.00    +0.000 A 
ATOM     10  C   UNL     1       3.049   7.200  18.302  0.00  0.00    +0.000 A 
ATOM     11  C   UNL     1       3.984   6.441  17.455  0.00  0.00    +0.000 A 
ATOM     12  O   UNL     1       4.406   6.978  16.432  0.00  0.00    +0.000 OA
ATOM     13  H   UNL     1       2.940   5.054  20.829  0.00  0.00    +0.000 HD
ENDROOT
BRANCH   7  14
ATOM     14  C   UNL     1       0.307   9.278  20.840  0.00  0.00    +0.000 C 
ATOM     15  O   UNL     1       0.162  10.488  20.843  0.00  0.00    +0.000 OA
BRANCH  14  16
ATOM     16  O   UNL     1      -0.415   8.447  21.618  0.00  0.00    +0.000 OA
ATOM     17  H   UNL     1      -1.363   8.382  21.408  0.00  0.00    +0.000 HD
ENDBRANCH  14  16
ENDBRANCH   7  14
BRANCH   1  18
ATOM     18  C   UNL     1       5.129   4.366  16.914  0.00  0.00    +0.000 C 
BRANCH  18  20
ATOM     19  C   UNL     1       7.571   4.561  17.677  0.00  0.00    +0.000 C 
ATOM     20  C   UNL     1       6.525   4.973  16.637  0.00  0.00    +0.000 C 
ATOM     21  C   UNL     1       7.003   4.550  15.246  0.00  0.00    +0.000 C 
ENDBRANCH  18  20
ENDBRANCH   1  18
TORSDOF 4
ENDMDL
MODEL 7
REMARK VINA RESULT:      -6.8      0.959      1.379
REMARK  Name = 
REMARK  6 active torsions:
REMARK  status: ('A' for Active; 'I' for Inactive)
REMARK    1  A    between atoms: C_1  and  C_2
REMARK    2  A    between atoms: C_2  and  C_3
REMARK    3  A    between atoms: C_2  and  C_4
REMARK    4  A    between atoms: C_4  and  N_5
REMARK    5  A    between atoms: C_11  and  C_12
REMARK    6  A    between atoms: C_12  and  O_14
REMARK                            x       y       z     vdW  Elec       q    Type
REMARK                         _______ _______ _______ _____ _____    ______ ____
ROOT
ATOM      1  N   UNL     1       3.822   4.100  18.855  0.00  0.00    +0.000 N 
ATOM      2  C   UNL     1       4.070   2.837  18.313  0.00  0.00    +0.000 A 
ATOM      3  S   UNL     1       3.736   1.350  19.013  0.00  0.00    +0.000 S 
ATOM      4  N   UNL     1       4.650   2.797  17.071  0.00  0.00    +0.000 N 
ATOM      5  C   UNL     1       5.081   3.925  16.375  0.00  0.00    +0.000 A 
ATOM      6  C   UNL     1       5.775   3.789  15.172  0.00  0.00    +0.000 A 
ATOM      7  C   UNL     1       6.266   4.929  14.517  0.00  0.00    +0.000 A 
ATOM      8  C   UNL     1       6.069   6.198  15.077  0.00  0.00    +0.000 A 
ATOM      9  C   UNL     1       5.338   6.325  16.263  0.00  0.00    +0.000 A 
ATOM     10  C   UNL     1       4.844   5.184  16.904  0.00  0.00    +0.000 A 
ATOM     11  C   UNL     1       4.095   5.291  18.166  0.00  0.00    +0.000 A 
ATOM     12  O   UNL     1       3.756   6.410  18.546  0.00  0.00    +0.000 OA
ATOM     13  H   UNL     1       4.835   1.874  16.691  0.00  0.00    +0.000 HD
ENDROOT
BRANCH   7  14
ATOM     14  C   UNL     1       7.048   4.730  13.268  0.00  0.00    +0.000 C 
ATOM     15  O   UNL     1       6.782   3.851  12.466  0.00  0.00    +0.000 OA
BRANCH  14  16
ATOM     16  O   UNL     1       8.044   5.619  13.083  0.00  0.00    +0.000 OA
ATOM     17  H   UNL     1       8.023   6.117  12.247  0.00  0.00    +0.000 HD
ENDBRANCH  14  16
ENDBRANCH   7  14
BRANCH   1  18
ATOM     18  C   UNL     1       3.221   4.269  20.191  0.00  0.00    +0.000 C 
BRANCH  18  20
ATOM     19  C   UNL     1       1.078   3.124  21.018  0.00  0.00    +0.000 C 
ATOM     20  C   UNL     1       1.674   4.257  20.178  0.00  0.00    +0.000 C 
ATOM     21  C   UNL     1       1.144   5.598  20.693  0.00  0.00    +0.000 C 
ENDBRANCH  18  20
ENDBRANCH   1  18
TORSDOF 4
ENDMDL
MODEL 8
REMARK VINA RESULT:      -6.8      4.174      7.468
REMARK  Name = 
REMARK  6 active torsions:
REMARK  status: ('A' for Active; 'I' for Inactive)
REMARK    1  A    between atoms: C_1  and  C_2
REMARK    2  A    between atoms: C_2  and  C_3
REMARK    3  A    between atoms: C_2  and  C_4
REMARK    4  A    between atoms: C_4  and  N_5
REMARK    5  A    between atoms: C_11  and  C_12
REMARK    6  A    between atoms: C_12  and  O_14
REMARK                            x       y       z     vdW  Elec       q    Type
REMARK                         _______ _______ _______ _____ _____    ______ ____
ROOT
ATOM      1  N   UNL     1       2.743   6.428  18.633  0.00  0.00    +0.000 N 
ATOM      2  C   UNL     1       2.531   5.840  19.882  0.00  0.00    +0.000 A 
ATOM      3  S   UNL     1       2.906   4.272  20.342  0.00  0.00    +0.000 S 
ATOM      4  N   UNL     1       1.952   6.624  20.847  0.00  0.00    +0.000 N 
ATOM      5  C   UNL     1       1.490   7.920  20.625  0.00  0.00    +0.000 A 
ATOM      6  C   UNL     1       0.800   8.604  21.627  0.00  0.00    +0.000 A 
ATOM      7  C   UNL     1       0.276   9.881  21.367  0.00  0.00    +0.000 A 
ATOM      8  C   UNL     1       0.438  10.459  20.101  0.00  0.00    +0.000 A 
ATOM      9  C   UNL     1       1.165   9.781  19.118  0.00  0.00    +0.000 A 
ATOM     10  C   UNL     1       1.691   8.513  19.388  0.00  0.00    +0.000 A 
ATOM     11  C   UNL     1       2.437   7.769  18.361  0.00  0.00    +0.000 A 
ATOM     12  O   UNL     1       2.744   8.359  17.327  0.00  0.00    +0.000 OA
ATOM     13  H   UNL     1       1.793   6.184  21.748  0.00  0.00    +0.000 HD
ENDROOT
BRANCH   7  14
ATOM     14  C   UNL     1      -0.500  10.546  22.446  0.00  0.00    +0.000 C 
ATOM     15  O   UNL     1      -0.829  11.718  22.383  0.00  0.00    +0.000 OA
BRANCH  14  16
ATOM     16  O   UNL     1      -0.838   9.740  23.472  0.00  0.00    +0.000 OA
ATOM     17  H   UNL     1      -1.103   8.833  23.234  0.00  0.00    +0.000 HD
ENDBRANCH  14  16
ENDBRANCH   7  14
BRANCH   1  18
ATOM     18  C   UNL     1       3.340   5.678  17.512  0.00  0.00    +0.000 C 
BRANCH  18  20
ATOM     19  C   UNL     1       5.623   4.530  17.744  0.00  0.00    +0.000 C 
ATOM     20  C   UNL     1       4.877   5.827  17.418  0.00  0.00    +0.000 C 
ATOM     21  C   UNL     1       5.264   6.291  16.011  0.00  0.00    +0.000 C 
ENDBRANCH  18  20
ENDBRANCH   1  18
TORSDOF 4
ENDMDL
MODEL 9
REMARK VINA RESULT:      -6.7      3.778      6.421
REMARK  Name = 
REMARK  6 active torsions:
REMARK  status: ('A' for Active; 'I' for Inactive)
REMARK    1  A    between atoms: C_1  and  C_2
REMARK    2  A    between atoms: C_2  and  C_3
REMARK    3  A    between atoms: C_2  and  C_4
REMARK    4  A    between atoms: C_4  and  N_5
REMARK    5  A    between atoms: C_11  and  C_12
REMARK    6  A    between atoms: C_12  and  O_14
REMARK                            x       y       z     vdW  Elec       q    Type
REMARK                         _______ _______ _______ _____ _____    ______ ____
ROOT
ATOM      1  N   UNL     1       3.064   5.427  19.078  0.00  0.00    +0.000 N 
ATOM      2  C   UNL     1       2.466   5.323  20.336  0.00  0.00    +0.000 A 
ATOM      3  S   UNL     1       2.389   3.962  21.313  0.00  0.00    +0.000 S 
ATOM      4  N   UNL     1       1.875   6.454  20.837  0.00  0.00    +0.000 N 
ATOM      5  C   UNL     1       1.760   7.651  20.134  0.00  0.00    +0.000 A 
ATOM      6  C   UNL     1       1.033   8.716  20.668  0.00  0.00    +0.000 A 
ATOM      7  C   UNL     1       0.863   9.891  19.919  0.00  0.00    +0.000 A 
ATOM      8  C   UNL     1       1.414   9.988  18.634  0.00  0.00    +0.000 A 
ATOM      9  C   UNL     1       2.174   8.930  18.125  0.00  0.00    +0.000 A 
ATOM     10  C   UNL     1       2.345   7.766  18.882  0.00  0.00    +0.000 A 
ATOM     11  C   UNL     1       3.118   6.629  18.357  0.00  0.00    +0.000 A 
ATOM     12  O   UNL     1       3.760   6.794  17.321  0.00  0.00    +0.000 OA
ATOM     13  H   UNL     1       1.434   6.364  21.748  0.00  0.00    +0.000 HD
ENDROOT
BRANCH   7  14
ATOM     14  C   UNL     1       0.033  10.976  20.506  0.00  0.00    +0.000 C 
ATOM     15  O   UNL     1      -0.998  11.362  19.983  0.00  0.00    +0.000 OA
BRANCH  14  16
ATOM     16  O   UNL     1       0.494  11.464  21.674  0.00  0.00    +0.000 OA
ATOM     17  H   UNL     1       1.090  10.880  22.177  0.00  0.00    +0.000 HD
ENDBRANCH  14  16
ENDBRANCH   7  14
BRANCH   1  18
ATOM     18  C   UNL     1       3.713   4.273  18.427  0.00  0.00    +0.000 C 
BRANCH  18  20
ATOM     19  C   UNL     1       2.753   1.970  17.828  0.00  0.00    +0.000 C 
ATOM     20  C   UNL     1       2.764   3.468  17.509  0.00  0.00    +0.000 C 
ATOM     21  C   UNL     1       1.340   4.019  17.630  0.00  0.00    +0.000 C 
ENDBRANCH  18  20
ENDBRANCH   1  18
TORSDOF 4
ENDMDL
