MODEL 1
REMARK VINA RESULT:      -7.6      0.000      0.000
REMARK  Name = 
REMARK  9 active torsions:
REMARK  status: ('A' for Active; 'I' for Inactive)
REMARK    1  A    between atoms: C_1  and  O_2
REMARK    2  A    between atoms: O_2  and  C_3
REMARK    3  A    between atoms: C_9  and  C_10
REMARK    4  A    between atoms: C_10  and  O_11
REMARK    5  A    between atoms: C_10  and  C_15
REMARK    6  A    between atoms: O_11  and  C_12
REMARK    7  A    between atoms: C_12  and  C_13
REMARK    8  A    between atoms: C_27  and  O_28
REMARK    9  A    between atoms: O_28  and  C_29
REMARK                            x       y       z     vdW  Elec       q    Type
REMARK                         _______ _______ _______ _____ _____    ______ ____
ROOT
ATOM      1  C   UNL     1       0.676   9.708  20.732  0.00  0.00    +0.000 C 
ENDROOT
BRANCH   1   8
ATOM      2  C   UNL     1       0.787  14.733  19.190  0.00  0.00    +0.000 A 
ATOM      3  C   UNL     1      -0.179  14.057  18.432  0.00  0.00    +0.000 A 
ATOM      4  C   UNL     1      -0.441  12.710  18.586  0.00  0.00    +0.000 A 
ATOM      5  N   UNL     1      -1.478  12.194  17.918  0.00  0.00    +0.000 NA
ATOM      6  C   UNL     1      -1.806  10.910  18.147  0.00  0.00    +0.000 A 
ATOM      7  C   UNL     1      -1.133  10.102  19.040  0.00  0.00    +0.000 A 
ATOM      8  C   UNL     1      -0.027  10.620  19.733  0.00  0.00    +0.000 A 
ATOM      9  C   UNL     1       0.353  11.961  19.482  0.00  0.00    +0.000 A 
ATOM     10  C   UNL     1       1.445  12.605  20.094  0.00  0.00    +0.000 A 
ATOM     11  C   UNL     1       1.660  13.984  19.983  0.00  0.00    +0.000 A 
BRANCH   2  13
ATOM     12  C   UNL     1      -0.198  16.758  18.468  0.00  0.00    +0.000 C 
ATOM     13  O   UNL     1       0.877  16.098  19.152  0.00  0.00    +0.000 OA
ENDBRANCH   2  13
BRANCH  11  14
ATOM     14  O   UNL     1       2.724  14.381  20.739  0.00  0.00    +0.000 OA
ATOM     15  C   UNL     1       3.953  14.711  20.119  0.00  0.00    +0.000 C 
ENDBRANCH  11  14
ENDBRANCH   1   8
BRANCH   1  16
ATOM     16  C   UNL     1       1.439   8.503  20.163  0.00  0.00    +0.000 A 
ATOM     17  C   UNL     1       1.951   8.564  18.856  0.00  0.00    +0.000 A 
ATOM     18  C   UNL     1       2.476   7.431  18.227  0.00  0.00    +0.000 A 
ATOM     19  C   UNL     1       2.503   6.197  18.847  0.00  0.00    +0.000 A 
ATOM     20  N   UNL     1       2.944   5.130  18.161  0.00  0.00    +0.000 NA
ATOM     21  C   UNL     1       2.929   3.928  18.778  0.00  0.00    +0.000 A 
ATOM     22  C   UNL     1       2.519   3.744  20.086  0.00  0.00    +0.000 A 
ATOM     23  C   UNL     1       2.076   4.856  20.794  0.00  0.00    +0.000 A 
ATOM     24  C   UNL     1       2.035   6.115  20.179  0.00  0.00    +0.000 A 
ATOM     25  C   UNL     1       1.514   7.263  20.821  0.00  0.00    +0.000 A 
ENDBRANCH   1  16
BRANCH   1  26
ATOM     26  O   UNL     1      -0.276   9.257  21.718  0.00  0.00    +0.000 OA
BRANCH  26  27
ATOM     27  C   UNL     1      -0.205   9.875  22.931  0.00  0.00    +0.000 C 
ATOM     28  C   UNL     1      -1.267  10.925  23.048  0.00  0.00    +0.000 C 
ATOM     29  O   UNL     1       0.562   9.579  23.830  0.00  0.00    +0.000 OA
ENDBRANCH  26  27
ENDBRANCH   1  26
TORSDOF 6
ENDMDL
MODEL 2
REMARK VINA RESULT:      -7.5      4.722      8.088
REMARK  Name = 
REMARK  9 active torsions:
REMARK  status: ('A' for Active; 'I' for Inactive)
REMARK    1  A    between atoms: C_1  and  O_2
REMARK    2  A    between atoms: O_2  and  C_3
REMARK    3  A    between atoms: C_9  and  C_10
REMARK    4  A    between atoms: C_10  and  O_11
REMARK    5  A    between atoms: C_10  and  C_15
REMARK    6  A    between atoms: O_11  and  C_12
REMARK    7  A    between atoms: C_12  and  C_13
REMARK    8  A    between atoms: C_27  and  O_28
REMARK    9  A    between atoms: O_28  and  C_29
REMARK                            x       y       z     vdW  Elec       q    Type
REMARK                         _______ _______ _______ _____ _____    ______ ____
ROOT
ATOM      1  C   UNL     1       5.823   5.194  18.040  0.00  0.00    +0.000 C 
ENDROOT
BRANCH   1   8
ATOM      2  C   UNL     1       1.493   7.061  20.363  0.00  0.00    +0.000 A 
ATOM      3  C   UNL     1       1.604   5.696  20.662  0.00  0.00    +0.000 A 
ATOM      4  C   UNL     1       2.632   4.909  20.185  0.00  0.00    +0.000 A 
ATOM      5  N   UNL     1       2.726   3.656  20.643  0.00  0.00    +0.000 NA
ATOM      6  C   UNL     1       3.785   2.919  20.268  0.00  0.00    +0.000 A 
ATOM      7  C   UNL     1       4.783   3.392  19.439  0.00  0.00    +0.000 A 
ATOM      8  C   UNL     1       4.689   4.696  18.929  0.00  0.00    +0.000 A 
ATOM      9  C   UNL     1       3.564   5.477  19.289  0.00  0.00    +0.000 A 
ATOM     10  C   UNL     1       3.335   6.792  18.844  0.00  0.00    +0.000 A 
ATOM     11  C   UNL     1       2.329   7.603  19.385  0.00  0.00    +0.000 A 
BRANCH   2  13
ATOM     12  C   UNL     1       1.141   8.766  21.965  0.00  0.00    +0.000 C 
ATOM     13  O   UNL     1       0.581   7.849  21.014  0.00  0.00    +0.000 OA
ENDBRANCH   2  13
BRANCH  11  14
ATOM     14  O   UNL     1       2.369   8.859  18.855  0.00  0.00    +0.000 OA
ATOM     15  C   UNL     1       1.352   9.290  17.971  0.00  0.00    +0.000 C 
ENDBRANCH  11  14
ENDBRANCH   1   8
BRANCH   1  16
ATOM     16  C   UNL     1       5.730   4.873  16.541  0.00  0.00    +0.000 A 
ATOM     17  C   UNL     1       4.749   3.975  16.087  0.00  0.00    +0.000 A 
ATOM     18  C   UNL     1       4.750   3.501  14.771  0.00  0.00    +0.000 A 
ATOM     19  C   UNL     1       5.719   3.876  13.861  0.00  0.00    +0.000 A 
ATOM     20  N   UNL     1       5.713   3.323  12.637  0.00  0.00    +0.000 NA
ATOM     21  C   UNL     1       6.691   3.680  11.775  0.00  0.00    +0.000 A 
ATOM     22  C   UNL     1       7.672   4.607  12.072  0.00  0.00    +0.000 A 
ATOM     23  C   UNL     1       7.663   5.185  13.337  0.00  0.00    +0.000 A 
ATOM     24  C   UNL     1       6.693   4.813  14.277  0.00  0.00    +0.000 A 
ATOM     25  C   UNL     1       6.687   5.302  15.605  0.00  0.00    +0.000 A 
ENDBRANCH   1  16
BRANCH   1  26
ATOM     26  O   UNL     1       7.082   4.718  18.561  0.00  0.00    +0.000 OA
BRANCH  26  27
ATOM     27  C   UNL     1       7.737   5.576  19.393  0.00  0.00    +0.000 C 
ATOM     28  C   UNL     1       8.052   6.857  18.682  0.00  0.00    +0.000 C 
ATOM     29  O   UNL     1       7.976   5.374  20.570  0.00  0.00    +0.000 OA
ENDBRANCH  26  27
ENDBRANCH   1  26
TORSDOF 6
ENDMDL
MODEL 3
REMARK VINA RESULT:      -7.4      0.835      1.576
REMARK  Name = 
REMARK  9 active torsions:
REMARK  status: ('A' for Active; 'I' for Inactive)
REMARK    1  A    between atoms: C_1  and  O_2
REMARK    2  A    between atoms: O_2  and  C_3
REMARK    3  A    between atoms: C_9  and  C_10
REMARK    4  A    between atoms: C_10  and  O_11
REMARK    5  A    between atoms: C_10  and  C_15
REMARK    6  A    between atoms: O_11  and  C_12
REMARK    7  A    between atoms: C_12  and  C_13
REMARK    8  A    between atoms: C_27  and  O_28
REMARK    9  A    between atoms: O_28  and  C_29
REMARK                            x       y       z     vdW  Elec       q    Type
REMARK                         _______ _______ _______ _____ _____    ______ ____
ROOT
ATOM      1  C   UNL     1       0.600   9.641  20.675  0.00  0.00    +0.000 C 
ENDROOT
BRANCH   1   8
ATOM      2  C   UNL     1       0.893  14.654  19.119  0.00  0.00    +0.000 A 
ATOM      3  C   UNL     1      -0.099  14.012  18.364  0.00  0.00    +0.000 A 
ATOM      4  C   UNL     1      -0.411  12.677  18.523  0.00  0.00    +0.000 A 
ATOM      5  N   UNL     1      -1.467  12.197  17.858  0.00  0.00    +0.000 NA
ATOM      6  C   UNL     1      -1.842  10.927  18.091  0.00  0.00    +0.000 A 
ATOM      7  C   UNL     1      -1.197  10.097  18.986  0.00  0.00    +0.000 A 
ATOM      8  C   UNL     1      -0.071  10.576  19.675  0.00  0.00    +0.000 A 
ATOM      9  C   UNL     1       0.358  11.901  19.419  0.00  0.00    +0.000 A 
ATOM     10  C   UNL     1       1.473  12.506  20.028  0.00  0.00    +0.000 A 
ATOM     11  C   UNL     1       1.739  13.876  19.912  0.00  0.00    +0.000 A 
BRANCH   2  13
ATOM     12  C   UNL     1      -0.073  16.721  18.496  0.00  0.00    +0.000 C 
ATOM     13  O   UNL     1       1.033  16.015  19.077  0.00  0.00    +0.000 OA
ENDBRANCH   2  13
BRANCH  11  14
ATOM     14  O   UNL     1       2.818  14.235  20.664  0.00  0.00    +0.000 OA
ATOM     15  C   UNL     1       2.638  14.969  21.861  0.00  0.00    +0.000 C 
ENDBRANCH  11  14
ENDBRANCH   1   8
BRANCH   1  16
ATOM     16  C   UNL     1       1.274   8.382  20.112  0.00  0.00    +0.000 A 
ATOM     17  C   UNL     1       1.274   7.199  20.872  0.00  0.00    +0.000 A 
ATOM     18  C   UNL     1       2.038   6.091  20.493  0.00  0.00    +0.000 A 
ATOM     19  C   UNL     1       2.841   6.107  19.370  0.00  0.00    +0.000 A 
ATOM     20  N   UNL     1       3.614   5.042  19.104  0.00  0.00    +0.000 NA
ATOM     21  C   UNL     1       4.417   5.095  18.018  0.00  0.00    +0.000 A 
ATOM     22  C   UNL     1       4.458   6.169  17.149  0.00  0.00    +0.000 A 
ATOM     23  C   UNL     1       3.644   7.263  17.423  0.00  0.00    +0.000 A 
ATOM     24  C   UNL     1       2.827   7.268  18.562  0.00  0.00    +0.000 A 
ATOM     25  C   UNL     1       2.046   8.386  18.937  0.00  0.00    +0.000 A 
ENDBRANCH   1  16
BRANCH   1  26
ATOM     26  O   UNL     1      -0.354   9.268  21.693  0.00  0.00    +0.000 OA
BRANCH  26  27
ATOM     27  C   UNL     1      -0.218   9.906  22.889  0.00  0.00    +0.000 C 
ATOM     28  C   UNL     1      -1.242  10.990  23.024  0.00  0.00    +0.000 C 
ATOM     29  O   UNL     1       0.573   9.603  23.765  0.00  0.00    +0.000 OA
ENDBRANCH  26  27
ENDBRANCH   1  26
TORSDOF 6
ENDMDL
MODEL 4
REMARK VINA RESULT:      -7.2      2.729      4.955
REMARK  Name = 
REMARK  9 active torsions:
REMARK  status: ('A' for Active; 'I' for Inactive)
REMARK    1  A    between atoms: C_1  and  O_2
REMARK    2  A    between atoms: O_2  and  C_3
REMARK    3  A    between atoms: C_9  and  C_10
REMARK    4  A    between atoms: C_10  and  O_11
REMARK    5  A    between atoms: C_10  and  C_15
REMARK    6  A    between atoms: O_11  and  C_12
REMARK    7  A    between atoms: C_12  and  C_13
REMARK    8  A    between atoms: C_27  and  O_28
REMARK    9  A    between atoms: O_28  and  C_29
REMARK                            x       y       z     vdW  Elec       q    Type
REMARK                         _______ _______ _______ _____ _____    ______ ____
ROOT
ATOM      1  C   UNL     1       0.676  11.550  19.117  0.00  0.00    +0.000 C 
ENDROOT
BRANCH   1   8
ATOM      2  C   UNL     1      -4.426  11.306  17.875  0.00  0.00    +0.000 A 
ATOM      3  C   UNL     1      -4.298  11.983  19.097  0.00  0.00    +0.000 A 
ATOM      4  C   UNL     1      -3.078  12.199  19.706  0.00  0.00    +0.000 A 
ATOM      5  N   UNL     1      -3.051  12.977  20.793  0.00  0.00    +0.000 NA
ATOM      6  C   UNL     1      -1.856  13.280  21.328  0.00  0.00    +0.000 A 
ATOM      7  C   UNL     1      -0.657  12.836  20.807  0.00  0.00    +0.000 A 
ATOM      8  C   UNL     1      -0.668  11.999  19.681  0.00  0.00    +0.000 A 
ATOM      9  C   UNL     1      -1.919  11.642  19.122  0.00  0.00    +0.000 A 
ATOM     10  C   UNL     1      -2.079  10.804  18.003  0.00  0.00    +0.000 A 
ATOM     11  C   UNL     1      -3.310  10.647  17.354  0.00  0.00    +0.000 A 
BRANCH   2  13
ATOM     12  C   UNL     1      -6.766  11.627  18.002  0.00  0.00    +0.000 C 
ATOM     13  O   UNL     1      -5.621  11.289  17.206  0.00  0.00    +0.000 OA
ENDBRANCH   2  13
BRANCH  11  14
ATOM     14  O   UNL     1      -3.188   9.860  16.247  0.00  0.00    +0.000 OA
ATOM     15  C   UNL     1      -3.016  10.450  14.972  0.00  0.00    +0.000 C 
ENDBRANCH  11  14
ENDBRANCH   1   8
BRANCH   1  16
ATOM     16  C   UNL     1       1.042  10.067  19.277  0.00  0.00    +0.000 A 
ATOM     17  C   UNL     1       0.813   9.427  20.507  0.00  0.00    +0.000 A 
ATOM     18  C   UNL     1       1.306   8.144  20.763  0.00  0.00    +0.000 A 
ATOM     19  C   UNL     1       2.053   7.450  19.831  0.00  0.00    +0.000 A 
ATOM     20  N   UNL     1       2.568   6.255  20.166  0.00  0.00    +0.000 NA
ATOM     21  C   UNL     1       3.323   5.610  19.250  0.00  0.00    +0.000 A 
ATOM     22  C   UNL     1       3.563   6.096  17.978  0.00  0.00    +0.000 A 
ATOM     23  C   UNL     1       3.016   7.327  17.634  0.00  0.00    +0.000 A 
ATOM     24  C   UNL     1       2.261   8.050  18.568  0.00  0.00    +0.000 A 
ATOM     25  C   UNL     1       1.753   9.344  18.303  0.00  0.00    +0.000 A 
ENDBRANCH   1  16
BRANCH   1  26
ATOM     26  O   UNL     1       1.725  12.370  19.673  0.00  0.00    +0.000 OA
BRANCH  26  27
ATOM     27  C   UNL     1       2.452  13.088  18.771  0.00  0.00    +0.000 C 
ATOM     28  C   UNL     1       2.398  14.549  19.097  0.00  0.00    +0.000 C 
ATOM     29  O   UNL     1       3.116  12.617  17.864  0.00  0.00    +0.000 OA
ENDBRANCH  26  27
ENDBRANCH   1  26
TORSDOF 6
ENDMDL
MODEL 5
REMARK VINA RESULT:      -7.1      3.014      5.140
REMARK  Name = 
REMARK  9 active torsions:
REMARK  status: ('A' for Active; 'I' for Inactive)
REMARK    1  A    between atoms: C_1  and  O_2
REMARK    2  A    between atoms: O_2  and  C_3
REMARK    3  A    between atoms: C_9  and  C_10
REMARK    4  A    between atoms: C_10  and  O_11
REMARK    5  A    between atoms: C_10  and  C_15
REMARK    6  A    between atoms: O_11  and  C_12
REMARK    7  A    between atoms: C_12  and  C_13
REMARK    8  A    between atoms: C_27  and  O_28
REMARK    9  A    between atoms: O_28  and  C_29
REMARK                            x       y       z     vdW  Elec       q    Type
REMARK                         _______ _______ _______ _____ _____    ______ ____
ROOT
ATOM      1  C   UNL     1      -0.099  11.956  19.264  0.00  0.00    +0.000 C 
ENDROOT
BRANCH   1   8
ATOM      2  C   UNL     1      -5.221  11.980  18.081  0.00  0.00    +0.000 A 
ATOM      3  C   UNL     1      -5.071  12.383  19.416  0.00  0.00    +0.000 A 
ATOM      4  C   UNL     1      -3.841  12.465  20.037  0.00  0.00    +0.000 A 
ATOM      5  N   UNL     1      -3.794  12.996  21.264  0.00  0.00    +0.000 NA
ATOM      6  C   UNL     1      -2.589  13.180  21.831  0.00  0.00    +0.000 A 
ATOM      7  C   UNL     1      -1.400  12.855  21.209  0.00  0.00    +0.000 A 
ATOM      8  C   UNL     1      -1.432  12.275  19.932  0.00  0.00    +0.000 A 
ATOM      9  C   UNL     1      -2.693  12.045  19.331  0.00  0.00    +0.000 A 
ATOM     10  C   UNL     1      -2.874  11.462  18.062  0.00  0.00    +0.000 A 
ATOM     11  C   UNL     1      -4.116  11.446  17.415  0.00  0.00    +0.000 A 
BRANCH   2  13
ATOM     12  C   UNL     1      -6.751  13.435  17.016  0.00  0.00    +0.000 C 
ATOM     13  O   UNL     1      -6.426  12.105  17.443  0.00  0.00    +0.000 OA
ENDBRANCH   2  13
BRANCH  11  14
ATOM     14  O   UNL     1      -4.014  10.911  16.165  0.00  0.00    +0.000 OA
ATOM     15  C   UNL     1      -2.742  10.717  15.576  0.00  0.00    +0.000 C 
ENDBRANCH  11  14
ENDBRANCH   1   8
BRANCH   1  16
ATOM     16  C   UNL     1       0.408  10.510  19.370  0.00  0.00    +0.000 A 
ATOM     17  C   UNL     1       0.226   9.800  20.569  0.00  0.00    +0.000 A 
ATOM     18  C   UNL     1       0.838   8.561  20.781  0.00  0.00    +0.000 A 
ATOM     19  C   UNL     1       1.663   7.983  19.836  0.00  0.00    +0.000 A 
ATOM     20  N   UNL     1       2.287   6.831  20.131  0.00  0.00    +0.000 NA
ATOM     21  C   UNL     1       3.116   6.302  19.203  0.00  0.00    +0.000 A 
ATOM     22  C   UNL     1       3.325   6.862  17.957  0.00  0.00    +0.000 A 
ATOM     23  C   UNL     1       2.665   8.047  17.654  0.00  0.00    +0.000 A 
ATOM     24  C   UNL     1       1.829   8.653  18.602  0.00  0.00    +0.000 A 
ATOM     25  C   UNL     1       1.201   9.902  18.381  0.00  0.00    +0.000 A 
ENDBRANCH   1  16
BRANCH   1  26
ATOM     26  O   UNL     1       0.911  12.861  19.757  0.00  0.00    +0.000 OA
BRANCH  26  27
ATOM     27  C   UNL     1       1.301  13.837  18.890  0.00  0.00    +0.000 C 
ATOM     28  C   UNL     1       2.508  13.398  18.117  0.00  0.00    +0.000 C 
ATOM     29  O   UNL     1       0.721  14.892  18.706  0.00  0.00    +0.000 OA
ENDBRANCH  26  27
ENDBRANCH   1  26
TORSDOF 6
ENDMDL
MODEL 6
REMARK VINA RESULT:      -7.1      5.021      9.106
REMARK  Name = 
REMARK  9 active torsions:
REMARK  status: ('A' for Active; 'I' for Inactive)
REMARK    1  A    between atoms: C_1  and  O_2
REMARK    2  A    between atoms: O_2  and  C_3
REMARK    3  A    between atoms: C_9  and  C_10
REMARK    4  A    between atoms: C_10  and  O_11
REMARK    5  A    between atoms: C_10  and  C_15
REMARK    6  A    between atoms: O_11  and  C_12
REMARK    7  A    between atoms: C_12  and  C_13
REMARK    8  A    between atoms: C_27  and  O_28
REMARK    9  A    between atoms: O_28  and  C_29
REMARK                            x       y       z     vdW  Elec       q    Type
REMARK                         _______ _______ _______ _____ _____    ______ ____
ROOT
ATOM      1  C   UNL     1       3.540   5.007  18.515  0.00  0.00    +0.000 C 
ENDROOT
BRANCH   1   8
ATOM      2  C   UNL     1       6.915   4.646  14.501  0.00  0.00    +0.000 A 
ATOM      3  C   UNL     1       7.622   5.057  15.640  0.00  0.00    +0.000 A 
ATOM      4  C   UNL     1       7.014   5.262  16.862  0.00  0.00    +0.000 A 
ATOM      5  N   UNL     1       7.797   5.514  17.916  0.00  0.00    +0.000 NA
ATOM      6  C   UNL     1       7.222   5.605  19.128  0.00  0.00    +0.000 A 
ATOM      7  C   UNL     1       5.868   5.446  19.339  0.00  0.00    +0.000 A 
ATOM      8  C   UNL     1       5.027   5.205  18.241  0.00  0.00    +0.000 A 
ATOM      9  C   UNL     1       5.610   5.136  16.953  0.00  0.00    +0.000 A 
ATOM     10  C   UNL     1       4.889   4.912  15.765  0.00  0.00    +0.000 A 
ATOM     11  C   UNL     1       5.519   4.640  14.544  0.00  0.00    +0.000 A 
BRANCH   2  13
ATOM     12  C   UNL     1       8.076   5.337  12.560  0.00  0.00    +0.000 C 
ATOM     13  O   UNL     1       7.579   4.260  13.366  0.00  0.00    +0.000 OA
ENDBRANCH   2  13
BRANCH  11  14
ATOM     14  O   UNL     1       4.608   4.368  13.567  0.00  0.00    +0.000 OA
ATOM     15  C   UNL     1       4.926   3.458  12.532  0.00  0.00    +0.000 C 
ENDBRANCH  11  14
ENDBRANCH   1   8
BRANCH   1  16
ATOM     16  C   UNL     1       2.701   6.268  18.768  0.00  0.00    +0.000 A 
ATOM     17  C   UNL     1       2.568   7.226  17.748  0.00  0.00    +0.000 A 
ATOM     18  C   UNL     1       1.984   8.472  17.993  0.00  0.00    +0.000 A 
ATOM     19  C   UNL     1       1.526   8.831  19.246  0.00  0.00    +0.000 A 
ATOM     20  N   UNL     1       1.050  10.072  19.437  0.00  0.00    +0.000 NA
ATOM     21  C   UNL     1       0.640  10.411  20.679  0.00  0.00    +0.000 A 
ATOM     22  C   UNL     1       0.649   9.539  21.752  0.00  0.00    +0.000 A 
ATOM     23  C   UNL     1       1.131   8.252  21.543  0.00  0.00    +0.000 A 
ATOM     24  C   UNL     1       1.606   7.871  20.281  0.00  0.00    +0.000 A 
ATOM     25  C   UNL     1       2.187   6.605  20.032  0.00  0.00    +0.000 A 
ENDBRANCH   1  16
BRANCH   1  26
ATOM     26  O   UNL     1       3.377   4.086  19.615  0.00  0.00    +0.000 OA
BRANCH  26  27
ATOM     27  C   UNL     1       3.496   2.766  19.300  0.00  0.00    +0.000 C 
ATOM     28  C   UNL     1       2.629   2.427  18.126  0.00  0.00    +0.000 C 
ATOM     29  O   UNL     1       4.249   1.976  19.841  0.00  0.00    +0.000 OA
ENDBRANCH  26  27
ENDBRANCH   1  26
TORSDOF 6
ENDMDL
MODEL 7
REMARK VINA RESULT:      -6.9      5.780      9.937
REMARK  Name = 
REMARK  9 active torsions:
REMARK  status: ('A' for Active; 'I' for Inactive)
REMARK    1  A    between atoms: C_1  and  O_2
REMARK    2  A    between atoms: O_2  and  C_3
REMARK    3  A    between atoms: C_9  and  C_10
REMARK    4  A    between atoms: C_10  and  O_11
REMARK    5  A    between atoms: C_10  and  C_15
REMARK    6  A    between atoms: O_11  and  C_12
REMARK    7  A    between atoms: C_12  and  C_13
REMARK    8  A    between atoms: C_27  and  O_28
REMARK    9  A    between atoms: O_28  and  C_29
REMARK                            x       y       z     vdW  Elec       q    Type
REMARK                         _______ _______ _______ _____ _____    ______ ____
ROOT
ATOM      1  C   UNL     1       3.988   4.921  17.050  0.00  0.00    +0.000 C 
ENDROOT
BRANCH   1   8
ATOM      2  C   UNL     1       6.595   3.912  12.598  0.00  0.00    +0.000 A 
ATOM      3  C   UNL     1       7.402   4.720  13.412  0.00  0.00    +0.000 A 
ATOM      4  C   UNL     1       6.995   5.174  14.650  0.00  0.00    +0.000 A 
ATOM      5  N   UNL     1       7.891   5.817  15.407  0.00  0.00    +0.000 NA
ATOM      6  C   UNL     1       7.535   6.166  16.655  0.00  0.00    +0.000 A 
ATOM      7  C   UNL     1       6.296   5.888  17.197  0.00  0.00    +0.000 A 
ATOM      8  C   UNL     1       5.335   5.236  16.409  0.00  0.00    +0.000 A 
ATOM      9  C   UNL     1       5.681   4.888  15.081  0.00  0.00    +0.000 A 
ATOM     10  C   UNL     1       4.815   4.243  14.179  0.00  0.00    +0.000 A 
ATOM     11  C   UNL     1       5.257   3.727  12.953  0.00  0.00    +0.000 A 
BRANCH   2  13
ATOM     12  C   UNL     1       7.095   1.883  11.490  0.00  0.00    +0.000 C 
ATOM     13  O   UNL     1       7.106   3.318  11.475  0.00  0.00    +0.000 OA
ENDBRANCH   2  13
BRANCH  11  14
ATOM     14  O   UNL     1       4.255   3.070  12.303  0.00  0.00    +0.000 OA
ATOM     15  C   UNL     1       3.814   3.520  11.036  0.00  0.00    +0.000 C 
ENDBRANCH  11  14
ENDBRANCH   1   8
BRANCH   1  16
ATOM     16  C   UNL     1       3.401   5.975  17.999  0.00  0.00    +0.000 A 
ATOM     17  C   UNL     1       3.102   5.621  19.326  0.00  0.00    +0.000 A 
ATOM     18  C   UNL     1       2.390   6.481  20.166  0.00  0.00    +0.000 A 
ATOM     19  C   UNL     1       1.930   7.710  19.733  0.00  0.00    +0.000 A 
ATOM     20  N   UNL     1       1.182   8.456  20.561  0.00  0.00    +0.000 NA
ATOM     21  C   UNL     1       0.715   9.639  20.104  0.00  0.00    +0.000 A 
ATOM     22  C   UNL     1       0.997  10.137  18.845  0.00  0.00    +0.000 A 
ATOM     23  C   UNL     1       1.784   9.364  17.998  0.00  0.00    +0.000 A 
ATOM     24  C   UNL     1       2.254   8.112  18.417  0.00  0.00    +0.000 A 
ATOM     25  C   UNL     1       2.985   7.247  17.569  0.00  0.00    +0.000 A 
ENDBRANCH   1  16
BRANCH   1  26
ATOM     26  O   UNL     1       4.067   3.648  17.727  0.00  0.00    +0.000 OA
BRANCH  26  27
ATOM     27  C   UNL     1       2.981   2.837  17.585  0.00  0.00    +0.000 C 
ATOM     28  C   UNL     1       3.036   1.711  18.571  0.00  0.00    +0.000 C 
ATOM     29  O   UNL     1       2.053   3.027  16.819  0.00  0.00    +0.000 OA
ENDBRANCH  26  27
ENDBRANCH   1  26
TORSDOF 6
ENDMDL
MODEL 8
REMARK VINA RESULT:      -6.9      2.977      5.022
REMARK  Name = 
REMARK  9 active torsions:
REMARK  status: ('A' for Active; 'I' for Inactive)
REMARK    1  A    between atoms: C_1  and  O_2
REMARK    2  A    between atoms: O_2  and  C_3
REMARK    3  A    between atoms: C_9  and  C_10
REMARK    4  A    between atoms: C_10  and  O_11
REMARK    5  A    between atoms: C_10  and  C_15
REMARK    6  A    between atoms: O_11  and  C_12
REMARK    7  A    between atoms: C_12  and  C_13
REMARK    8  A    between atoms: C_27  and  O_28
REMARK    9  A    between atoms: O_28  and  C_29
REMARK                            x       y       z     vdW  Elec       q    Type
REMARK                         _______ _______ _______ _____ _____    ______ ____
ROOT
ATOM      1  C   UNL     1       0.037  12.339  20.835  0.00  0.00    +0.000 C 
ENDROOT
BRANCH   1   8
ATOM      2  C   UNL     1      -5.009  12.447  19.365  0.00  0.00    +0.000 A 
ATOM      3  C   UNL     1      -4.942  12.707  20.742  0.00  0.00    +0.000 A 
ATOM      4  C   UNL     1      -3.750  12.733  21.439  0.00  0.00    +0.000 A 
ATOM      5  N   UNL     1      -3.781  13.130  22.715  0.00  0.00    +0.000 NA
ATOM      6  C   UNL     1      -2.613  13.263  23.368  0.00  0.00    +0.000 A 
ATOM      7  C   UNL     1      -1.386  13.016  22.786  0.00  0.00    +0.000 A 
ATOM      8  C   UNL     1      -1.336  12.575  21.454  0.00  0.00    +0.000 A 
ATOM      9  C   UNL     1      -2.558  12.399  20.760  0.00  0.00    +0.000 A 
ATOM     10  C   UNL     1      -2.657  11.954  19.429  0.00  0.00    +0.000 A 
ATOM     11  C   UNL     1      -3.860  11.995  18.712  0.00  0.00    +0.000 A 
BRANCH   2  13
ATOM     12  C   UNL     1      -7.066  11.503  18.681  0.00  0.00    +0.000 C 
ATOM     13  O   UNL     1      -6.177  12.629  18.675  0.00  0.00    +0.000 OA
ENDBRANCH   2  13
BRANCH  11  14
ATOM     14  O   UNL     1      -3.679  11.598  17.420  0.00  0.00    +0.000 OA
ATOM     15  C   UNL     1      -2.407  11.156  16.984  0.00  0.00    +0.000 C 
ENDBRANCH  11  14
ENDBRANCH   1   8
BRANCH   1  16
ATOM     16  C   UNL     1       0.436  10.884  20.552  0.00  0.00    +0.000 A 
ATOM     17  C   UNL     1       0.498   9.965  21.613  0.00  0.00    +0.000 A 
ATOM     18  C   UNL     1       1.042   8.689  21.440  0.00  0.00    +0.000 A 
ATOM     19  C   UNL     1       1.559   8.274  20.228  0.00  0.00    +0.000 A 
ATOM     20  N   UNL     1       2.142   7.067  20.146  0.00  0.00    +0.000 NA
ATOM     21  C   UNL     1       2.672   6.697  18.959  0.00  0.00    +0.000 A 
ATOM     22  C   UNL     1       2.613   7.477  17.819  0.00  0.00    +0.000 A 
ATOM     23  C   UNL     1       1.996   8.720  17.909  0.00  0.00    +0.000 A 
ATOM     24  C   UNL     1       1.471   9.161  19.131  0.00  0.00    +0.000 A 
ATOM     25  C   UNL     1       0.910  10.449  19.302  0.00  0.00    +0.000 A 
ENDBRANCH   1  16
BRANCH   1  26
ATOM     26  O   UNL     1       1.045  12.968  21.657  0.00  0.00    +0.000 OA
BRANCH  26  27
ATOM     27  C   UNL     1       2.059  13.577  20.981  0.00  0.00    +0.000 C 
ATOM     28  C   UNL     1       1.525  14.323  19.797  0.00  0.00    +0.000 C 
ATOM     29  O   UNL     1       3.229  13.584  21.319  0.00  0.00    +0.000 OA
ENDBRANCH  26  27
ENDBRANCH   1  26
TORSDOF 6
ENDMDL
MODEL 9
REMARK VINA RESULT:      -6.8      3.187      5.171
REMARK  Name = 
REMARK  9 active torsions:
REMARK  status: ('A' for Active; 'I' for Inactive)
REMARK    1  A    between atoms: C_1  and  O_2
REMARK    2  A    between atoms: O_2  and  C_3
REMARK    3  A    between atoms: C_9  and  C_10
REMARK    4  A    between atoms: C_10  and  O_11
REMARK    5  A    between atoms: C_10  and  C_15
REMARK    6  A    between atoms: O_11  and  C_12
REMARK    7  A    between atoms: C_12  and  C_13
REMARK    8  A    between atoms: C_27  and  O_28
REMARK    9  A    between atoms: O_28  and  C_29
REMARK                            x       y       z     vdW  Elec       q    Type
REMARK                         _______ _______ _______ _____ _____    ______ ____
ROOT
ATOM      1  C   UNL     1      -1.119  11.380  20.129  0.00  0.00    +0.000 C 
ENDROOT
BRANCH   1   8
ATOM      2  C   UNL     1      -2.664  14.156  24.317  0.00  0.00    +0.000 A 
ATOM      3  C   UNL     1      -1.363  14.554  23.976  0.00  0.00    +0.000 A 
ATOM      4  C   UNL     1      -0.665  13.998  22.923  0.00  0.00    +0.000 A 
ATOM      5  N   UNL     1       0.510  14.545  22.593  0.00  0.00    +0.000 NA
ATOM      6  C   UNL     1       1.143  14.080  21.502  0.00  0.00    +0.000 A 
ATOM      7  C   UNL     1       0.640  13.072  20.704  0.00  0.00    +0.000 A 
ATOM      8  C   UNL     1      -0.580  12.470  21.049  0.00  0.00    +0.000 A 
ATOM      9  C   UNL     1      -1.247  12.925  22.212  0.00  0.00    +0.000 A 
ATOM     10  C   UNL     1      -2.468  12.406  22.682  0.00  0.00    +0.000 A 
ATOM     11  C   UNL     1      -3.199  13.019  23.707  0.00  0.00    +0.000 A 
BRANCH   2  13
ATOM     12  C   UNL     1      -3.756  16.192  24.822  0.00  0.00    +0.000 C 
ATOM     13  O   UNL     1      -3.395  14.866  25.232  0.00  0.00    +0.000 OA
ENDBRANCH   2  13
BRANCH  11  14
ATOM     14  O   UNL     1      -4.386  12.382  23.917  0.00  0.00    +0.000 OA
ATOM     15  C   UNL     1      -5.595  12.970  23.476  0.00  0.00    +0.000 C 
ENDBRANCH  11  14
ENDBRANCH   1   8
BRANCH   1  16
ATOM     16  C   UNL     1      -0.265  10.113  19.970  0.00  0.00    +0.000 A 
ATOM     17  C   UNL     1      -0.095   9.252  21.067  0.00  0.00    +0.000 A 
ATOM     18  C   UNL     1       0.825   8.200  21.030  0.00  0.00    +0.000 A 
ATOM     19  C   UNL     1       1.622   7.965  19.927  0.00  0.00    +0.000 A 
ATOM     20  N   UNL     1       2.544   6.990  19.982  0.00  0.00    +0.000 NA
ATOM     21  C   UNL     1       3.335   6.801  18.903  0.00  0.00    +0.000 A 
ATOM     22  C   UNL     1       3.220   7.531  17.734  0.00  0.00    +0.000 A 
ATOM     23  C   UNL     1       2.254   8.530  17.679  0.00  0.00    +0.000 A 
ATOM     24  C   UNL     1       1.441   8.788  18.791  0.00  0.00    +0.000 A 
ATOM     25  C   UNL     1       0.502   9.846  18.823  0.00  0.00    +0.000 A 
ENDBRANCH   1  16
BRANCH   1  26
ATOM     26  O   UNL     1      -1.395  11.945  18.830  0.00  0.00    +0.000 OA
BRANCH  26  27
ATOM     27  C   UNL     1      -2.646  11.716  18.342  0.00  0.00    +0.000 C 
ATOM     28  C   UNL     1      -2.571  11.080  16.987  0.00  0.00    +0.000 C 
ATOM     29  O   UNL     1      -3.687  11.926  18.939  0.00  0.00    +0.000 OA
ENDBRANCH  26  27
ENDBRANCH   1  26
TORSDOF 6
ENDMDL
