MODEL 1
REMARK VINA RESULT:      -8.3      0.000      0.000
REMARK  Name = 
REMARK  2 active torsions:
REMARK  status: ('A' for Active; 'I' for Inactive)
REMARK    1  A    between atoms: C_8  and  C_9
REMARK    2  A    between atoms: C_12  and  C_13
REMARK                            x       y       z     vdW  Elec       q    Type
REMARK                         _______ _______ _______ _____ _____    ______ ____
ROOT
ATOM      1  C   UNL     1       4.625   4.102  18.370  0.00  0.00    +0.000 A 
ATOM      2  N   UNL     1       5.795   4.315  18.989  0.00  0.00    +0.000 NA
ATOM      3  O   UNL     1       6.698   4.505  17.944  0.00  0.00    +0.000 OA
ATOM      4  C   UNL     1       5.981   4.431  16.782  0.00  0.00    +0.000 A 
ATOM      5  N   UNL     1       4.710   4.162  16.996  0.00  0.00    +0.000 NA
ENDROOT
BRANCH   1  13
ATOM      6 CL   UNL     1       3.042   6.561  19.508  0.00  0.00    +0.000 Cl
ATOM      7  C   UNL     1       2.583   4.891  19.585  0.00  0.00    +0.000 A 
ATOM      8  C   UNL     1       1.379   4.625  20.256  0.00  0.00    +0.000 A 
ATOM      9  C   UNL     1       0.934   3.321  20.428  0.00  0.00    +0.000 A 
ATOM     10  C   UNL     1       1.690   2.273  19.916  0.00  0.00    +0.000 A 
ATOM     11  C   UNL     1       2.889   2.526  19.232  0.00  0.00    +0.000 A 
ATOM     12 CL   UNL     1       3.699   1.129  18.594  0.00  0.00    +0.000 Cl
ATOM     13  C   UNL     1       3.363   3.843  19.057  0.00  0.00    +0.000 A 
ENDBRANCH   1  13
BRANCH   4  14
ATOM     14  C   UNL     1       6.545   4.643  15.488  0.00  0.00    +0.000 A 
ATOM     15  C   UNL     1       6.208   4.047  14.290  0.00  0.00    +0.000 A 
ATOM     16  C   UNL     1       7.070   4.627  13.347  0.00  0.00    +0.000 A 
ATOM     17  N   UNL     1       7.886   5.521  13.902  0.00  0.00    +0.000 NA
ATOM     18  O   UNL     1       7.552   5.536  15.247  0.00  0.00    +0.000 OA
ENDBRANCH   4  14
TORSDOF 2
ENDMDL
MODEL 2
REMARK VINA RESULT:      -8.3      0.046      2.169
REMARK  Name = 
REMARK  2 active torsions:
REMARK  status: ('A' for Active; 'I' for Inactive)
REMARK    1  A    between atoms: C_8  and  C_9
REMARK    2  A    between atoms: C_12  and  C_13
REMARK                            x       y       z     vdW  Elec       q    Type
REMARK                         _______ _______ _______ _____ _____    ______ ____
ROOT
ATOM      1  C   UNL     1       4.654   4.063  18.372  0.00  0.00    +0.000 A 
ATOM      2  N   UNL     1       5.825   4.286  18.986  0.00  0.00    +0.000 NA
ATOM      3  O   UNL     1       6.721   4.486  17.937  0.00  0.00    +0.000 OA
ATOM      4  C   UNL     1       6.000   4.408  16.778  0.00  0.00    +0.000 A 
ATOM      5  N   UNL     1       4.732   4.127  16.997  0.00  0.00    +0.000 NA
ENDROOT
BRANCH   1  13
ATOM      6 CL   UNL     1       3.729   1.073  18.618  0.00  0.00    +0.000 Cl
ATOM      7  C   UNL     1       2.917   2.478  19.231  0.00  0.00    +0.000 A 
ATOM      8  C   UNL     1       1.700   2.234  19.886  0.00  0.00    +0.000 A 
ATOM      9  C   UNL     1       0.932   3.283  20.375  0.00  0.00    +0.000 A 
ATOM     10  C   UNL     1       1.388   4.587  20.218  0.00  0.00    +0.000 A 
ATOM     11  C   UNL     1       2.609   4.843  19.576  0.00  0.00    +0.000 A 
ATOM     12 CL   UNL     1       3.085   6.512  19.504  0.00  0.00    +0.000 Cl
ATOM     13  C   UNL     1       3.398   3.791  19.064  0.00  0.00    +0.000 A 
ENDBRANCH   1  13
BRANCH   4  14
ATOM     14  C   UNL     1       6.556   4.627  15.483  0.00  0.00    +0.000 A 
ATOM     15  C   UNL     1       6.220   4.030  14.284  0.00  0.00    +0.000 A 
ATOM     16  C   UNL     1       7.072   4.620  13.339  0.00  0.00    +0.000 A 
ATOM     17  N   UNL     1       7.882   5.522  13.893  0.00  0.00    +0.000 NA
ATOM     18  O   UNL     1       7.553   5.531  15.239  0.00  0.00    +0.000 OA
ENDBRANCH   4  14
TORSDOF 2
ENDMDL
MODEL 3
REMARK VINA RESULT:      -7.1      0.986      1.006
REMARK  Name = 
REMARK  2 active torsions:
REMARK  status: ('A' for Active; 'I' for Inactive)
REMARK    1  A    between atoms: C_8  and  C_9
REMARK    2  A    between atoms: C_12  and  C_13
REMARK                            x       y       z     vdW  Elec       q    Type
REMARK                         _______ _______ _______ _____ _____    ______ ____
ROOT
ATOM      1  C   UNL     1       4.591   4.020  18.100  0.00  0.00    +0.000 A 
ATOM      2  N   UNL     1       5.798   4.296  18.615  0.00  0.00    +0.000 NA
ATOM      3  O   UNL     1       6.625   4.396  17.498  0.00  0.00    +0.000 OA
ATOM      4  C   UNL     1       5.832   4.213  16.399  0.00  0.00    +0.000 A 
ATOM      5  N   UNL     1       4.582   3.957  16.723  0.00  0.00    +0.000 NA
ENDROOT
BRANCH   1  13
ATOM      6 CL   UNL     1       3.112   6.561  19.199  0.00  0.00    +0.000 Cl
ATOM      7  C   UNL     1       2.650   4.904  19.412  0.00  0.00    +0.000 A 
ATOM      8  C   UNL     1       1.498   4.692  20.184  0.00  0.00    +0.000 A 
ATOM      9  C   UNL     1       1.058   3.405  20.468  0.00  0.00    +0.000 A 
ATOM     10  C   UNL     1       1.767   2.320  19.966  0.00  0.00    +0.000 A 
ATOM     11  C   UNL     1       2.913   2.519  19.182  0.00  0.00    +0.000 A 
ATOM     12 CL   UNL     1       3.665   1.077  18.572  0.00  0.00    +0.000 Cl
ATOM     13  C   UNL     1       3.382   3.818  18.892  0.00  0.00    +0.000 A 
ENDBRANCH   1  13
BRANCH   4  14
ATOM     14  C   UNL     1       6.304   4.310  15.056  0.00  0.00    +0.000 A 
ATOM     15  C   UNL     1       7.255   5.164  14.533  0.00  0.00    +0.000 A 
ATOM     16  C   UNL     1       7.333   4.824  13.175  0.00  0.00    +0.000 A 
ATOM     17  N   UNL     1       6.500   3.833  12.861  0.00  0.00    +0.000 NA
ATOM     18  O   UNL     1       5.858   3.505  14.045  0.00  0.00    +0.000 OA
ENDBRANCH   4  14
TORSDOF 2
ENDMDL
MODEL 4
REMARK VINA RESULT:      -7.1      1.263      2.323
REMARK  Name = 
REMARK  2 active torsions:
REMARK  status: ('A' for Active; 'I' for Inactive)
REMARK    1  A    between atoms: C_8  and  C_9
REMARK    2  A    between atoms: C_12  and  C_13
REMARK                            x       y       z     vdW  Elec       q    Type
REMARK                         _______ _______ _______ _____ _____    ______ ____
ROOT
ATOM      1  C   UNL     1       4.727   4.123  18.728  0.00  0.00    +0.000 A 
ATOM      2  N   UNL     1       5.921   4.555  19.159  0.00  0.00    +0.000 NA
ATOM      3  O   UNL     1       6.684   4.648  17.996  0.00  0.00    +0.000 OA
ATOM      4  C   UNL     1       5.866   4.303  16.956  0.00  0.00    +0.000 A 
ATOM      5  N   UNL     1       4.664   3.952  17.362  0.00  0.00    +0.000 NA
ENDROOT
BRANCH   1  13
ATOM      6 CL   UNL     1       4.828   1.593  20.583  0.00  0.00    +0.000 Cl
ATOM      7  C   UNL     1       3.550   2.760  20.468  0.00  0.00    +0.000 A 
ATOM      8  C   UNL     1       2.436   2.518  21.285  0.00  0.00    +0.000 A 
ATOM      9  C   UNL     1       1.327   3.354  21.242  0.00  0.00    +0.000 A 
ATOM     10  C   UNL     1       1.337   4.449  20.386  0.00  0.00    +0.000 A 
ATOM     11  C   UNL     1       2.450   4.710  19.574  0.00  0.00    +0.000 A 
ATOM     12 CL   UNL     1       2.351   6.143  18.598  0.00  0.00    +0.000 Cl
ATOM     13  C   UNL     1       3.581   3.865  19.594  0.00  0.00    +0.000 A 
ENDBRANCH   1  13
BRANCH   4  14
ATOM     14  C   UNL     1       6.267   4.341  15.587  0.00  0.00    +0.000 A 
ATOM     15  C   UNL     1       7.248   5.109  14.994  0.00  0.00    +0.000 A 
ATOM     16  C   UNL     1       7.222   4.743  13.641  0.00  0.00    +0.000 A 
ATOM     17  N   UNL     1       6.299   3.813  13.395  0.00  0.00    +0.000 NA
ATOM     18  O   UNL     1       5.703   3.556  14.620  0.00  0.00    +0.000 OA
ENDBRANCH   4  14
TORSDOF 2
ENDMDL
MODEL 5
REMARK VINA RESULT:      -6.9      1.783      1.981
REMARK  Name = 
REMARK  2 active torsions:
REMARK  status: ('A' for Active; 'I' for Inactive)
REMARK    1  A    between atoms: C_8  and  C_9
REMARK    2  A    between atoms: C_12  and  C_13
REMARK                            x       y       z     vdW  Elec       q    Type
REMARK                         _______ _______ _______ _____ _____    ______ ____
ROOT
ATOM      1  C   UNL     1       4.997   5.745  17.552  0.00  0.00    +0.000 A 
ATOM      2  N   UNL     1       6.110   6.485  17.662  0.00  0.00    +0.000 NA
ATOM      3  O   UNL     1       6.822   6.196  16.500  0.00  0.00    +0.000 OA
ATOM      4  C   UNL     1       6.052   5.335  15.767  0.00  0.00    +0.000 A 
ATOM      5  N   UNL     1       4.935   5.015  16.386  0.00  0.00    +0.000 NA
ENDROOT
BRANCH   1  13
ATOM      6 CL   UNL     1       3.029   8.187  17.685  0.00  0.00    +0.000 Cl
ATOM      7  C   UNL     1       2.994   6.756  18.664  0.00  0.00    +0.000 A 
ATOM      8  C   UNL     1       1.982   6.713  19.635  0.00  0.00    +0.000 A 
ATOM      9  C   UNL     1       1.884   5.642  20.514  0.00  0.00    +0.000 A 
ATOM     10  C   UNL     1       2.798   4.599  20.416  0.00  0.00    +0.000 A 
ATOM     11  C   UNL     1       3.807   4.624  19.441  0.00  0.00    +0.000 A 
ATOM     12 CL   UNL     1       4.840   3.229  19.392  0.00  0.00    +0.000 Cl
ATOM     13  C   UNL     1       3.929   5.709  18.546  0.00  0.00    +0.000 A 
ENDBRANCH   1  13
BRANCH   4  14
ATOM     14  C   UNL     1       6.412   4.858  14.471  0.00  0.00    +0.000 A 
ATOM     15  C   UNL     1       5.849   3.830  13.740  0.00  0.00    +0.000 A 
ATOM     16  C   UNL     1       6.582   3.798  12.545  0.00  0.00    +0.000 A 
ATOM     17  N   UNL     1       7.532   4.733  12.517  0.00  0.00    +0.000 NA
ATOM     18  O   UNL     1       7.420   5.403  13.726  0.00  0.00    +0.000 OA
ENDBRANCH   4  14
TORSDOF 2
ENDMDL
MODEL 6
REMARK VINA RESULT:      -6.8      1.872      2.885
REMARK  Name = 
REMARK  2 active torsions:
REMARK  status: ('A' for Active; 'I' for Inactive)
REMARK    1  A    between atoms: C_8  and  C_9
REMARK    2  A    between atoms: C_12  and  C_13
REMARK                            x       y       z     vdW  Elec       q    Type
REMARK                         _______ _______ _______ _____ _____    ______ ____
ROOT
ATOM      1  C   UNL     1       4.806   5.930  17.524  0.00  0.00    +0.000 A 
ATOM      2  N   UNL     1       5.755   6.876  17.468  0.00  0.00    +0.000 NA
ATOM      3  O   UNL     1       6.467   6.569  16.310  0.00  0.00    +0.000 OA
ATOM      4  C   UNL     1       5.856   5.485  15.744  0.00  0.00    +0.000 A 
ATOM      5  N   UNL     1       4.848   5.046  16.467  0.00  0.00    +0.000 NA
ENDROOT
BRANCH   1  13
ATOM      6 CL   UNL     1       4.875   3.397  19.376  0.00  0.00    +0.000 Cl
ATOM      7  C   UNL     1       3.772   4.733  19.464  0.00  0.00    +0.000 A 
ATOM      8  C   UNL     1       2.793   4.642  20.465  0.00  0.00    +0.000 A 
ATOM      9  C   UNL     1       1.821   5.626  20.600  0.00  0.00    +0.000 A 
ATOM     10  C   UNL     1       1.834   6.715  19.737  0.00  0.00    +0.000 A 
ATOM     11  C   UNL     1       2.815   6.823  18.740  0.00  0.00    +0.000 A 
ATOM     12 CL   UNL     1       2.748   8.264  17.772  0.00  0.00    +0.000 Cl
ATOM     13  C   UNL     1       3.804   5.829  18.580  0.00  0.00    +0.000 A 
ENDBRANCH   1  13
BRANCH   4  14
ATOM     14  C   UNL     1       6.256   4.910  14.500  0.00  0.00    +0.000 A 
ATOM     15  C   UNL     1       5.673   3.872  13.800  0.00  0.00    +0.000 A 
ATOM     16  C   UNL     1       6.465   3.727  12.652  0.00  0.00    +0.000 A 
ATOM     17  N   UNL     1       7.468   4.604  12.623  0.00  0.00    +0.000 NA
ATOM     18  O   UNL     1       7.332   5.352  13.783  0.00  0.00    +0.000 OA
ENDBRANCH   4  14
TORSDOF 2
ENDMDL
MODEL 7
REMARK VINA RESULT:      -6.7      1.543      1.813
REMARK  Name = 
REMARK  2 active torsions:
REMARK  status: ('A' for Active; 'I' for Inactive)
REMARK    1  A    between atoms: C_8  and  C_9
REMARK    2  A    between atoms: C_12  and  C_13
REMARK                            x       y       z     vdW  Elec       q    Type
REMARK                         _______ _______ _______ _____ _____    ______ ____
ROOT
ATOM      1  C   UNL     1       5.125   4.681  17.674  0.00  0.00    +0.000 A 
ATOM      2  N   UNL     1       6.422   4.621  18.009  0.00  0.00    +0.000 NA
ATOM      3  O   UNL     1       7.072   4.397  16.797  0.00  0.00    +0.000 OA
ATOM      4  C   UNL     1       6.108   4.384  15.826  0.00  0.00    +0.000 A 
ATOM      5  N   UNL     1       4.898   4.532  16.323  0.00  0.00    +0.000 NA
ENDROOT
BRANCH   1  13
ATOM      6 CL   UNL     1       3.674   7.464  17.633  0.00  0.00    +0.000 Cl
ATOM      7  C   UNL     1       3.324   6.113  18.662  0.00  0.00    +0.000 A 
ATOM      8  C   UNL     1       2.290   6.312  19.589  0.00  0.00    +0.000 A 
ATOM      9  C   UNL     1       1.953   5.320  20.503  0.00  0.00    +0.000 A 
ATOM     10  C   UNL     1       2.646   4.116  20.482  0.00  0.00    +0.000 A 
ATOM     11  C   UNL     1       3.673   3.900  19.551  0.00  0.00    +0.000 A 
ATOM     12 CL   UNL     1       4.412   2.328  19.598  0.00  0.00    +0.000 Cl
ATOM     13  C   UNL     1       4.037   4.898  18.623  0.00  0.00    +0.000 A 
ENDBRANCH   1  13
BRANCH   4  14
ATOM     14  C   UNL     1       6.388   4.248  14.434  0.00  0.00    +0.000 A 
ATOM     15  C   UNL     1       7.357   4.880  13.680  0.00  0.00    +0.000 A 
ATOM     16  C   UNL     1       7.189   4.373  12.384  0.00  0.00    +0.000 A 
ATOM     17  N   UNL     1       6.196   3.487  12.320  0.00  0.00    +0.000 NA
ATOM     18  O   UNL     1       5.697   3.403  13.610  0.00  0.00    +0.000 OA
ENDBRANCH   4  14
TORSDOF 2
ENDMDL
MODEL 8
REMARK VINA RESULT:      -6.7      1.530      2.687
REMARK  Name = 
REMARK  2 active torsions:
REMARK  status: ('A' for Active; 'I' for Inactive)
REMARK    1  A    between atoms: C_8  and  C_9
REMARK    2  A    between atoms: C_12  and  C_13
REMARK                            x       y       z     vdW  Elec       q    Type
REMARK                         _______ _______ _______ _____ _____    ______ ____
ROOT
ATOM      1  C   UNL     1       5.128   4.655  17.731  0.00  0.00    +0.000 A 
ATOM      2  N   UNL     1       6.429   4.608  18.054  0.00  0.00    +0.000 NA
ATOM      3  O   UNL     1       7.070   4.391  16.836  0.00  0.00    +0.000 OA
ATOM      4  C   UNL     1       6.098   4.368  15.874  0.00  0.00    +0.000 A 
ATOM      5  N   UNL     1       4.891   4.503  16.382  0.00  0.00    +0.000 NA
ENDROOT
BRANCH   1  13
ATOM      6 CL   UNL     1       4.438   2.305  19.693  0.00  0.00    +0.000 Cl
ATOM      7  C   UNL     1       3.682   3.863  19.615  0.00  0.00    +0.000 A 
ATOM      8  C   UNL     1       2.631   4.071  20.521  0.00  0.00    +0.000 A 
ATOM      9  C   UNL     1       1.914   5.261  20.518  0.00  0.00    +0.000 A 
ATOM     10  C   UNL     1       2.256   6.257  19.611  0.00  0.00    +0.000 A 
ATOM     11  C   UNL     1       3.314   6.067  18.709  0.00  0.00    +0.000 A 
ATOM     12 CL   UNL     1       3.672   7.416  17.675  0.00  0.00    +0.000 Cl
ATOM     13  C   UNL     1       4.047   4.861  18.689  0.00  0.00    +0.000 A 
ENDBRANCH   1  13
BRANCH   4  14
ATOM     14  C   UNL     1       6.367   4.235  14.479  0.00  0.00    +0.000 A 
ATOM     15  C   UNL     1       7.360   4.833  13.729  0.00  0.00    +0.000 A 
ATOM     16  C   UNL     1       7.166   4.347  12.427  0.00  0.00    +0.000 A 
ATOM     17  N   UNL     1       6.135   3.506  12.358  0.00  0.00    +0.000 NA
ATOM     18  O   UNL     1       5.637   3.430  13.649  0.00  0.00    +0.000 OA
ENDBRANCH   4  14
TORSDOF 2
ENDMDL
MODEL 9
REMARK VINA RESULT:      -6.3      4.364      7.007
REMARK  Name = 
REMARK  2 active torsions:
REMARK  status: ('A' for Active; 'I' for Inactive)
REMARK    1  A    between atoms: C_8  and  C_9
REMARK    2  A    between atoms: C_12  and  C_13
REMARK                            x       y       z     vdW  Elec       q    Type
REMARK                         _______ _______ _______ _____ _____    ______ ____
ROOT
ATOM      1  C   UNL     1       2.384   6.471  19.146  0.00  0.00    +0.000 A 
ATOM      2  N   UNL     1       2.432   7.595  18.416  0.00  0.00    +0.000 NA
ATOM      3  O   UNL     1       1.829   8.551  19.231  0.00  0.00    +0.000 OA
ATOM      4  C   UNL     1       1.505   7.926  20.403  0.00  0.00    +0.000 A 
ATOM      5  N   UNL     1       1.807   6.645  20.385  0.00  0.00    +0.000 NA
ENDROOT
BRANCH   1  13
ATOM      6 CL   UNL     1       0.828   3.893  20.034  0.00  0.00    +0.000 Cl
ATOM      7  C   UNL     1       2.252   3.972  19.047  0.00  0.00    +0.000 A 
ATOM      8  C   UNL     1       2.765   2.736  18.627  0.00  0.00    +0.000 A 
ATOM      9  C   UNL     1       3.931   2.668  17.875  0.00  0.00    +0.000 A 
ATOM     10  C   UNL     1       4.584   3.845  17.529  0.00  0.00    +0.000 A 
ATOM     11  C   UNL     1       4.073   5.089  17.931  0.00  0.00    +0.000 A 
ATOM     12 CL   UNL     1       4.956   6.479  17.377  0.00  0.00    +0.000 Cl
ATOM     13  C   UNL     1       2.897   5.178  18.705  0.00  0.00    +0.000 A 
ENDBRANCH   1  13
BRANCH   4  14
ATOM     14  C   UNL     1       0.926   8.594  21.523  0.00  0.00    +0.000 A 
ATOM     15  C   UNL     1      -0.405   8.711  21.867  0.00  0.00    +0.000 A 
ATOM     16  C   UNL     1      -0.404   9.457  23.055  0.00  0.00    +0.000 A 
ATOM     17  N   UNL     1       0.830   9.785  23.436  0.00  0.00    +0.000 NA
ATOM     18  O   UNL     1       1.667   9.236  22.477  0.00  0.00    +0.000 OA
ENDBRANCH   4  14
TORSDOF 2
ENDMDL
