MODEL 1
REMARK VINA RESULT:      -6.4      0.000      0.000
REMARK  Name = 
REMARK  12 active torsions:
REMARK  status: ('A' for Active; 'I' for Inactive)
REMARK    1  A    between atoms: C_1  and  O_2
REMARK    2  A    between atoms: O_2  and  C_3
REMARK    3  A    between atoms: C_4  and  C_5
REMARK    4  A    between atoms: C_5  and  N_6
REMARK    5  A    between atoms: N_6  and  C_7
REMARK    6  A    between atoms: C_7  and  C_8
REMARK    7  A    between atoms: C_8  and  S_9
REMARK    8  A    between atoms: S_9  and  C_10
REMARK    9  A    between atoms: C_13  and  C_14
REMARK   10  A    between atoms: C_14  and  C_15
REMARK   11  A    between atoms: C_14  and  C_16
REMARK   12  A    between atoms: N_18  and  C_19
REMARK                            x       y       z     vdW  Elec       q    Type
REMARK                         _______ _______ _______ _____ _____    ______ ____
ROOT
ATOM      1  C   UNL     1       2.544   6.904  19.131  0.00  0.00    +0.000 A 
ATOM      2  C   UNL     1       2.766   5.561  18.845  0.00  0.00    +0.000 A 
ATOM      3  C   UNL     1       2.130   4.846  19.900  0.00  0.00    +0.000 A 
ATOM      4  N   UNL     1       1.625   5.679  20.816  0.00  0.00    +0.000 NA
ATOM      5  N   UNL     1       1.850   6.910  20.322  0.00  0.00    +0.000 N 
ATOM      6  C   UNL     1       1.328   8.019  21.080  0.00  0.00    +0.000 C 
ENDROOT
BRANCH   3   7
ATOM      7  C   UNL     1       1.996   3.355  20.081  0.00  0.00    +0.000 C 
ATOM      8  C   UNL     1       1.743   2.986  21.543  0.00  0.00    +0.000 C 
ATOM      9  C   UNL     1       0.895   2.753  19.196  0.00  0.00    +0.000 C 
ENDBRANCH   3   7
BRANCH   1  11
ATOM     10  C   UNL     1       1.859   8.663  17.681  0.00  0.00    +0.000 C 
ATOM     11  O   UNL     1       2.878   7.958  18.373  0.00  0.00    +0.000 OA
ENDBRANCH   1  11
BRANCH   2  12
ATOM     12  C   UNL     1       3.558   4.999  17.712  0.00  0.00    +0.000 C 
BRANCH  12  13
ATOM     13  N   UNL     1       4.922   4.692  18.155  0.00  0.00    +0.000 NA
ATOM     14  H   UNL     1       5.242   3.890  17.609  0.00  0.00    +0.000 HD
BRANCH  13  15
ATOM     15  C   UNL     1       5.797   5.851  17.907  0.00  0.00    +0.000 C 
BRANCH  15  16
ATOM     16  C   UNL     1       5.942   6.126  16.415  0.00  0.00    +0.000 C 
BRANCH  16  17
ATOM     17  S   UNL     1       7.093   4.971  15.685  0.00  0.00    +0.000 S 
ATOM     18  C   UNL     1       6.036   3.741  14.962  0.00  0.00    +0.000 C 
ATOM     19  O   UNL     1       7.783   5.643  14.604  0.00  0.00    +0.000 OA
ATOM     20  O   UNL     1       7.835   4.331  16.756  0.00  0.00    +0.000 OA
ENDBRANCH  16  17
ENDBRANCH  15  16
ENDBRANCH  13  15
ENDBRANCH  12  13
ENDBRANCH   2  12
TORSDOF 7
ENDMDL
MODEL 2
REMARK VINA RESULT:      -6.2      1.783      3.521
REMARK  Name = 
REMARK  12 active torsions:
REMARK  status: ('A' for Active; 'I' for Inactive)
REMARK    1  A    between atoms: C_1  and  O_2
REMARK    2  A    between atoms: O_2  and  C_3
REMARK    3  A    between atoms: C_4  and  C_5
REMARK    4  A    between atoms: C_5  and  N_6
REMARK    5  A    between atoms: N_6  and  C_7
REMARK    6  A    between atoms: C_7  and  C_8
REMARK    7  A    between atoms: C_8  and  S_9
REMARK    8  A    between atoms: S_9  and  C_10
REMARK    9  A    between atoms: C_13  and  C_14
REMARK   10  A    between atoms: C_14  and  C_15
REMARK   11  A    between atoms: C_14  and  C_16
REMARK   12  A    between atoms: N_18  and  C_19
REMARK                            x       y       z     vdW  Elec       q    Type
REMARK                         _______ _______ _______ _____ _____    ______ ____
ROOT
ATOM      1  C   UNL     1       3.288   3.802  19.878  0.00  0.00    +0.000 A 
ATOM      2  C   UNL     1       3.645   5.087  19.484  0.00  0.00    +0.000 A 
ATOM      3  C   UNL     1       2.554   5.913  19.879  0.00  0.00    +0.000 A 
ATOM      4  N   UNL     1       1.559   5.188  20.400  0.00  0.00    +0.000 NA
ATOM      5  N   UNL     1       2.030   3.928  20.426  0.00  0.00    +0.000 N 
ATOM      6  C   UNL     1       1.179   2.930  21.024  0.00  0.00    +0.000 C 
ENDROOT
BRANCH   3   7
ATOM      7  C   UNL     1       2.414   7.410  19.759  0.00  0.00    +0.000 C 
ATOM      8  C   UNL     1       2.040   7.827  18.336  0.00  0.00    +0.000 C 
ATOM      9  C   UNL     1       1.397   7.987  20.753  0.00  0.00    +0.000 C 
ENDBRANCH   3   7
BRANCH   1  11
ATOM     10  C   UNL     1       3.757   1.737  18.790  0.00  0.00    +0.000 C 
ATOM     11  O   UNL     1       4.039   2.694  19.799  0.00  0.00    +0.000 OA
ENDBRANCH   1  11
BRANCH   2  12
ATOM     12  C   UNL     1       4.877   5.496  18.748  0.00  0.00    +0.000 C 
BRANCH  12  13
ATOM     13  N   UNL     1       5.999   4.626  19.123  0.00  0.00    +0.000 NA
ATOM     14  H   UNL     1       5.618   3.690  19.264  0.00  0.00    +0.000 HD
BRANCH  13  15
ATOM     15  C   UNL     1       6.995   4.608  18.038  0.00  0.00    +0.000 C 
BRANCH  15  16
ATOM     16  C   UNL     1       6.909   5.867  17.185  0.00  0.00    +0.000 C 
BRANCH  16  17
ATOM     17  S   UNL     1       6.510   5.442  15.496  0.00  0.00    +0.000 S 
ATOM     18  C   UNL     1       5.919   3.772  15.623  0.00  0.00    +0.000 C 
ATOM     19  O   UNL     1       5.399   6.267  15.073  0.00  0.00    +0.000 OA
ATOM     20  O   UNL     1       7.744   5.408  14.732  0.00  0.00    +0.000 OA
ENDBRANCH  16  17
ENDBRANCH  15  16
ENDBRANCH  13  15
ENDBRANCH  12  13
ENDBRANCH   2  12
TORSDOF 7
ENDMDL
MODEL 3
REMARK VINA RESULT:      -6.2      2.066      3.774
REMARK  Name = 
REMARK  12 active torsions:
REMARK  status: ('A' for Active; 'I' for Inactive)
REMARK    1  A    between atoms: C_1  and  O_2
REMARK    2  A    between atoms: O_2  and  C_3
REMARK    3  A    between atoms: C_4  and  C_5
REMARK    4  A    between atoms: C_5  and  N_6
REMARK    5  A    between atoms: N_6  and  C_7
REMARK    6  A    between atoms: C_7  and  C_8
REMARK    7  A    between atoms: C_8  and  S_9
REMARK    8  A    between atoms: S_9  and  C_10
REMARK    9  A    between atoms: C_13  and  C_14
REMARK   10  A    between atoms: C_14  and  C_15
REMARK   11  A    between atoms: C_14  and  C_16
REMARK   12  A    between atoms: N_18  and  C_19
REMARK                            x       y       z     vdW  Elec       q    Type
REMARK                         _______ _______ _______ _____ _____    ______ ____
ROOT
ATOM      1  C   UNL     1       3.281   3.526  19.450  0.00  0.00    +0.000 A 
ATOM      2  C   UNL     1       3.806   4.814  19.430  0.00  0.00    +0.000 A 
ATOM      3  C   UNL     1       2.673   5.677  19.446  0.00  0.00    +0.000 A 
ATOM      4  N   UNL     1       1.532   4.983  19.395  0.00  0.00    +0.000 NA
ATOM      5  N   UNL     1       1.913   3.693  19.435  0.00  0.00    +0.000 N 
ATOM      6  C   UNL     1       0.862   2.707  19.474  0.00  0.00    +0.000 C 
ENDROOT
BRANCH   3   7
ATOM      7  C   UNL     1       2.638   7.183  19.494  0.00  0.00    +0.000 C 
ATOM      8  C   UNL     1       2.325   7.782  18.122  0.00  0.00    +0.000 C 
ATOM      9  C   UNL     1       1.640   7.716  20.532  0.00  0.00    +0.000 C 
ENDBRANCH   3   7
BRANCH   1  11
ATOM     10  C   UNL     1       3.811   1.403  18.513  0.00  0.00    +0.000 C 
ATOM     11  O   UNL     1       3.964   2.375  19.535  0.00  0.00    +0.000 OA
ENDBRANCH   1  11
BRANCH   2  12
ATOM     12  C   UNL     1       5.244   5.200  19.342  0.00  0.00    +0.000 C 
BRANCH  12  13
ATOM     13  N   UNL     1       5.988   4.199  18.569  0.00  0.00    +0.000 NA
ATOM     14  H   UNL     1       5.340   3.805  17.885  0.00  0.00    +0.000 HD
BRANCH  13  15
ATOM     15  C   UNL     1       7.118   4.845  17.879  0.00  0.00    +0.000 C 
BRANCH  15  16
ATOM     16  C   UNL     1       7.239   4.360  16.440  0.00  0.00    +0.000 C 
BRANCH  16  17
ATOM     17  S   UNL     1       5.756   4.761  15.528  0.00  0.00    +0.000 S 
ATOM     18  C   UNL     1       6.067   4.077  13.919  0.00  0.00    +0.000 C 
ATOM     19  O   UNL     1       4.654   4.024  16.110  0.00  0.00    +0.000 OA
ATOM     20  O   UNL     1       5.689   6.204  15.381  0.00  0.00    +0.000 OA
ENDBRANCH  16  17
ENDBRANCH  15  16
ENDBRANCH  13  15
ENDBRANCH  12  13
ENDBRANCH   2  12
TORSDOF 7
ENDMDL
MODEL 4
REMARK VINA RESULT:      -6.1      1.952      3.774
REMARK  Name = 
REMARK  12 active torsions:
REMARK  status: ('A' for Active; 'I' for Inactive)
REMARK    1  A    between atoms: C_1  and  O_2
REMARK    2  A    between atoms: O_2  and  C_3
REMARK    3  A    between atoms: C_4  and  C_5
REMARK    4  A    between atoms: C_5  and  N_6
REMARK    5  A    between atoms: N_6  and  C_7
REMARK    6  A    between atoms: C_7  and  C_8
REMARK    7  A    between atoms: C_8  and  S_9
REMARK    8  A    between atoms: S_9  and  C_10
REMARK    9  A    between atoms: C_13  and  C_14
REMARK   10  A    between atoms: C_14  and  C_15
REMARK   11  A    between atoms: C_14  and  C_16
REMARK   12  A    between atoms: N_18  and  C_19
REMARK                            x       y       z     vdW  Elec       q    Type
REMARK                         _______ _______ _______ _____ _____    ______ ____
ROOT
ATOM      1  C   UNL     1       3.582   3.446  19.212  0.00  0.00    +0.000 A 
ATOM      2  C   UNL     1       4.043   4.756  19.287  0.00  0.00    +0.000 A 
ATOM      3  C   UNL     1       2.872   5.566  19.229  0.00  0.00    +0.000 A 
ATOM      4  N   UNL     1       1.776   4.823  19.049  0.00  0.00    +0.000 NA
ATOM      5  N   UNL     1       2.214   3.552  19.076  0.00  0.00    +0.000 N 
ATOM      6  C   UNL     1       1.214   2.518  18.983  0.00  0.00    +0.000 C 
ENDROOT
BRANCH   3   7
ATOM      7  C   UNL     1       2.760   7.066  19.328  0.00  0.00    +0.000 C 
ATOM      8  C   UNL     1       2.331   7.687  17.998  0.00  0.00    +0.000 C 
ATOM      9  C   UNL     1       1.802   7.512  20.441  0.00  0.00    +0.000 C 
ENDBRANCH   3   7
BRANCH   1  11
ATOM     10  C   UNL     1       4.564   1.784  20.606  0.00  0.00    +0.000 C 
ATOM     11  O   UNL     1       4.310   2.325  19.318  0.00  0.00    +0.000 OA
ENDBRANCH   1  11
BRANCH   2  12
ATOM     12  C   UNL     1       5.463   5.210  19.346  0.00  0.00    +0.000 C 
BRANCH  12  13
ATOM     13  N   UNL     1       6.350   4.161  18.831  0.00  0.00    +0.000 NA
ATOM     14  H   UNL     1       5.787   3.315  18.730  0.00  0.00    +0.000 HD
BRANCH  13  15
ATOM     15  C   UNL     1       6.889   4.566  17.521  0.00  0.00    +0.000 C 
BRANCH  15  16
ATOM     16  C   UNL     1       5.935   4.200  16.392  0.00  0.00    +0.000 C 
BRANCH  16  17
ATOM     17  S   UNL     1       6.359   5.104  14.909  0.00  0.00    +0.000 S 
ATOM     18  C   UNL     1       6.128   3.906  13.619  0.00  0.00    +0.000 C 
ATOM     19  O   UNL     1       5.373   6.146  14.718  0.00  0.00    +0.000 OA
ATOM     20  O   UNL     1       7.775   5.421  14.960  0.00  0.00    +0.000 OA
ENDBRANCH  16  17
ENDBRANCH  15  16
ENDBRANCH  13  15
ENDBRANCH  12  13
ENDBRANCH   2  12
TORSDOF 7
ENDMDL
MODEL 5
REMARK VINA RESULT:      -6.0      0.918      1.228
REMARK  Name = 
REMARK  12 active torsions:
REMARK  status: ('A' for Active; 'I' for Inactive)
REMARK    1  A    between atoms: C_1  and  O_2
REMARK    2  A    between atoms: O_2  and  C_3
REMARK    3  A    between atoms: C_4  and  C_5
REMARK    4  A    between atoms: C_5  and  N_6
REMARK    5  A    between atoms: N_6  and  C_7
REMARK    6  A    between atoms: C_7  and  C_8
REMARK    7  A    between atoms: C_8  and  S_9
REMARK    8  A    between atoms: S_9  and  C_10
REMARK    9  A    between atoms: C_13  and  C_14
REMARK   10  A    between atoms: C_14  and  C_15
REMARK   11  A    between atoms: C_14  and  C_16
REMARK   12  A    between atoms: N_18  and  C_19
REMARK                            x       y       z     vdW  Elec       q    Type
REMARK                         _______ _______ _______ _____ _____    ______ ____
ROOT
ATOM      1  C   UNL     1       2.559   6.582  19.192  0.00  0.00    +0.000 A 
ATOM      2  C   UNL     1       2.480   5.195  19.118  0.00  0.00    +0.000 A 
ATOM      3  C   UNL     1       1.664   4.810  20.221  0.00  0.00    +0.000 A 
ATOM      4  N   UNL     1       1.331   5.865  20.971  0.00  0.00    +0.000 NA
ATOM      5  N   UNL     1       1.845   6.924  20.321  0.00  0.00    +0.000 N 
ATOM      6  C   UNL     1       1.563   8.225  20.875  0.00  0.00    +0.000 C 
ENDROOT
BRANCH   3   7
ATOM      7  C   UNL     1       1.191   3.431  20.605  0.00  0.00    +0.000 C 
ATOM      8  C   UNL     1       0.865   2.585  19.374  0.00  0.00    +0.000 C 
ATOM      9  C   UNL     1       2.200   2.688  21.491  0.00  0.00    +0.000 C 
ENDBRANCH   3   7
BRANCH   1  11
ATOM     10  C   UNL     1       2.360   8.384  17.649  0.00  0.00    +0.000 C 
ATOM     11  O   UNL     1       3.146   7.407  18.314  0.00  0.00    +0.000 OA
ENDBRANCH   1  11
BRANCH   2  12
ATOM     12  C   UNL     1       3.160   4.305  18.133  0.00  0.00    +0.000 C 
BRANCH  12  13
ATOM     13  N   UNL     1       4.323   3.662  18.755  0.00  0.00    +0.000 NA
ATOM     14  H   UNL     1       4.410   2.732  18.342  0.00  0.00    +0.000 HD
BRANCH  13  15
ATOM     15  C   UNL     1       5.535   4.452  18.477  0.00  0.00    +0.000 C 
BRANCH  15  16
ATOM     16  C   UNL     1       5.484   5.073  17.087  0.00  0.00    +0.000 C 
BRANCH  16  17
ATOM     17  S   UNL     1       7.133   5.206  16.411  0.00  0.00    +0.000 S 
ATOM     18  C   UNL     1       6.925   4.693  14.723  0.00  0.00    +0.000 C 
ATOM     19  O   UNL     1       7.505   6.605  16.399  0.00  0.00    +0.000 OA
ATOM     20  O   UNL     1       7.973   4.219  17.064  0.00  0.00    +0.000 OA
ENDBRANCH  16  17
ENDBRANCH  15  16
ENDBRANCH  13  15
ENDBRANCH  12  13
ENDBRANCH   2  12
TORSDOF 7
ENDMDL
MODEL 6
REMARK VINA RESULT:      -6.0      1.863      3.513
REMARK  Name = 
REMARK  12 active torsions:
REMARK  status: ('A' for Active; 'I' for Inactive)
REMARK    1  A    between atoms: C_1  and  O_2
REMARK    2  A    between atoms: O_2  and  C_3
REMARK    3  A    between atoms: C_4  and  C_5
REMARK    4  A    between atoms: C_5  and  N_6
REMARK    5  A    between atoms: N_6  and  C_7
REMARK    6  A    between atoms: C_7  and  C_8
REMARK    7  A    between atoms: C_8  and  S_9
REMARK    8  A    between atoms: S_9  and  C_10
REMARK    9  A    between atoms: C_13  and  C_14
REMARK   10  A    between atoms: C_14  and  C_15
REMARK   11  A    between atoms: C_14  and  C_16
REMARK   12  A    between atoms: N_18  and  C_19
REMARK                            x       y       z     vdW  Elec       q    Type
REMARK                         _______ _______ _______ _____ _____    ______ ____
ROOT
ATOM      1  C   UNL     1       3.262   3.684  19.914  0.00  0.00    +0.000 A 
ATOM      2  C   UNL     1       3.604   4.961  19.482  0.00  0.00    +0.000 A 
ATOM      3  C   UNL     1       2.564   5.808  19.964  0.00  0.00    +0.000 A 
ATOM      4  N   UNL     1       1.607   5.102  20.574  0.00  0.00    +0.000 NA
ATOM      5  N   UNL     1       2.058   3.834  20.567  0.00  0.00    +0.000 N 
ATOM      6  C   UNL     1       1.246   2.854  21.244  0.00  0.00    +0.000 C 
ENDROOT
BRANCH   3   7
ATOM      7  C   UNL     1       2.439   7.305  19.847  0.00  0.00    +0.000 C 
ATOM      8  C   UNL     1       2.093   7.731  18.419  0.00  0.00    +0.000 C 
ATOM      9  C   UNL     1       1.410   7.888  20.825  0.00  0.00    +0.000 C 
ENDBRANCH   3   7
BRANCH   1  11
ATOM     10  C   UNL     1       3.688   1.673  18.714  0.00  0.00    +0.000 C 
ATOM     11  O   UNL     1       3.985   2.563  19.778  0.00  0.00    +0.000 OA
ENDBRANCH   1  11
BRANCH   2  12
ATOM     12  C   UNL     1       4.774   5.345  18.640  0.00  0.00    +0.000 C 
BRANCH  12  13
ATOM     13  N   UNL     1       6.022   4.941  19.298  0.00  0.00    +0.000 NA
ATOM     14  H   UNL     1       5.810   4.120  19.867  0.00  0.00    +0.000 HD
BRANCH  13  15
ATOM     15  C   UNL     1       7.032   4.603  18.281  0.00  0.00    +0.000 C 
BRANCH  15  16
ATOM     16  C   UNL     1       7.165   5.710  17.243  0.00  0.00    +0.000 C 
BRANCH  16  17
ATOM     17  S   UNL     1       6.723   5.092  15.625  0.00  0.00    +0.000 S 
ATOM     18  C   UNL     1       5.302   6.063  15.189  0.00  0.00    +0.000 C 
ATOM     19  O   UNL     1       7.786   5.437  14.704  0.00  0.00    +0.000 OA
ATOM     20  O   UNL     1       6.283   3.716  15.768  0.00  0.00    +0.000 OA
ENDBRANCH  16  17
ENDBRANCH  15  16
ENDBRANCH  13  15
ENDBRANCH  12  13
ENDBRANCH   2  12
TORSDOF 7
ENDMDL
MODEL 7
REMARK VINA RESULT:      -5.9      1.943      3.767
REMARK  Name = 
REMARK  12 active torsions:
REMARK  status: ('A' for Active; 'I' for Inactive)
REMARK    1  A    between atoms: C_1  and  O_2
REMARK    2  A    between atoms: O_2  and  C_3
REMARK    3  A    between atoms: C_4  and  C_5
REMARK    4  A    between atoms: C_5  and  N_6
REMARK    5  A    between atoms: N_6  and  C_7
REMARK    6  A    between atoms: C_7  and  C_8
REMARK    7  A    between atoms: C_8  and  S_9
REMARK    8  A    between atoms: S_9  and  C_10
REMARK    9  A    between atoms: C_13  and  C_14
REMARK   10  A    between atoms: C_14  and  C_15
REMARK   11  A    between atoms: C_14  and  C_16
REMARK   12  A    between atoms: N_18  and  C_19
REMARK                            x       y       z     vdW  Elec       q    Type
REMARK                         _______ _______ _______ _____ _____    ______ ____
ROOT
ATOM      1  C   UNL     1       3.304   3.520  19.360  0.00  0.00    +0.000 A 
ATOM      2  C   UNL     1       3.834   4.806  19.358  0.00  0.00    +0.000 A 
ATOM      3  C   UNL     1       2.705   5.673  19.330  0.00  0.00    +0.000 A 
ATOM      4  N   UNL     1       1.564   4.984  19.237  0.00  0.00    +0.000 NA
ATOM      5  N   UNL     1       1.938   3.692  19.292  0.00  0.00    +0.000 N 
ATOM      6  C   UNL     1       0.882   2.710  19.293  0.00  0.00    +0.000 C 
ENDROOT
BRANCH   3   7
ATOM      7  C   UNL     1       2.674   7.180  19.375  0.00  0.00    +0.000 C 
ATOM      8  C   UNL     1       2.350   7.777  18.005  0.00  0.00    +0.000 C 
ATOM      9  C   UNL     1       1.687   7.717  20.421  0.00  0.00    +0.000 C 
ENDBRANCH   3   7
BRANCH   1  11
ATOM     10  C   UNL     1       3.841   1.384  18.457  0.00  0.00    +0.000 C 
ATOM     11  O   UNL     1       3.978   2.367  19.472  0.00  0.00    +0.000 OA
ENDBRANCH   1  11
BRANCH   2  12
ATOM     12  C   UNL     1       5.276   5.186  19.324  0.00  0.00    +0.000 C 
BRANCH  12  13
ATOM     13  N   UNL     1       6.069   4.103  18.731  0.00  0.00    +0.000 NA
ATOM     14  H   UNL     1       5.415   3.371  18.451  0.00  0.00    +0.000 HD
BRANCH  13  15
ATOM     15  C   UNL     1       6.796   4.608  17.554  0.00  0.00    +0.000 C 
BRANCH  15  16
ATOM     16  C   UNL     1       6.413   3.840  16.295  0.00  0.00    +0.000 C 
BRANCH  16  17
ATOM     17  S   UNL     1       6.201   4.969  14.926  0.00  0.00    +0.000 S 
ATOM     18  C   UNL     1       5.246   6.291  15.629  0.00  0.00    +0.000 C 
ATOM     19  O   UNL     1       7.500   5.507  14.578  0.00  0.00    +0.000 OA
ATOM     20  O   UNL     1       5.373   4.320  13.925  0.00  0.00    +0.000 OA
ENDBRANCH  16  17
ENDBRANCH  15  16
ENDBRANCH  13  15
ENDBRANCH  12  13
ENDBRANCH   2  12
TORSDOF 7
ENDMDL
MODEL 8
REMARK VINA RESULT:      -5.9      1.790      3.557
REMARK  Name = 
REMARK  12 active torsions:
REMARK  status: ('A' for Active; 'I' for Inactive)
REMARK    1  A    between atoms: C_1  and  O_2
REMARK    2  A    between atoms: O_2  and  C_3
REMARK    3  A    between atoms: C_4  and  C_5
REMARK    4  A    between atoms: C_5  and  N_6
REMARK    5  A    between atoms: N_6  and  C_7
REMARK    6  A    between atoms: C_7  and  C_8
REMARK    7  A    between atoms: C_8  and  S_9
REMARK    8  A    between atoms: S_9  and  C_10
REMARK    9  A    between atoms: C_13  and  C_14
REMARK   10  A    between atoms: C_14  and  C_15
REMARK   11  A    between atoms: C_14  and  C_16
REMARK   12  A    between atoms: N_18  and  C_19
REMARK                            x       y       z     vdW  Elec       q    Type
REMARK                         _______ _______ _______ _____ _____    ______ ____
ROOT
ATOM      1  C   UNL     1       3.403   3.601  19.138  0.00  0.00    +0.000 A 
ATOM      2  C   UNL     1       3.842   4.908  19.323  0.00  0.00    +0.000 A 
ATOM      3  C   UNL     1       2.655   5.696  19.362  0.00  0.00    +0.000 A 
ATOM      4  N   UNL     1       1.569   4.950  19.135  0.00  0.00    +0.000 NA
ATOM      5  N   UNL     1       2.031   3.691  19.038  0.00  0.00    +0.000 N 
ATOM      6  C   UNL     1       1.048   2.650  18.870  0.00  0.00    +0.000 C 
ENDROOT
BRANCH   3   7
ATOM      7  C   UNL     1       2.517   7.178  19.599  0.00  0.00    +0.000 C 
ATOM      8  C   UNL     1       2.166   7.923  18.310  0.00  0.00    +0.000 C 
ATOM      9  C   UNL     1       1.483   7.506  20.684  0.00  0.00    +0.000 C 
ENDBRANCH   3   7
BRANCH   1  11
ATOM     10  C   UNL     1       4.567   1.923  20.362  0.00  0.00    +0.000 C 
ATOM     11  O   UNL     1       4.153   2.490  19.128  0.00  0.00    +0.000 OA
ENDBRANCH   1  11
BRANCH   2  12
ATOM     12  C   UNL     1       5.254   5.384  19.396  0.00  0.00    +0.000 C 
BRANCH  12  13
ATOM     13  N   UNL     1       5.971   5.024  18.168  0.00  0.00    +0.000 NA
ATOM     14  H   UNL     1       5.394   4.344  17.671  0.00  0.00    +0.000 HD
BRANCH  13  15
ATOM     15  C   UNL     1       6.164   6.225  17.337  0.00  0.00    +0.000 C 
BRANCH  15  16
ATOM     16  C   UNL     1       5.825   5.949  15.878  0.00  0.00    +0.000 C 
BRANCH  16  17
ATOM     17  S   UNL     1       7.054   4.873  15.152  0.00  0.00    +0.000 S 
ATOM     18  C   UNL     1       6.082   3.595  14.393  0.00  0.00    +0.000 C 
ATOM     19  O   UNL     1       7.722   5.600  14.094  0.00  0.00    +0.000 OA
ATOM     20  O   UNL     1       7.813   4.261  16.228  0.00  0.00    +0.000 OA
ENDBRANCH  16  17
ENDBRANCH  15  16
ENDBRANCH  13  15
ENDBRANCH  12  13
ENDBRANCH   2  12
TORSDOF 7
ENDMDL
MODEL 9
REMARK VINA RESULT:      -5.9      1.138      1.726
REMARK  Name = 
REMARK  12 active torsions:
REMARK  status: ('A' for Active; 'I' for Inactive)
REMARK    1  A    between atoms: C_1  and  O_2
REMARK    2  A    between atoms: O_2  and  C_3
REMARK    3  A    between atoms: C_4  and  C_5
REMARK    4  A    between atoms: C_5  and  N_6
REMARK    5  A    between atoms: N_6  and  C_7
REMARK    6  A    between atoms: C_7  and  C_8
REMARK    7  A    between atoms: C_8  and  S_9
REMARK    8  A    between atoms: S_9  and  C_10
REMARK    9  A    between atoms: C_13  and  C_14
REMARK   10  A    between atoms: C_14  and  C_15
REMARK   11  A    between atoms: C_14  and  C_16
REMARK   12  A    between atoms: N_18  and  C_19
REMARK                            x       y       z     vdW  Elec       q    Type
REMARK                         _______ _______ _______ _____ _____    ______ ____
ROOT
ATOM      1  C   UNL     1       2.651   6.603  19.297  0.00  0.00    +0.000 A 
ATOM      2  C   UNL     1       2.613   5.212  19.292  0.00  0.00    +0.000 A 
ATOM      3  C   UNL     1       1.700   4.862  20.329  0.00  0.00    +0.000 A 
ATOM      4  N   UNL     1       1.268   5.945  20.983  0.00  0.00    +0.000 NA
ATOM      5  N   UNL     1       1.820   6.984  20.329  0.00  0.00    +0.000 N 
ATOM      6  C   UNL     1       1.454   8.303  20.780  0.00  0.00    +0.000 C 
ENDROOT
BRANCH   3   7
ATOM      7  C   UNL     1       1.222   3.493  20.739  0.00  0.00    +0.000 C 
ATOM      8  C   UNL     1       0.770   2.670  19.533  0.00  0.00    +0.000 C 
ATOM      9  C   UNL     1       2.282   2.713  21.530  0.00  0.00    +0.000 C 
ENDBRANCH   3   7
BRANCH   1  11
ATOM     10  C   UNL     1       2.560   8.225  17.557  0.00  0.00    +0.000 C 
ATOM     11  O   UNL     1       3.305   7.397  18.438  0.00  0.00    +0.000 OA
ENDBRANCH   1  11
BRANCH   2  12
ATOM     12  C   UNL     1       3.409   4.291  18.430  0.00  0.00    +0.000 C 
BRANCH  12  13
ATOM     13  N   UNL     1       4.668   3.939  19.097  0.00  0.00    +0.000 NA
ATOM     14  H   UNL     1       4.714   2.920  19.133  0.00  0.00    +0.000 HD
BRANCH  13  15
ATOM     15  C   UNL     1       5.804   4.469  18.324  0.00  0.00    +0.000 C 
BRANCH  15  16
ATOM     16  C   UNL     1       5.487   4.514  16.835  0.00  0.00    +0.000 C 
BRANCH  16  17
ATOM     17  S   UNL     1       6.294   5.916  16.075  0.00  0.00    +0.000 S 
ATOM     18  C   UNL     1       6.926   6.825  17.463  0.00  0.00    +0.000 C 
ATOM     19  O   UNL     1       7.428   5.430  15.319  0.00  0.00    +0.000 OA
ATOM     20  O   UNL     1       5.278   6.739  15.444  0.00  0.00    +0.000 OA
ENDBRANCH  16  17
ENDBRANCH  15  16
ENDBRANCH  13  15
ENDBRANCH  12  13
ENDBRANCH   2  12
TORSDOF 7
ENDMDL
