MODEL 1
REMARK VINA RESULT:      -5.8      0.000      0.000
REMARK  Name = 
REMARK  12 active torsions:
REMARK  status: ('A' for Active; 'I' for Inactive)
REMARK    1  A    between atoms: C_1  and  C_2
REMARK    2  A    between atoms: C_2  and  C_3
REMARK    3  A    between atoms: C_3  and  C_4
REMARK    4  A    between atoms: C_4  and  C_5
REMARK    5  A    between atoms: C_5  and  C_6
REMARK    6  A    between atoms: C_6  and  C_7
REMARK    7  A    between atoms: C_7  and  C_8
REMARK    8  A    between atoms: C_8  and  C_9
REMARK    9  A    between atoms: C_9  and  C_10
REMARK   10  A    between atoms: C_10  and  C_11
REMARK   11  A    between atoms: C_11  and  N_12
REMARK   12  A    between atoms: C_16  and  C_17
REMARK                            x       y       z     vdW  Elec       q    Type
REMARK                         _______ _______ _______ _____ _____    ______ ____
ROOT
ATOM      1  C   UNL     1       2.300   6.918  19.544  0.00  0.00    +0.000 C 
ENDROOT
BRANCH   1   2
ATOM      2  C   UNL     1       1.569   6.061  20.576  0.00  0.00    +0.000 C 
BRANCH   2   3
ATOM      3  C   UNL     1       2.371   4.818  20.951  0.00  0.00    +0.000 C 
BRANCH   3   4
ATOM      4  C   UNL     1       1.470   3.583  20.971  0.00  0.00    +0.000 C 
BRANCH   4   5
ATOM      5  C   UNL     1       0.651   3.486  19.689  0.00  0.00    +0.000 C 
BRANCH   5   6
ATOM      6  C   UNL     1       1.035   2.250  18.879  0.00  0.00    +0.000 C 
BRANCH   6   7
ATOM      7  C   UNL     1       2.151   2.579  17.890  0.00  0.00    +0.000 C 
BRANCH   7   9
ATOM      8  C   UNL     1       4.446   2.694  18.899  0.00  0.00    +0.000 C 
ATOM      9  C   UNL     1       3.425   1.804  18.211  0.00  0.00    +0.000 C 
ENDBRANCH   7   9
ENDBRANCH   6   7
ENDBRANCH   5   6
ENDBRANCH   4   5
ENDBRANCH   3   4
ENDBRANCH   2   3
ENDBRANCH   1   2
BRANCH   1  10
ATOM     10  C   UNL     1       2.995   6.034  18.508  0.00  0.00    +0.000 C 
BRANCH  10  11
ATOM     11  C   UNL     1       3.998   6.833  17.689  0.00  0.00    +0.000 C 
BRANCH  11  12
ATOM     12  N   UNL     1       5.139   5.968  17.304  0.00  0.00    +0.000 N 
ATOM     13  C   UNL     1       6.212   5.863  18.124  0.00  0.00    +0.000 A 
ATOM     14  C   UNL     1       7.323   5.122  17.743  0.00  0.00    +0.000 A 
ATOM     15  C   UNL     1       7.330   4.484  16.507  0.00  0.00    +0.000 A 
ATOM     16  C   UNL     1       6.218   4.591  15.673  0.00  0.00    +0.000 A 
ATOM     17  C   UNL     1       6.192   3.930  14.326  0.00  0.00    +0.000 C 
ATOM     18  C   UNL     1       5.121   5.334  16.107  0.00  0.00    +0.000 A 
ENDBRANCH  11  12
ENDBRANCH  10  11
ENDBRANCH   1  10
TORSDOF 10
ENDMDL
MODEL 2
REMARK VINA RESULT:      -5.5      2.344      6.408
REMARK  Name = 
REMARK  12 active torsions:
REMARK  status: ('A' for Active; 'I' for Inactive)
REMARK    1  A    between atoms: C_1  and  C_2
REMARK    2  A    between atoms: C_2  and  C_3
REMARK    3  A    between atoms: C_3  and  C_4
REMARK    4  A    between atoms: C_4  and  C_5
REMARK    5  A    between atoms: C_5  and  C_6
REMARK    6  A    between atoms: C_6  and  C_7
REMARK    7  A    between atoms: C_7  and  C_8
REMARK    8  A    between atoms: C_8  and  C_9
REMARK    9  A    between atoms: C_9  and  C_10
REMARK   10  A    between atoms: C_10  and  C_11
REMARK   11  A    between atoms: C_11  and  N_12
REMARK   12  A    between atoms: C_16  and  C_17
REMARK                            x       y       z     vdW  Elec       q    Type
REMARK                         _______ _______ _______ _____ _____    ______ ____
ROOT
ATOM      1  C   UNL     1       6.897   5.557  16.152  0.00  0.00    +0.000 C 
ENDROOT
BRANCH   1   2
ATOM      2  C   UNL     1       5.674   5.248  15.290  0.00  0.00    +0.000 C 
BRANCH   2   3
ATOM      3  C   UNL     1       5.873   3.985  14.456  0.00  0.00    +0.000 C 
BRANCH   3   4
ATOM      4  C   UNL     1       6.967   4.198  13.410  0.00  0.00    +0.000 C 
BRANCH   4   5
ATOM      5  C   UNL     1       6.590   3.542  12.086  0.00  0.00    +0.000 C 
BRANCH   5   6
ATOM      6  C   UNL     1       5.158   3.012  12.121  0.00  0.00    +0.000 C 
BRANCH   6   7
ATOM      7  C   UNL     1       4.206   3.983  11.429  0.00  0.00    +0.000 C 
BRANCH   7   9
ATOM      8  C   UNL     1       2.744   4.260   9.408  0.00  0.00    +0.000 C 
ATOM      9  C   UNL     1       3.338   3.271  10.396  0.00  0.00    +0.000 C 
ENDBRANCH   7   9
ENDBRANCH   6   7
ENDBRANCH   5   6
ENDBRANCH   4   5
ENDBRANCH   3   4
ENDBRANCH   2   3
ENDBRANCH   1   2
BRANCH   1  10
ATOM     10  C   UNL     1       6.691   5.046  17.578  0.00  0.00    +0.000 C 
BRANCH  10  11
ATOM     11  C   UNL     1       5.539   5.767  18.259  0.00  0.00    +0.000 C 
BRANCH  11  12
ATOM     12  N   UNL     1       4.302   4.955  18.156  0.00  0.00    +0.000 N 
ATOM     13  C   UNL     1       3.111   5.565  17.954  0.00  0.00    +0.000 A 
ATOM     14  C   UNL     1       1.934   4.827  17.934  0.00  0.00    +0.000 A 
ATOM     15  C   UNL     1       1.984   3.451  18.125  0.00  0.00    +0.000 A 
ATOM     16  C   UNL     1       3.217   2.830  18.325  0.00  0.00    +0.000 A 
ATOM     17  C   UNL     1       3.313   1.350  18.549  0.00  0.00    +0.000 C 
ATOM     18  C   UNL     1       4.371   3.612  18.320  0.00  0.00    +0.000 A 
ENDBRANCH  11  12
ENDBRANCH  10  11
ENDBRANCH   1  10
TORSDOF 10
ENDMDL
MODEL 3
REMARK VINA RESULT:      -5.4      1.636      5.838
REMARK  Name = 
REMARK  12 active torsions:
REMARK  status: ('A' for Active; 'I' for Inactive)
REMARK    1  A    between atoms: C_1  and  C_2
REMARK    2  A    between atoms: C_2  and  C_3
REMARK    3  A    between atoms: C_3  and  C_4
REMARK    4  A    between atoms: C_4  and  C_5
REMARK    5  A    between atoms: C_5  and  C_6
REMARK    6  A    between atoms: C_6  and  C_7
REMARK    7  A    between atoms: C_7  and  C_8
REMARK    8  A    between atoms: C_8  and  C_9
REMARK    9  A    between atoms: C_9  and  C_10
REMARK   10  A    between atoms: C_10  and  C_11
REMARK   11  A    between atoms: C_11  and  N_12
REMARK   12  A    between atoms: C_16  and  C_17
REMARK                            x       y       z     vdW  Elec       q    Type
REMARK                         _______ _______ _______ _____ _____    ______ ____
ROOT
ATOM      1  C   UNL     1       4.746   6.189  18.290  0.00  0.00    +0.000 C 
ENDROOT
BRANCH   1   2
ATOM      2  C   UNL     1       5.256   6.906  17.041  0.00  0.00    +0.000 C 
BRANCH   2   3
ATOM      3  C   UNL     1       5.366   5.959  15.849  0.00  0.00    +0.000 C 
BRANCH   3   4
ATOM      4  C   UNL     1       6.092   4.675  16.248  0.00  0.00    +0.000 C 
BRANCH   4   5
ATOM      5  C   UNL     1       5.871   3.579  15.211  0.00  0.00    +0.000 C 
BRANCH   5   6
ATOM      6  C   UNL     1       5.581   4.173  13.834  0.00  0.00    +0.000 C 
BRANCH   6   7
ATOM      7  C   UNL     1       6.512   3.576  12.782  0.00  0.00    +0.000 C 
BRANCH   7   9
ATOM      8  C   UNL     1       4.283   3.309  11.659  0.00  0.00    +0.000 C 
ATOM      9  C   UNL     1       5.728   2.842  11.698  0.00  0.00    +0.000 C 
ENDBRANCH   7   9
ENDBRANCH   6   7
ENDBRANCH   5   6
ENDBRANCH   4   5
ENDBRANCH   3   4
ENDBRANCH   2   3
ENDBRANCH   1   2
BRANCH   1  10
ATOM     10  C   UNL     1       3.365   6.714  18.683  0.00  0.00    +0.000 C 
BRANCH  10  11
ATOM     11  C   UNL     1       2.263   5.959  17.955  0.00  0.00    +0.000 C 
BRANCH  11  12
ATOM     12  N   UNL     1       2.242   4.544  18.399  0.00  0.00    +0.000 N 
ATOM     13  C   UNL     1       2.410   3.552  17.494  0.00  0.00    +0.000 A 
ATOM     14  C   UNL     1       2.313   2.220  17.879  0.00  0.00    +0.000 A 
ATOM     15  C   UNL     1       2.040   1.909  19.206  0.00  0.00    +0.000 A 
ATOM     16  C   UNL     1       1.875   2.937  20.133  0.00  0.00    +0.000 A 
ATOM     17  C   UNL     1       1.565   2.644  21.571  0.00  0.00    +0.000 C 
ATOM     18  C   UNL     1       1.998   4.258  19.700  0.00  0.00    +0.000 A 
ENDBRANCH  11  12
ENDBRANCH  10  11
ENDBRANCH   1  10
TORSDOF 10
ENDMDL
MODEL 4
REMARK VINA RESULT:      -5.4      1.521      2.411
REMARK  Name = 
REMARK  12 active torsions:
REMARK  status: ('A' for Active; 'I' for Inactive)
REMARK    1  A    between atoms: C_1  and  C_2
REMARK    2  A    between atoms: C_2  and  C_3
REMARK    3  A    between atoms: C_3  and  C_4
REMARK    4  A    between atoms: C_4  and  C_5
REMARK    5  A    between atoms: C_5  and  C_6
REMARK    6  A    between atoms: C_6  and  C_7
REMARK    7  A    between atoms: C_7  and  C_8
REMARK    8  A    between atoms: C_8  and  C_9
REMARK    9  A    between atoms: C_9  and  C_10
REMARK   10  A    between atoms: C_10  and  C_11
REMARK   11  A    between atoms: C_11  and  N_12
REMARK   12  A    between atoms: C_16  and  C_17
REMARK                            x       y       z     vdW  Elec       q    Type
REMARK                         _______ _______ _______ _____ _____    ______ ____
ROOT
ATOM      1  C   UNL     1       2.888   6.075  18.021  0.00  0.00    +0.000 C 
ENDROOT
BRANCH   1   2
ATOM      2  C   UNL     1       3.240   6.183  19.503  0.00  0.00    +0.000 C 
BRANCH   2   3
ATOM      3  C   UNL     1       2.513   5.132  20.337  0.00  0.00    +0.000 C 
BRANCH   3   4
ATOM      4  C   UNL     1       1.314   4.573  19.571  0.00  0.00    +0.000 C 
BRANCH   4   5
ATOM      5  C   UNL     1       0.955   3.176  20.065  0.00  0.00    +0.000 C 
BRANCH   5   6
ATOM      6  C   UNL     1       0.962   2.166  18.920  0.00  0.00    +0.000 C 
BRANCH   6   7
ATOM      7  C   UNL     1       2.199   2.351  18.045  0.00  0.00    +0.000 C 
BRANCH   7   9
ATOM      8  C   UNL     1       4.263   2.189  19.464  0.00  0.00    +0.000 C 
ATOM      9  C   UNL     1       3.344   1.453  18.504  0.00  0.00    +0.000 C 
ENDBRANCH   7   9
ENDBRANCH   6   7
ENDBRANCH   5   6
ENDBRANCH   4   5
ENDBRANCH   3   4
ENDBRANCH   2   3
ENDBRANCH   1   2
BRANCH   1  10
ATOM     10  C   UNL     1       3.883   5.167  17.297  0.00  0.00    +0.000 C 
BRANCH  10  11
ATOM     11  C   UNL     1       4.871   5.980  16.475  0.00  0.00    +0.000 C 
BRANCH  11  12
ATOM     12  N   UNL     1       6.093   6.247  17.271  0.00  0.00    +0.000 N 
ATOM     13  C   UNL     1       6.587   5.287  18.088  0.00  0.00    +0.000 A 
ATOM     14  C   UNL     1       7.683   5.546  18.901  0.00  0.00    +0.000 A 
ATOM     15  C   UNL     1       8.274   6.805  18.873  0.00  0.00    +0.000 A 
ATOM     16  C   UNL     1       7.763   7.785  18.024  0.00  0.00    +0.000 A 
ATOM     17  C   UNL     1       8.362   9.160  17.975  0.00  0.00    +0.000 C 
ATOM     18  C   UNL     1       6.671   7.470  17.215  0.00  0.00    +0.000 A 
ENDBRANCH  11  12
ENDBRANCH  10  11
ENDBRANCH   1  10
TORSDOF 10
ENDMDL
MODEL 5
REMARK VINA RESULT:      -5.4      0.738      1.036
REMARK  Name = 
REMARK  12 active torsions:
REMARK  status: ('A' for Active; 'I' for Inactive)
REMARK    1  A    between atoms: C_1  and  C_2
REMARK    2  A    between atoms: C_2  and  C_3
REMARK    3  A    between atoms: C_3  and  C_4
REMARK    4  A    between atoms: C_4  and  C_5
REMARK    5  A    between atoms: C_5  and  C_6
REMARK    6  A    between atoms: C_6  and  C_7
REMARK    7  A    between atoms: C_7  and  C_8
REMARK    8  A    between atoms: C_8  and  C_9
REMARK    9  A    between atoms: C_9  and  C_10
REMARK   10  A    between atoms: C_10  and  C_11
REMARK   11  A    between atoms: C_11  and  N_12
REMARK   12  A    between atoms: C_16  and  C_17
REMARK                            x       y       z     vdW  Elec       q    Type
REMARK                         _______ _______ _______ _____ _____    ______ ____
ROOT
ATOM      1  C   UNL     1       2.951   6.624  19.554  0.00  0.00    +0.000 C 
ENDROOT
BRANCH   1   2
ATOM      2  C   UNL     1       1.802   5.744  20.043  0.00  0.00    +0.000 C 
BRANCH   2   3
ATOM      3  C   UNL     1       2.288   4.652  20.992  0.00  0.00    +0.000 C 
BRANCH   3   4
ATOM      4  C   UNL     1       1.276   3.508  21.058  0.00  0.00    +0.000 C 
BRANCH   4   5
ATOM      5  C   UNL     1       1.934   2.178  20.706  0.00  0.00    +0.000 C 
BRANCH   5   6
ATOM      6  C   UNL     1       1.826   1.887  19.210  0.00  0.00    +0.000 C 
BRANCH   6   7
ATOM      7  C   UNL     1       3.204   1.619  18.612  0.00  0.00    +0.000 C 
BRANCH   7   9
ATOM      8  C   UNL     1       2.740   3.484  16.997  0.00  0.00    +0.000 C 
ATOM      9  C   UNL     1       3.766   2.864  17.930  0.00  0.00    +0.000 C 
ENDBRANCH   7   9
ENDBRANCH   6   7
ENDBRANCH   5   6
ENDBRANCH   4   5
ENDBRANCH   3   4
ENDBRANCH   2   3
ENDBRANCH   1   2
BRANCH   1  10
ATOM     10  C   UNL     1       2.908   6.766  18.032  0.00  0.00    +0.000 C 
BRANCH  10  11
ATOM     11  C   UNL     1       4.193   7.382  17.501  0.00  0.00    +0.000 C 
BRANCH  11  12
ATOM     12  N   UNL     1       5.160   6.312  17.153  0.00  0.00    +0.000 N 
ATOM     13  C   UNL     1       6.086   5.920  18.059  0.00  0.00    +0.000 A 
ATOM     14  C   UNL     1       7.049   4.978  17.723  0.00  0.00    +0.000 A 
ATOM     15  C   UNL     1       7.059   4.436  16.443  0.00  0.00    +0.000 A 
ATOM     16  C   UNL     1       6.097   4.840  15.518  0.00  0.00    +0.000 A 
ATOM     17  C   UNL     1       6.083   4.290  14.122  0.00  0.00    +0.000 C 
ATOM     18  C   UNL     1       5.141   5.777  15.909  0.00  0.00    +0.000 A 
ENDBRANCH  11  12
ENDBRANCH  10  11
ENDBRANCH   1  10
TORSDOF 10
ENDMDL
MODEL 6
REMARK VINA RESULT:      -5.3      1.497      3.561
REMARK  Name = 
REMARK  12 active torsions:
REMARK  status: ('A' for Active; 'I' for Inactive)
REMARK    1  A    between atoms: C_1  and  C_2
REMARK    2  A    between atoms: C_2  and  C_3
REMARK    3  A    between atoms: C_3  and  C_4
REMARK    4  A    between atoms: C_4  and  C_5
REMARK    5  A    between atoms: C_5  and  C_6
REMARK    6  A    between atoms: C_6  and  C_7
REMARK    7  A    between atoms: C_7  and  C_8
REMARK    8  A    between atoms: C_8  and  C_9
REMARK    9  A    between atoms: C_9  and  C_10
REMARK   10  A    between atoms: C_10  and  C_11
REMARK   11  A    between atoms: C_11  and  N_12
REMARK   12  A    between atoms: C_16  and  C_17
REMARK                            x       y       z     vdW  Elec       q    Type
REMARK                         _______ _______ _______ _____ _____    ______ ____
ROOT
ATOM      1  C   UNL     1       3.633   3.678  17.323  0.00  0.00    +0.000 C 
ENDROOT
BRANCH   1   2
ATOM      2  C   UNL     1       3.922   2.679  18.442  0.00  0.00    +0.000 C 
BRANCH   2   3
ATOM      3  C   UNL     1       2.896   1.550  18.473  0.00  0.00    +0.000 C 
BRANCH   3   4
ATOM      4  C   UNL     1       1.491   2.105  18.707  0.00  0.00    +0.000 C 
BRANCH   4   5
ATOM      5  C   UNL     1       1.388   2.766  20.076  0.00  0.00    +0.000 C 
BRANCH   5   6
ATOM      6  C   UNL     1       1.056   4.252  19.949  0.00  0.00    +0.000 C 
BRANCH   6   7
ATOM      7  C   UNL     1       1.968   5.086  20.844  0.00  0.00    +0.000 C 
BRANCH   7   9
ATOM      8  C   UNL     1       2.366   6.473  18.790  0.00  0.00    +0.000 C 
ATOM      9  C   UNL     1       2.148   6.498  20.293  0.00  0.00    +0.000 C 
ENDBRANCH   7   9
ENDBRANCH   6   7
ENDBRANCH   5   6
ENDBRANCH   4   5
ENDBRANCH   3   4
ENDBRANCH   2   3
ENDBRANCH   1   2
BRANCH   1  10
ATOM     10  C   UNL     1       4.878   3.893  16.462  0.00  0.00    +0.000 C 
BRANCH  10  11
ATOM     11  C   UNL     1       5.136   5.374  16.230  0.00  0.00    +0.000 C 
BRANCH  11  12
ATOM     12  N   UNL     1       6.258   5.832  17.086  0.00  0.00    +0.000 N 
ATOM     13  C   UNL     1       6.819   4.978  17.974  0.00  0.00    +0.000 A 
ATOM     14  C   UNL     1       7.816   5.412  18.839  0.00  0.00    +0.000 A 
ATOM     15  C   UNL     1       8.236   6.737  18.790  0.00  0.00    +0.000 A 
ATOM     16  C   UNL     1       7.658   7.607  17.867  0.00  0.00    +0.000 A 
ATOM     17  C   UNL     1       8.073   9.047  17.791  0.00  0.00    +0.000 C 
ATOM     18  C   UNL     1       6.672   7.119  17.009  0.00  0.00    +0.000 A 
ENDBRANCH  11  12
ENDBRANCH  10  11
ENDBRANCH   1  10
TORSDOF 10
ENDMDL
MODEL 7
REMARK VINA RESULT:      -5.3      2.534      5.871
REMARK  Name = 
REMARK  12 active torsions:
REMARK  status: ('A' for Active; 'I' for Inactive)
REMARK    1  A    between atoms: C_1  and  C_2
REMARK    2  A    between atoms: C_2  and  C_3
REMARK    3  A    between atoms: C_3  and  C_4
REMARK    4  A    between atoms: C_4  and  C_5
REMARK    5  A    between atoms: C_5  and  C_6
REMARK    6  A    between atoms: C_6  and  C_7
REMARK    7  A    between atoms: C_7  and  C_8
REMARK    8  A    between atoms: C_8  and  C_9
REMARK    9  A    between atoms: C_9  and  C_10
REMARK   10  A    between atoms: C_10  and  C_11
REMARK   11  A    between atoms: C_11  and  N_12
REMARK   12  A    between atoms: C_16  and  C_17
REMARK                            x       y       z     vdW  Elec       q    Type
REMARK                         _______ _______ _______ _____ _____    ______ ____
ROOT
ATOM      1  C   UNL     1       4.151   6.668  17.266  0.00  0.00    +0.000 C 
ENDROOT
BRANCH   1   2
ATOM      2  C   UNL     1       4.622   5.734  18.379  0.00  0.00    +0.000 C 
BRANCH   2   3
ATOM      3  C   UNL     1       4.945   4.339  17.851  0.00  0.00    +0.000 C 
BRANCH   3   4
ATOM      4  C   UNL     1       3.861   3.344  18.264  0.00  0.00    +0.000 C 
BRANCH   4   5
ATOM      5  C   UNL     1       2.678   3.398  17.304  0.00  0.00    +0.000 C 
BRANCH   5   6
ATOM      6  C   UNL     1       1.415   3.887  18.011  0.00  0.00    +0.000 C 
BRANCH   6   7
ATOM      7  C   UNL     1       1.077   2.986  19.196  0.00  0.00    +0.000 C 
BRANCH   7   9
ATOM      8  C   UNL     1       1.921   3.106  21.557  0.00  0.00    +0.000 C 
ATOM      9  C   UNL     1       1.052   3.772  20.503  0.00  0.00    +0.000 C 
ENDBRANCH   7   9
ENDBRANCH   6   7
ENDBRANCH   5   6
ENDBRANCH   4   5
ENDBRANCH   3   4
ENDBRANCH   2   3
ENDBRANCH   1   2
BRANCH   1  10
ATOM     10  C   UNL     1       3.243   7.761  17.830  0.00  0.00    +0.000 C 
BRANCH  10  11
ATOM     11  C   UNL     1       2.474   7.265  19.044  0.00  0.00    +0.000 C 
BRANCH  11  12
ATOM     12  N   UNL     1       1.637   8.358  19.594  0.00  0.00    +0.000 N 
ATOM     13  C   UNL     1       1.274   9.394  18.801  0.00  0.00    +0.000 A 
ATOM     14  C   UNL     1       0.559  10.465  19.319  0.00  0.00    +0.000 A 
ATOM     15  C   UNL     1       0.215  10.471  20.666  0.00  0.00    +0.000 A 
ATOM     16  C   UNL     1       0.586   9.397  21.475  0.00  0.00    +0.000 A 
ATOM     17  C   UNL     1       0.246   9.372  22.936  0.00  0.00    +0.000 C 
ATOM     18  C   UNL     1       1.289   8.338  20.903  0.00  0.00    +0.000 A 
ENDBRANCH  11  12
ENDBRANCH  10  11
ENDBRANCH   1  10
TORSDOF 10
ENDMDL
MODEL 8
REMARK VINA RESULT:      -5.3      2.400      6.656
REMARK  Name = 
REMARK  12 active torsions:
REMARK  status: ('A' for Active; 'I' for Inactive)
REMARK    1  A    between atoms: C_1  and  C_2
REMARK    2  A    between atoms: C_2  and  C_3
REMARK    3  A    between atoms: C_3  and  C_4
REMARK    4  A    between atoms: C_4  and  C_5
REMARK    5  A    between atoms: C_5  and  C_6
REMARK    6  A    between atoms: C_6  and  C_7
REMARK    7  A    between atoms: C_7  and  C_8
REMARK    8  A    between atoms: C_8  and  C_9
REMARK    9  A    between atoms: C_9  and  C_10
REMARK   10  A    between atoms: C_10  and  C_11
REMARK   11  A    between atoms: C_11  and  N_12
REMARK   12  A    between atoms: C_16  and  C_17
REMARK                            x       y       z     vdW  Elec       q    Type
REMARK                         _______ _______ _______ _____ _____    ______ ____
ROOT
ATOM      1  C   UNL     1       5.107   4.256  16.759  0.00  0.00    +0.000 C 
ENDROOT
BRANCH   1   2
ATOM      2  C   UNL     1       5.961   3.785  15.583  0.00  0.00    +0.000 C 
BRANCH   2   3
ATOM      3  C   UNL     1       6.333   4.938  14.655  0.00  0.00    +0.000 C 
BRANCH   3   4
ATOM      4  C   UNL     1       6.691   4.415  13.264  0.00  0.00    +0.000 C 
BRANCH   4   5
ATOM      5  C   UNL     1       6.165   2.998  13.064  0.00  0.00    +0.000 C 
BRANCH   5   6
ATOM      6  C   UNL     1       5.577   2.818  11.666  0.00  0.00    +0.000 C 
BRANCH   6   7
ATOM      7  C   UNL     1       4.309   3.652  11.503  0.00  0.00    +0.000 C 
BRANCH   7   9
ATOM      8  C   UNL     1       2.770   4.185   9.594  0.00  0.00    +0.000 C 
ATOM      9  C   UNL     1       3.401   3.077  10.421  0.00  0.00    +0.000 C 
ENDBRANCH   7   9
ENDBRANCH   6   7
ENDBRANCH   5   6
ENDBRANCH   4   5
ENDBRANCH   3   4
ENDBRANCH   2   3
ENDBRANCH   1   2
BRANCH   1  10
ATOM     10  C   UNL     1       5.934   5.122  17.710  0.00  0.00    +0.000 C 
BRANCH  10  11
ATOM     11  C   UNL     1       5.693   4.732  19.159  0.00  0.00    +0.000 C 
BRANCH  11  12
ATOM     12  N   UNL     1       4.253   4.865  19.487  0.00  0.00    +0.000 N 
ATOM     13  C   UNL     1       3.661   6.082  19.436  0.00  0.00    +0.000 A 
ATOM     14  C   UNL     1       2.334   6.239  19.816  0.00  0.00    +0.000 A 
ATOM     15  C   UNL     1       1.612   5.134  20.253  0.00  0.00    +0.000 A 
ATOM     16  C   UNL     1       2.227   3.884  20.296  0.00  0.00    +0.000 A 
ATOM     17  C   UNL     1       1.487   2.670  20.775  0.00  0.00    +0.000 C 
ATOM     18  C   UNL     1       3.557   3.775  19.888  0.00  0.00    +0.000 A 
ENDBRANCH  11  12
ENDBRANCH  10  11
ENDBRANCH   1  10
TORSDOF 10
ENDMDL
MODEL 9
REMARK VINA RESULT:      -5.2      1.882      6.375
REMARK  Name = 
REMARK  12 active torsions:
REMARK  status: ('A' for Active; 'I' for Inactive)
REMARK    1  A    between atoms: C_1  and  C_2
REMARK    2  A    between atoms: C_2  and  C_3
REMARK    3  A    between atoms: C_3  and  C_4
REMARK    4  A    between atoms: C_4  and  C_5
REMARK    5  A    between atoms: C_5  and  C_6
REMARK    6  A    between atoms: C_6  and  C_7
REMARK    7  A    between atoms: C_7  and  C_8
REMARK    8  A    between atoms: C_8  and  C_9
REMARK    9  A    between atoms: C_9  and  C_10
REMARK   10  A    between atoms: C_10  and  C_11
REMARK   11  A    between atoms: C_11  and  N_12
REMARK   12  A    between atoms: C_16  and  C_17
REMARK                            x       y       z     vdW  Elec       q    Type
REMARK                         _______ _______ _______ _____ _____    ______ ____
ROOT
ATOM      1  C   UNL     1       6.480   4.576  18.281  0.00  0.00    +0.000 C 
ENDROOT
BRANCH   1   2
ATOM      2  C   UNL     1       6.700   5.136  16.877  0.00  0.00    +0.000 C 
BRANCH   2   3
ATOM      3  C   UNL     1       6.658   4.040  15.816  0.00  0.00    +0.000 C 
BRANCH   3   4
ATOM      4  C   UNL     1       5.737   4.441  14.664  0.00  0.00    +0.000 C 
BRANCH   4   5
ATOM      5  C   UNL     1       6.544   4.913  13.460  0.00  0.00    +0.000 C 
BRANCH   5   6
ATOM      6  C   UNL     1       6.800   3.767  12.483  0.00  0.00    +0.000 C 
BRANCH   6   7
ATOM      7  C   UNL     1       5.483   3.194  11.967  0.00  0.00    +0.000 C 
BRANCH   7   9
ATOM      8  C   UNL     1       7.045   1.516  10.944  0.00  0.00    +0.000 C 
ATOM      9  C   UNL     1       5.650   1.752  11.498  0.00  0.00    +0.000 C 
ENDBRANCH   7   9
ENDBRANCH   6   7
ENDBRANCH   5   6
ENDBRANCH   4   5
ENDBRANCH   3   4
ENDBRANCH   2   3
ENDBRANCH   1   2
BRANCH   1  10
ATOM     10  C   UNL     1       5.505   5.456  19.063  0.00  0.00    +0.000 C 
BRANCH  10  11
ATOM     11  C   UNL     1       4.177   5.588  18.334  0.00  0.00    +0.000 C 
BRANCH  11  12
ATOM     12  N   UNL     1       3.349   4.380  18.570  0.00  0.00    +0.000 N 
ATOM     13  C   UNL     1       3.009   3.582  17.530  0.00  0.00    +0.000 A 
ATOM     14  C   UNL     1       2.169   2.493  17.721  0.00  0.00    +0.000 A 
ATOM     15  C   UNL     1       1.673   2.224  18.991  0.00  0.00    +0.000 A 
ATOM     16  C   UNL     1       2.033   3.047  20.057  0.00  0.00    +0.000 A 
ATOM     17  C   UNL     1       1.508   2.800  21.441  0.00  0.00    +0.000 C 
ATOM     18  C   UNL     1       2.893   4.119  19.818  0.00  0.00    +0.000 A 
ENDBRANCH  11  12
ENDBRANCH  10  11
ENDBRANCH   1  10
TORSDOF 10
ENDMDL
