MODEL 1
REMARK VINA RESULT:      -7.2      0.000      0.000
REMARK  Name = 
REMARK  8 active torsions:
REMARK  status: ('A' for Active; 'I' for Inactive)
REMARK    1  A    between atoms: C_1  and  C_2
REMARK    2  A    between atoms: C_2  and  O_3
REMARK    3  A    between atoms: O_3  and  C_4
REMARK    4  A    between atoms: C_7  and  C_8
REMARK    5  A    between atoms: N_10  and  O_11
REMARK    6  A    between atoms: N_10  and  C_19
REMARK    7  A    between atoms: O_11  and  C_12
REMARK    8  A    between atoms: C_12  and  C_13
REMARK                            x       y       z     vdW  Elec       q    Type
REMARK                         _______ _______ _______ _____ _____    ______ ____
ROOT
ATOM      1  C   UNL     1       5.296   6.071  15.575  0.00  0.00    +0.000 C 
ATOM      2  O   UNL     1       5.032   7.238  15.264  0.00  0.00    +0.000 OA
ATOM      3  N   UNL     1       5.092   5.565  16.865  0.00  0.00    +0.000 N 
ENDROOT
BRANCH   1   7
ATOM      4  C   UNL     1       6.570   3.331  12.462  0.00  0.00    +0.000 A 
ATOM      5  C   UNL     1       5.262   3.362  12.935  0.00  0.00    +0.000 A 
ATOM      6  C   UNL     1       4.878   4.297  13.901  0.00  0.00    +0.000 A 
ATOM      7  C   UNL     1       5.794   5.220  14.439  0.00  0.00    +0.000 A 
ATOM      8  C   UNL     1       7.110   5.162  13.974  0.00  0.00    +0.000 A 
ATOM      9  C   UNL     1       7.495   4.233  12.988  0.00  0.00    +0.000 A 
BRANCH   4  10
ATOM     10  O   UNL     1       6.818   2.375  11.521  0.00  0.00    +0.000 OA
BRANCH  10  12
ATOM     11  C   UNL     1       6.285   0.065  11.294  0.00  0.00    +0.000 C 
ATOM     12  C   UNL     1       5.755   1.484  11.191  0.00  0.00    +0.000 C 
ENDBRANCH  10  12
ENDBRANCH   4  10
ENDBRANCH   1   7
BRANCH   3  13
ATOM     13  C   UNL     1       5.800   4.427  17.483  0.00  0.00    +0.000 C 
ATOM     14  C   UNL     1       5.864   4.442  19.024  0.00  0.00    +0.000 C 
ATOM     15  C   UNL     1       7.349   4.740  18.825  0.00  0.00    +0.000 C 
ATOM     16  O   UNL     1       8.263   5.125  19.508  0.00  0.00    +0.000 OA
ATOM     17  N   UNL     1       7.268   4.504  17.494  0.00  0.00    +0.000 N 
ATOM     18  H   UNL     1       7.836   5.098  16.897  0.00  0.00    +0.000 HD
ENDBRANCH   3  13
BRANCH   3  19
ATOM     19  O   UNL     1       4.594   6.480  17.871  0.00  0.00    +0.000 OA
BRANCH  19  20
ATOM     20  C   UNL     1       3.158   6.551  17.836  0.00  0.00    +0.000 C 
BRANCH  20  21
ATOM     21  C   UNL     1       2.354   5.438  18.480  0.00  0.00    +0.000 A 
ATOM     22  C   UNL     1       1.855   4.317  17.817  0.00  0.00    +0.000 A 
ATOM     23  C   UNL     1       1.185   3.318  18.546  0.00  0.00    +0.000 A 
ATOM     24  C   UNL     1       1.027   3.424  19.929  0.00  0.00    +0.000 A 
ATOM     25  C   UNL     1       1.543   4.524  20.600  0.00  0.00    +0.000 A 
ATOM     26  C   UNL     1       2.212   5.513  19.880  0.00  0.00    +0.000 A 
ENDBRANCH  20  21
ENDBRANCH  19  20
ENDBRANCH   3  19
TORSDOF 7
ENDMDL
MODEL 2
REMARK VINA RESULT:      -7.2      2.426      4.062
REMARK  Name = 
REMARK  8 active torsions:
REMARK  status: ('A' for Active; 'I' for Inactive)
REMARK    1  A    between atoms: C_1  and  C_2
REMARK    2  A    between atoms: C_2  and  O_3
REMARK    3  A    between atoms: O_3  and  C_4
REMARK    4  A    between atoms: C_7  and  C_8
REMARK    5  A    between atoms: N_10  and  O_11
REMARK    6  A    between atoms: N_10  and  C_19
REMARK    7  A    between atoms: O_11  and  C_12
REMARK    8  A    between atoms: C_12  and  C_13
REMARK                            x       y       z     vdW  Elec       q    Type
REMARK                         _______ _______ _______ _____ _____    ______ ____
ROOT
ATOM      1  C   UNL     1       5.027   4.995  18.845  0.00  0.00    +0.000 C 
ATOM      2  O   UNL     1       5.549   5.731  19.690  0.00  0.00    +0.000 OA
ATOM      3  N   UNL     1       3.881   4.233  19.107  0.00  0.00    +0.000 N 
ENDROOT
BRANCH   1   7
ATOM      4  C   UNL     1       6.594   5.031  14.800  0.00  0.00    +0.000 A 
ATOM      5  C   UNL     1       5.440   5.720  15.156  0.00  0.00    +0.000 A 
ATOM      6  C   UNL     1       4.998   5.729  16.482  0.00  0.00    +0.000 A 
ATOM      7  C   UNL     1       5.685   5.031  17.493  0.00  0.00    +0.000 A 
ATOM      8  C   UNL     1       6.829   4.322  17.118  0.00  0.00    +0.000 A 
ATOM      9  C   UNL     1       7.286   4.327  15.787  0.00  0.00    +0.000 A 
BRANCH   4  10
ATOM     10  O   UNL     1       6.922   5.102  13.478  0.00  0.00    +0.000 OA
BRANCH  10  12
ATOM     11  C   UNL     1       5.509   3.476  12.461  0.00  0.00    +0.000 C 
ATOM     12  C   UNL     1       6.945   3.884  12.738  0.00  0.00    +0.000 C 
ENDBRANCH  10  12
ENDBRANCH   4  10
ENDBRANCH   1   7
BRANCH   3  13
ATOM     13  C   UNL     1       3.475   2.993  18.418  0.00  0.00    +0.000 C 
ATOM     14  C   UNL     1       2.354   3.151  17.370  0.00  0.00    +0.000 C 
ATOM     15  C   UNL     1       1.489   2.398  18.379  0.00  0.00    +0.000 C 
ATOM     16  O   UNL     1       0.315   2.185  18.537  0.00  0.00    +0.000 OA
ATOM     17  N   UNL     1       2.561   2.109  19.155  0.00  0.00    +0.000 N 
ATOM     18  H   UNL     1       2.405   2.120  20.159  0.00  0.00    +0.000 HD
ENDBRANCH   3  13
BRANCH   3  19
ATOM     19  O   UNL     1       3.330   4.293  20.445  0.00  0.00    +0.000 OA
BRANCH  19  20
ATOM     20  C   UNL     1       2.073   4.990  20.454  0.00  0.00    +0.000 C 
BRANCH  20  21
ATOM     21  C   UNL     1       2.008   6.392  19.879  0.00  0.00    +0.000 A 
ATOM     22  C   UNL     1       2.273   6.732  18.553  0.00  0.00    +0.000 A 
ATOM     23  C   UNL     1       2.107   8.063  18.130  0.00  0.00    +0.000 A 
ATOM     24  C   UNL     1       1.662   9.047  19.014  0.00  0.00    +0.000 A 
ATOM     25  C   UNL     1       1.372   8.711  20.329  0.00  0.00    +0.000 A 
ATOM     26  C   UNL     1       1.531   7.391  20.750  0.00  0.00    +0.000 A 
ENDBRANCH  20  21
ENDBRANCH  19  20
ENDBRANCH   3  19
TORSDOF 7
ENDMDL
MODEL 3
REMARK VINA RESULT:      -7.1      1.210      1.680
REMARK  Name = 
REMARK  8 active torsions:
REMARK  status: ('A' for Active; 'I' for Inactive)
REMARK    1  A    between atoms: C_1  and  C_2
REMARK    2  A    between atoms: C_2  and  O_3
REMARK    3  A    between atoms: O_3  and  C_4
REMARK    4  A    between atoms: C_7  and  C_8
REMARK    5  A    between atoms: N_10  and  O_11
REMARK    6  A    between atoms: N_10  and  C_19
REMARK    7  A    between atoms: O_11  and  C_12
REMARK    8  A    between atoms: C_12  and  C_13
REMARK                            x       y       z     vdW  Elec       q    Type
REMARK                         _______ _______ _______ _____ _____    ______ ____
ROOT
ATOM      1  C   UNL     1       5.243   6.124  16.069  0.00  0.00    +0.000 C 
ATOM      2  O   UNL     1       4.990   7.314  15.849  0.00  0.00    +0.000 OA
ATOM      3  N   UNL     1       5.031   5.521  17.315  0.00  0.00    +0.000 N 
ENDROOT
BRANCH   1   7
ATOM      4  C   UNL     1       6.514   3.623  12.761  0.00  0.00    +0.000 A 
ATOM      5  C   UNL     1       5.212   3.604  13.248  0.00  0.00    +0.000 A 
ATOM      6  C   UNL     1       4.827   4.465  14.280  0.00  0.00    +0.000 A 
ATOM      7  C   UNL     1       5.739   5.360  14.872  0.00  0.00    +0.000 A 
ATOM      8  C   UNL     1       7.050   5.351  14.390  0.00  0.00    +0.000 A 
ATOM      9  C   UNL     1       7.434   4.497  13.338  0.00  0.00    +0.000 A 
BRANCH   4  10
ATOM     10  O   UNL     1       6.763   2.738  11.752  0.00  0.00    +0.000 OA
BRANCH  10  12
ATOM     11  C   UNL     1       6.289   0.493  11.112  0.00  0.00    +0.000 C 
ATOM     12  C   UNL     1       5.702   1.870  11.360  0.00  0.00    +0.000 C 
ENDBRANCH  10  12
ENDBRANCH   4  10
ENDBRANCH   1   7
BRANCH   3  13
ATOM     13  C   UNL     1       5.728   4.332  17.844  0.00  0.00    +0.000 C 
ATOM     14  C   UNL     1       4.950   3.003  17.735  0.00  0.00    +0.000 C 
ATOM     15  C   UNL     1       4.824   3.109  19.254  0.00  0.00    +0.000 C 
ATOM     16  O   UNL     1       4.171   2.580  20.116  0.00  0.00    +0.000 OA
ATOM     17  N   UNL     1       5.688   4.151  19.303  0.00  0.00    +0.000 N 
ATOM     18  H   UNL     1       5.482   4.875  19.985  0.00  0.00    +0.000 HD
ENDBRANCH   3  13
BRANCH   3  19
ATOM     19  O   UNL     1       4.537   6.359  18.388  0.00  0.00    +0.000 OA
BRANCH  19  20
ATOM     20  C   UNL     1       3.102   6.444  18.354  0.00  0.00    +0.000 C 
BRANCH  20  21
ATOM     21  C   UNL     1       2.286   5.303  18.933  0.00  0.00    +0.000 A 
ATOM     22  C   UNL     1       1.914   5.177  20.271  0.00  0.00    +0.000 A 
ATOM     23  C   UNL     1       1.094   4.105  20.666  0.00  0.00    +0.000 A 
ATOM     24  C   UNL     1       0.631   3.174  19.735  0.00  0.00    +0.000 A 
ATOM     25  C   UNL     1       0.977   3.307  18.397  0.00  0.00    +0.000 A 
ATOM     26  C   UNL     1       1.786   4.372  18.001  0.00  0.00    +0.000 A 
ENDBRANCH  20  21
ENDBRANCH  19  20
ENDBRANCH   3  19
TORSDOF 7
ENDMDL
MODEL 4
REMARK VINA RESULT:      -7.1      2.348      7.746
REMARK  Name = 
REMARK  8 active torsions:
REMARK  status: ('A' for Active; 'I' for Inactive)
REMARK    1  A    between atoms: C_1  and  C_2
REMARK    2  A    between atoms: C_2  and  O_3
REMARK    3  A    between atoms: O_3  and  C_4
REMARK    4  A    between atoms: C_7  and  C_8
REMARK    5  A    between atoms: N_10  and  O_11
REMARK    6  A    between atoms: N_10  and  C_19
REMARK    7  A    between atoms: O_11  and  C_12
REMARK    8  A    between atoms: C_12  and  C_13
REMARK                            x       y       z     vdW  Elec       q    Type
REMARK                         _______ _______ _______ _____ _____    ______ ____
ROOT
ATOM      1  C   UNL     1       3.059   4.917  17.788  0.00  0.00    +0.000 C 
ATOM      2  O   UNL     1       2.238   4.158  17.262  0.00  0.00    +0.000 OA
ATOM      3  N   UNL     1       4.430   4.866  17.503  0.00  0.00    +0.000 N 
ENDROOT
BRANCH   1   7
ATOM      4  C   UNL     1       1.604   8.101  20.349  0.00  0.00    +0.000 A 
ATOM      5  C   UNL     1       1.981   8.324  19.029  0.00  0.00    +0.000 A 
ATOM      6  C   UNL     1       2.393   7.261  18.219  0.00  0.00    +0.000 A 
ATOM      7  C   UNL     1       2.460   5.943  18.710  0.00  0.00    +0.000 A 
ATOM      8  C   UNL     1       2.103   5.737  20.045  0.00  0.00    +0.000 A 
ATOM      9  C   UNL     1       1.670   6.804  20.856  0.00  0.00    +0.000 A 
BRANCH   4  10
ATOM     10  O   UNL     1       1.220   9.218  21.033  0.00  0.00    +0.000 OA
BRANCH  10  12
ATOM     11  C   UNL     1      -0.047   9.391  23.043  0.00  0.00    +0.000 C 
ATOM     12  C   UNL     1      -0.115   9.259  21.532  0.00  0.00    +0.000 C 
ENDBRANCH  10  12
ENDBRANCH   4  10
ENDBRANCH   1   7
BRANCH   3  13
ATOM     13  C   UNL     1       5.525   5.321  18.382  0.00  0.00    +0.000 C 
ATOM     14  C   UNL     1       6.733   5.956  17.662  0.00  0.00    +0.000 C 
ATOM     15  C   UNL     1       7.473   4.684  18.069  0.00  0.00    +0.000 C 
ATOM     16  O   UNL     1       8.508   4.142  17.775  0.00  0.00    +0.000 OA
ATOM     17  N   UNL     1       6.450   4.281  18.859  0.00  0.00    +0.000 N 
ATOM     18  H   UNL     1       6.262   3.283  18.878  0.00  0.00    +0.000 HD
ENDBRANCH   3  13
BRANCH   3  19
ATOM     19  O   UNL     1       4.884   3.840  16.587  0.00  0.00    +0.000 OA
BRANCH  19  20
ATOM     20  C   UNL     1       4.509   4.156  15.235  0.00  0.00    +0.000 C 
BRANCH  20  21
ATOM     21  C   UNL     1       5.577   4.148  14.158  0.00  0.00    +0.000 A 
ATOM     22  C   UNL     1       5.495   3.460  12.948  0.00  0.00    +0.000 A 
ATOM     23  C   UNL     1       6.527   3.594  12.001  0.00  0.00    +0.000 A 
ATOM     24  C   UNL     1       7.623   4.421  12.247  0.00  0.00    +0.000 A 
ATOM     25  C   UNL     1       7.700   5.129  13.438  0.00  0.00    +0.000 A 
ATOM     26  C   UNL     1       6.676   5.002  14.377  0.00  0.00    +0.000 A 
ENDBRANCH  20  21
ENDBRANCH  19  20
ENDBRANCH   3  19
TORSDOF 7
ENDMDL
MODEL 5
REMARK VINA RESULT:      -7.0      3.881      8.515
REMARK  Name = 
REMARK  8 active torsions:
REMARK  status: ('A' for Active; 'I' for Inactive)
REMARK    1  A    between atoms: C_1  and  C_2
REMARK    2  A    between atoms: C_2  and  O_3
REMARK    3  A    between atoms: O_3  and  C_4
REMARK    4  A    between atoms: C_7  and  C_8
REMARK    5  A    between atoms: N_10  and  O_11
REMARK    6  A    between atoms: N_10  and  C_19
REMARK    7  A    between atoms: O_11  and  C_12
REMARK    8  A    between atoms: C_12  and  C_13
REMARK                            x       y       z     vdW  Elec       q    Type
REMARK                         _______ _______ _______ _____ _____    ______ ____
ROOT
ATOM      1  C   UNL     1       2.693   7.139  18.280  0.00  0.00    +0.000 C 
ATOM      2  O   UNL     1       3.445   7.785  17.542  0.00  0.00    +0.000 OA
ATOM      3  N   UNL     1       2.626   5.740  18.256  0.00  0.00    +0.000 N 
ENDROOT
BRANCH   1   7
ATOM      4  C   UNL     1       0.583   9.837  20.941  0.00  0.00    +0.000 A 
ATOM      5  C   UNL     1       0.734  10.101  19.584  0.00  0.00    +0.000 A 
ATOM      6  C   UNL     1       1.373   9.180  18.749  0.00  0.00    +0.000 A 
ATOM      7  C   UNL     1       1.900   7.973  19.248  0.00  0.00    +0.000 A 
ATOM      8  C   UNL     1       1.763   7.732  20.617  0.00  0.00    +0.000 A 
ATOM      9  C   UNL     1       1.103   8.650  21.457  0.00  0.00    +0.000 A 
BRANCH   4  10
ATOM     10  O   UNL     1      -0.060  10.812  21.647  0.00  0.00    +0.000 OA
BRANCH  10  12
ATOM     11  C   UNL     1      -1.742  11.515  23.180  0.00  0.00    +0.000 C 
ATOM     12  C   UNL     1      -0.747  10.422  22.833  0.00  0.00    +0.000 C 
ENDBRANCH  10  12
ENDBRANCH   4  10
ENDBRANCH   1   7
BRANCH   3  13
ATOM     13  C   UNL     1       1.479   4.910  18.673  0.00  0.00    +0.000 C 
ATOM     14  C   UNL     1       1.662   4.141  19.998  0.00  0.00    +0.000 C 
ATOM     15  C   UNL     1       1.725   2.898  19.111  0.00  0.00    +0.000 C 
ATOM     16  O   UNL     1       2.055   1.747  19.240  0.00  0.00    +0.000 OA
ATOM     17  N   UNL     1       1.351   3.601  18.015  0.00  0.00    +0.000 N 
ATOM     18  H   UNL     1       1.787   3.332  17.138  0.00  0.00    +0.000 HD
ENDBRANCH   3  13
BRANCH   3  19
ATOM     19  O   UNL     1       3.449   5.048  17.287  0.00  0.00    +0.000 OA
BRANCH  19  20
ATOM     20  C   UNL     1       4.626   4.502  17.907  0.00  0.00    +0.000 C 
BRANCH  20  21
ATOM     21  C   UNL     1       5.866   5.368  18.013  0.00  0.00    +0.000 A 
ATOM     22  C   UNL     1       6.216   6.387  17.127  0.00  0.00    +0.000 A 
ATOM     23  C   UNL     1       7.360   7.166  17.379  0.00  0.00    +0.000 A 
ATOM     24  C   UNL     1       8.141   6.946  18.514  0.00  0.00    +0.000 A 
ATOM     25  C   UNL     1       7.786   5.951  19.414  0.00  0.00    +0.000 A 
ATOM     26  C   UNL     1       6.650   5.180  19.169  0.00  0.00    +0.000 A 
ENDBRANCH  20  21
ENDBRANCH  19  20
ENDBRANCH   3  19
TORSDOF 7
ENDMDL
MODEL 6
REMARK VINA RESULT:      -7.0      3.466      5.824
REMARK  Name = 
REMARK  8 active torsions:
REMARK  status: ('A' for Active; 'I' for Inactive)
REMARK    1  A    between atoms: C_1  and  C_2
REMARK    2  A    between atoms: C_2  and  O_3
REMARK    3  A    between atoms: O_3  and  C_4
REMARK    4  A    between atoms: C_7  and  C_8
REMARK    5  A    between atoms: N_10  and  O_11
REMARK    6  A    between atoms: N_10  and  C_19
REMARK    7  A    between atoms: O_11  and  C_12
REMARK    8  A    between atoms: C_12  and  C_13
REMARK                            x       y       z     vdW  Elec       q    Type
REMARK                         _______ _______ _______ _____ _____    ______ ____
ROOT
ATOM      1  C   UNL     1       5.371   4.689  17.172  0.00  0.00    +0.000 C 
ATOM      2  O   UNL     1       5.908   3.806  16.495  0.00  0.00    +0.000 OA
ATOM      3  N   UNL     1       3.995   4.710  17.438  0.00  0.00    +0.000 N 
ENDROOT
BRANCH   1   7
ATOM      4  C   UNL     1       8.236   7.674  18.474  0.00  0.00    +0.000 A 
ATOM      5  C   UNL     1       7.401   7.874  17.380  0.00  0.00    +0.000 A 
ATOM      6  C   UNL     1       6.452   6.910  17.025  0.00  0.00    +0.000 A 
ATOM      7  C   UNL     1       6.322   5.705  17.742  0.00  0.00    +0.000 A 
ATOM      8  C   UNL     1       7.184   5.506  18.824  0.00  0.00    +0.000 A 
ATOM      9  C   UNL     1       8.127   6.484  19.193  0.00  0.00    +0.000 A 
BRANCH   4  10
ATOM     10  O   UNL     1       9.115   8.689  18.717  0.00  0.00    +0.000 OA
BRANCH  10  12
ATOM     11  C   UNL     1       9.431  10.981  19.282  0.00  0.00    +0.000 C 
ATOM     12  C   UNL     1       8.712  10.010  18.364  0.00  0.00    +0.000 C 
ENDBRANCH  10  12
ENDBRANCH   4  10
ENDBRANCH   1   7
BRANCH   3  13
ATOM     13  C   UNL     1       3.183   5.898  17.763  0.00  0.00    +0.000 C 
ATOM     14  C   UNL     1       3.527   6.592  19.099  0.00  0.00    +0.000 C 
ATOM     15  C   UNL     1       2.184   6.040  19.575  0.00  0.00    +0.000 C 
ATOM     16  O   UNL     1       1.623   5.897  20.631  0.00  0.00    +0.000 OA
ATOM     17  N   UNL     1       1.849   5.639  18.325  0.00  0.00    +0.000 N 
ATOM     18  H   UNL     1       1.335   4.766  18.255  0.00  0.00    +0.000 HD
ENDBRANCH   3  13
BRANCH   3  19
ATOM     19  O   UNL     1       3.184   3.668  16.843  0.00  0.00    +0.000 OA
BRANCH  19  20
ATOM     20  C   UNL     1       3.249   2.460  17.619  0.00  0.00    +0.000 C 
BRANCH  20  21
ATOM     21  C   UNL     1       2.725   2.475  19.043  0.00  0.00    +0.000 A 
ATOM     22  C   UNL     1       3.513   2.566  20.190  0.00  0.00    +0.000 A 
ATOM     23  C   UNL     1       2.897   2.643  21.452  0.00  0.00    +0.000 A 
ATOM     24  C   UNL     1       1.507   2.648  21.573  0.00  0.00    +0.000 A 
ATOM     25  C   UNL     1       0.715   2.584  20.434  0.00  0.00    +0.000 A 
ATOM     26  C   UNL     1       1.323   2.512  19.181  0.00  0.00    +0.000 A 
ENDBRANCH  20  21
ENDBRANCH  19  20
ENDBRANCH   3  19
TORSDOF 7
ENDMDL
MODEL 7
REMARK VINA RESULT:      -6.9      2.303      7.786
REMARK  Name = 
REMARK  8 active torsions:
REMARK  status: ('A' for Active; 'I' for Inactive)
REMARK    1  A    between atoms: C_1  and  C_2
REMARK    2  A    between atoms: C_2  and  O_3
REMARK    3  A    between atoms: O_3  and  C_4
REMARK    4  A    between atoms: C_7  and  C_8
REMARK    5  A    between atoms: N_10  and  O_11
REMARK    6  A    between atoms: N_10  and  C_19
REMARK    7  A    between atoms: O_11  and  C_12
REMARK    8  A    between atoms: C_12  and  C_13
REMARK                            x       y       z     vdW  Elec       q    Type
REMARK                         _______ _______ _______ _____ _____    ______ ____
ROOT
ATOM      1  C   UNL     1       3.701   4.820  17.987  0.00  0.00    +0.000 C 
ATOM      2  O   UNL     1       3.149   3.737  17.762  0.00  0.00    +0.000 OA
ATOM      3  N   UNL     1       4.973   5.140  17.496  0.00  0.00    +0.000 N 
ENDROOT
BRANCH   1   7
ATOM      4  C   UNL     1       1.559   7.876  20.199  0.00  0.00    +0.000 A 
ATOM      5  C   UNL     1       2.074   8.103  18.927  0.00  0.00    +0.000 A 
ATOM      6  C   UNL     1       2.710   7.075  18.224  0.00  0.00    +0.000 A 
ATOM      7  C   UNL     1       2.870   5.792  18.780  0.00  0.00    +0.000 A 
ATOM      8  C   UNL     1       2.371   5.584  20.068  0.00  0.00    +0.000 A 
ATOM      9  C   UNL     1       1.713   6.612  20.769  0.00  0.00    +0.000 A 
BRANCH   4  10
ATOM     10  O   UNL     1       0.960   8.957  20.777  0.00  0.00    +0.000 OA
BRANCH  10  12
ATOM     11  C   UNL     1      -0.261   9.578  22.726  0.00  0.00    +0.000 C 
ATOM     12  C   UNL     1       1.076   9.096  22.191  0.00  0.00    +0.000 C 
ENDBRANCH  10  12
ENDBRANCH   4  10
ENDBRANCH   1   7
BRANCH   3  13
ATOM     13  C   UNL     1       5.919   6.114  18.076  0.00  0.00    +0.000 C 
ATOM     14  C   UNL     1       7.377   5.997  17.584  0.00  0.00    +0.000 C 
ATOM     15  C   UNL     1       7.668   5.481  18.992  0.00  0.00    +0.000 C 
ATOM     16  O   UNL     1       8.576   4.917  19.546  0.00  0.00    +0.000 OA
ATOM     17  N   UNL     1       6.425   5.805  19.422  0.00  0.00    +0.000 N 
ATOM     18  H   UNL     1       5.997   5.165  20.084  0.00  0.00    +0.000 HD
ENDBRANCH   3  13
BRANCH   3  19
ATOM     19  O   UNL     1       5.670   4.124  16.733  0.00  0.00    +0.000 OA
BRANCH  19  20
ATOM     20  C   UNL     1       5.077   3.961  15.433  0.00  0.00    +0.000 C 
BRANCH  20  21
ATOM     21  C   UNL     1       5.931   4.201  14.203  0.00  0.00    +0.000 A 
ATOM     22  C   UNL     1       7.051   5.030  14.149  0.00  0.00    +0.000 A 
ATOM     23  C   UNL     1       7.801   5.110  12.962  0.00  0.00    +0.000 A 
ATOM     24  C   UNL     1       7.450   4.358  11.840  0.00  0.00    +0.000 A 
ATOM     25  C   UNL     1       6.351   3.511  11.893  0.00  0.00    +0.000 A 
ATOM     26  C   UNL     1       5.609   3.426  13.071  0.00  0.00    +0.000 A 
ENDBRANCH  20  21
ENDBRANCH  19  20
ENDBRANCH   3  19
TORSDOF 7
ENDMDL
MODEL 8
REMARK VINA RESULT:      -6.9      3.410      8.040
REMARK  Name = 
REMARK  8 active torsions:
REMARK  status: ('A' for Active; 'I' for Inactive)
REMARK    1  A    between atoms: C_1  and  C_2
REMARK    2  A    between atoms: C_2  and  O_3
REMARK    3  A    between atoms: O_3  and  C_4
REMARK    4  A    between atoms: C_7  and  C_8
REMARK    5  A    between atoms: N_10  and  O_11
REMARK    6  A    between atoms: N_10  and  C_19
REMARK    7  A    between atoms: O_11  and  C_12
REMARK    8  A    between atoms: C_12  and  C_13
REMARK                            x       y       z     vdW  Elec       q    Type
REMARK                         _______ _______ _______ _____ _____    ______ ____
ROOT
ATOM      1  C   UNL     1       3.437   6.303  18.746  0.00  0.00    +0.000 C 
ATOM      2  O   UNL     1       4.484   6.679  18.207  0.00  0.00    +0.000 OA
ATOM      3  N   UNL     1       3.231   4.981  19.163  0.00  0.00    +0.000 N 
ENDROOT
BRANCH   1   7
ATOM      4  C   UNL     1       0.737   9.666  19.210  0.00  0.00    +0.000 A 
ATOM      5  C   UNL     1       1.272   9.307  17.978  0.00  0.00    +0.000 A 
ATOM      6  C   UNL     1       2.095   8.183  17.860  0.00  0.00    +0.000 A 
ATOM      7  C   UNL     1       2.427   7.392  18.977  0.00  0.00    +0.000 A 
ATOM      8  C   UNL     1       1.903   7.778  20.213  0.00  0.00    +0.000 A 
ATOM      9  C   UNL     1       1.059   8.898  20.330  0.00  0.00    +0.000 A 
BRANCH   4  10
ATOM     10  O   UNL     1      -0.052  10.779  19.192  0.00  0.00    +0.000 OA
BRANCH  10  12
ATOM     11  C   UNL     1      -0.812  12.090  21.029  0.00  0.00    +0.000 C 
ATOM     12  C   UNL     1       0.318  11.862  20.041  0.00  0.00    +0.000 C 
ENDBRANCH  10  12
ENDBRANCH   4  10
ENDBRANCH   1   7
BRANCH   3  13
ATOM     13  C   UNL     1       1.929   4.307  19.331  0.00  0.00    +0.000 C 
ATOM     14  C   UNL     1       1.192   4.607  20.653  0.00  0.00    +0.000 C 
ATOM     15  C   UNL     1       1.533   3.162  21.014  0.00  0.00    +0.000 C 
ATOM     16  O   UNL     1       1.528   2.484  22.009  0.00  0.00    +0.000 OA
ATOM     17  N   UNL     1       1.975   2.902  19.760  0.00  0.00    +0.000 N 
ATOM     18  H   UNL     1       2.779   2.285  19.685  0.00  0.00    +0.000 HD
ENDBRANCH   3  13
BRANCH   3  19
ATOM     19  O   UNL     1       4.286   4.025  18.897  0.00  0.00    +0.000 OA
BRANCH  19  20
ATOM     20  C   UNL     1       4.230   3.563  17.537  0.00  0.00    +0.000 C 
BRANCH  20  21
ATOM     21  C   UNL     1       5.274   4.054  16.552  0.00  0.00    +0.000 A 
ATOM     22  C   UNL     1       6.574   4.437  16.881  0.00  0.00    +0.000 A 
ATOM     23  C   UNL     1       7.469   4.806  15.861  0.00  0.00    +0.000 A 
ATOM     24  C   UNL     1       7.080   4.777  14.521  0.00  0.00    +0.000 A 
ATOM     25  C   UNL     1       5.796   4.373  14.183  0.00  0.00    +0.000 A 
ATOM     26  C   UNL     1       4.908   4.002  15.192  0.00  0.00    +0.000 A 
ENDBRANCH  20  21
ENDBRANCH  19  20
ENDBRANCH   3  19
TORSDOF 7
ENDMDL
MODEL 9
REMARK VINA RESULT:      -6.9      0.292      1.389
REMARK  Name = 
REMARK  8 active torsions:
REMARK  status: ('A' for Active; 'I' for Inactive)
REMARK    1  A    between atoms: C_1  and  C_2
REMARK    2  A    between atoms: C_2  and  O_3
REMARK    3  A    between atoms: O_3  and  C_4
REMARK    4  A    between atoms: C_7  and  C_8
REMARK    5  A    between atoms: N_10  and  O_11
REMARK    6  A    between atoms: N_10  and  C_19
REMARK    7  A    between atoms: O_11  and  C_12
REMARK    8  A    between atoms: C_12  and  C_13
REMARK                            x       y       z     vdW  Elec       q    Type
REMARK                         _______ _______ _______ _____ _____    ______ ____
ROOT
ATOM      1  C   UNL     1       5.268   5.963  15.568  0.00  0.00    +0.000 C 
ATOM      2  O   UNL     1       5.073   7.100  15.125  0.00  0.00    +0.000 OA
ATOM      3  N   UNL     1       5.061   5.626  16.912  0.00  0.00    +0.000 N 
ENDROOT
BRANCH   1   7
ATOM      4  C   UNL     1       6.643   3.324  12.412  0.00  0.00    +0.000 A 
ATOM      5  C   UNL     1       7.487   4.232  13.041  0.00  0.00    +0.000 A 
ATOM      6  C   UNL     1       7.019   5.027  14.091  0.00  0.00    +0.000 A 
ATOM      7  C   UNL     1       5.685   4.953  14.535  0.00  0.00    +0.000 A 
ATOM      8  C   UNL     1       4.841   4.054  13.878  0.00  0.00    +0.000 A 
ATOM      9  C   UNL     1       5.315   3.239  12.832  0.00  0.00    +0.000 A 
BRANCH   4  10
ATOM     10  O   UNL     1       7.219   2.606  11.405  0.00  0.00    +0.000 OA
BRANCH  10  12
ATOM     11  C   UNL     1       6.495   0.337  11.346  0.00  0.00    +0.000 C 
ATOM     12  C   UNL     1       6.389   1.699  10.683  0.00  0.00    +0.000 C 
ENDBRANCH  10  12
ENDBRANCH   4  10
ENDBRANCH   1   7
BRANCH   3  13
ATOM     13  C   UNL     1       5.707   4.524  17.650  0.00  0.00    +0.000 C 
ATOM     14  C   UNL     1       5.836   4.731  19.174  0.00  0.00    +0.000 C 
ATOM     15  C   UNL     1       7.329   4.882  18.891  0.00  0.00    +0.000 C 
ATOM     16  O   UNL     1       8.297   5.278  19.488  0.00  0.00    +0.000 OA
ATOM     17  N   UNL     1       7.176   4.485  17.605  0.00  0.00    +0.000 N 
ATOM     18  H   UNL     1       7.761   4.952  16.918  0.00  0.00    +0.000 HD
ENDBRANCH   3  13
BRANCH   3  19
ATOM     19  O   UNL     1       4.645   6.685  17.809  0.00  0.00    +0.000 OA
BRANCH  19  20
ATOM     20  C   UNL     1       3.212   6.747  17.902  0.00  0.00    +0.000 C 
BRANCH  20  21
ATOM     21  C   UNL     1       2.481   5.676  18.688  0.00  0.00    +0.000 A 
ATOM     22  C   UNL     1       2.215   5.719  20.056  0.00  0.00    +0.000 A 
ATOM     23  C   UNL     1       1.463   4.691  20.652  0.00  0.00    +0.000 A 
ATOM     24  C   UNL     1       0.962   3.635  19.889  0.00  0.00    +0.000 A 
ATOM     25  C   UNL     1       1.200   3.597  18.522  0.00  0.00    +0.000 A 
ATOM     26  C   UNL     1       1.942   4.618  17.928  0.00  0.00    +0.000 A 
ENDBRANCH  20  21
ENDBRANCH  19  20
ENDBRANCH   3  19
TORSDOF 7
ENDMDL
