MODEL 1
REMARK VINA RESULT:      -8.0      0.000      0.000
REMARK  Name = 
REMARK  5 active torsions:
REMARK  status: ('A' for Active; 'I' for Inactive)
REMARK    1  A    between atoms: C_1  and  C_2
REMARK    2  A    between atoms: C_2  and  C_3
REMARK    3  A    between atoms: C_2  and  C_4
REMARK    4  A    between atoms: C_4  and  N_5
REMARK    5  A    between atoms: N_11  and  C_12
REMARK                            x       y       z     vdW  Elec       q    Type
REMARK                         _______ _______ _______ _____ _____    ______ ____
ROOT
ATOM      1  N   UNL     1       6.362   4.482  13.272  0.00  0.00    +0.000 N 
ATOM      2  C   UNL     1       7.324   5.131  13.985  0.00  0.00    +0.000 C 
ATOM      3  N   UNL     1       8.420   5.606  13.503  0.00  0.00    +0.000 NA
ATOM      4  N   UNL     1       7.042   5.285  15.311  0.00  0.00    +0.000 N 
ATOM      5  C   UNL     1       6.389   4.464  16.186  0.00  0.00    +0.000 C 
ATOM      6  N   UNL     1       6.269   3.192  15.958  0.00  0.00    +0.000 NA
ATOM      7  N   UNL     1       5.839   5.080  17.278  0.00  0.00    +0.000 N 
ATOM      8  H   UNL     1       5.569   4.189  13.838  0.00  0.00    +0.000 HD
ATOM      9  H   UNL     1       8.447   5.412  12.500  0.00  0.00    +0.000 HD
ATOM     10  H   UNL     1       7.722   5.897  15.742  0.00  0.00    +0.000 HD
ATOM     11  H   UNL     1       6.806   2.969  15.115  0.00  0.00    +0.000 HD
ATOM     12  H   UNL     1       6.046   6.054  17.453  0.00  0.00    +0.000 HD
ENDROOT
BRANCH   7  13
ATOM     13  C   UNL     1       4.684   4.600  17.937  0.00  0.00    +0.000 A 
ATOM     14  C   UNL     1       4.807   3.828  19.103  0.00  0.00    +0.000 A 
ATOM     15  C   UNL     1       3.675   3.249  19.695  0.00  0.00    +0.000 A 
ATOM     16  C   UNL     1       2.420   3.454  19.131  0.00  0.00    +0.000 A 
ATOM     17  F   UNL     1       1.344   2.882  19.688  0.00  0.00    +0.000 F 
ATOM     18  C   UNL     1       2.283   4.236  17.998  0.00  0.00    +0.000 A 
ATOM     19  F   UNL     1       1.075   4.446  17.455  0.00  0.00    +0.000 F 
ATOM     20  C   UNL     1       3.402   4.803  17.405  0.00  0.00    +0.000 A 
ENDBRANCH   7  13
BRANCH   1  21
ATOM     21  C   UNL     1       6.606   3.643  12.112  0.00  0.00    +0.000 C 
BRANCH  21  23
ATOM     22  C   UNL     1       4.250   3.139  11.239  0.00  0.00    +0.000 C 
ATOM     23  C   UNL     1       5.509   2.579  11.905  0.00  0.00    +0.000 C 
ATOM     24  C   UNL     1       6.022   1.356  11.144  0.00  0.00    +0.000 C 
ENDBRANCH  21  23
ENDBRANCH   1  21
TORSDOF 3
ENDMDL
MODEL 2
REMARK VINA RESULT:      -8.0      0.885      1.626
REMARK  Name = 
REMARK  5 active torsions:
REMARK  status: ('A' for Active; 'I' for Inactive)
REMARK    1  A    between atoms: C_1  and  C_2
REMARK    2  A    between atoms: C_2  and  C_3
REMARK    3  A    between atoms: C_2  and  C_4
REMARK    4  A    between atoms: C_4  and  N_5
REMARK    5  A    between atoms: N_11  and  C_12
REMARK                            x       y       z     vdW  Elec       q    Type
REMARK                         _______ _______ _______ _____ _____    ______ ____
ROOT
ATOM      1  N   UNL     1       6.076   4.383  13.515  0.00  0.00    +0.000 N 
ATOM      2  C   UNL     1       6.954   5.016  14.343  0.00  0.00    +0.000 C 
ATOM      3  N   UNL     1       8.071   5.547  13.982  0.00  0.00    +0.000 NA
ATOM      4  N   UNL     1       6.558   5.084  15.646  0.00  0.00    +0.000 N 
ATOM      5  C   UNL     1       5.862   4.195  16.415  0.00  0.00    +0.000 C 
ATOM      6  N   UNL     1       5.802   2.936  16.107  0.00  0.00    +0.000 NA
ATOM      7  N   UNL     1       5.203   4.731  17.490  0.00  0.00    +0.000 N 
ATOM      8  H   UNL     1       5.249   4.036  13.995  0.00  0.00    +0.000 HD
ATOM      9  H   UNL     1       8.186   5.413  12.976  0.00  0.00    +0.000 HD
ATOM     10  H   UNL     1       7.179   5.688  16.167  0.00  0.00    +0.000 HD
ATOM     11  H   UNL     1       6.414   2.777  15.301  0.00  0.00    +0.000 HD
ATOM     12  H   UNL     1       5.363   5.698  17.736  0.00  0.00    +0.000 HD
ENDROOT
BRANCH   7  13
ATOM     13  C   UNL     1       4.013   4.182  18.021  0.00  0.00    +0.000 A 
ATOM     14  C   UNL     1       2.784   4.411  17.383  0.00  0.00    +0.000 A 
ATOM     15  C   UNL     1       1.587   3.973  17.966  0.00  0.00    +0.000 A 
ATOM     16  C   UNL     1       1.620   3.292  19.179  0.00  0.00    +0.000 A 
ATOM     17  F   UNL     1       0.472   2.892  19.744  0.00  0.00    +0.000 F 
ATOM     18  C   UNL     1       2.827   3.035  19.804  0.00  0.00    +0.000 A 
ATOM     19  F   UNL     1       2.866   2.370  20.968  0.00  0.00    +0.000 F 
ATOM     20  C   UNL     1       4.013   3.475  19.233  0.00  0.00    +0.000 A 
ENDBRANCH   7  13
BRANCH   1  21
ATOM     21  C   UNL     1       6.442   3.621  12.335  0.00  0.00    +0.000 C 
BRANCH  21  23
ATOM     22  C   UNL     1       4.190   3.159  11.204  0.00  0.00    +0.000 C 
ATOM     23  C   UNL     1       5.384   2.566  11.955  0.00  0.00    +0.000 C 
ATOM     24  C   UNL     1       5.983   1.396  11.174  0.00  0.00    +0.000 C 
ENDBRANCH  21  23
ENDBRANCH   1  21
TORSDOF 3
ENDMDL
MODEL 3
REMARK VINA RESULT:      -7.5      1.210      1.896
REMARK  Name = 
REMARK  5 active torsions:
REMARK  status: ('A' for Active; 'I' for Inactive)
REMARK    1  A    between atoms: C_1  and  C_2
REMARK    2  A    between atoms: C_2  and  C_3
REMARK    3  A    between atoms: C_2  and  C_4
REMARK    4  A    between atoms: C_4  and  N_5
REMARK    5  A    between atoms: N_11  and  C_12
REMARK                            x       y       z     vdW  Elec       q    Type
REMARK                         _______ _______ _______ _____ _____    ______ ____
ROOT
ATOM      1  N   UNL     1       6.022   4.047  13.839  0.00  0.00    +0.000 N 
ATOM      2  C   UNL     1       6.746   5.061  14.393  0.00  0.00    +0.000 C 
ATOM      3  N   UNL     1       7.781   5.616  13.863  0.00  0.00    +0.000 NA
ATOM      4  N   UNL     1       6.278   5.502  15.595  0.00  0.00    +0.000 N 
ATOM      5  C   UNL     1       5.692   4.827  16.628  0.00  0.00    +0.000 C 
ATOM      6  N   UNL     1       5.849   3.546  16.773  0.00  0.00    +0.000 NA
ATOM      7  N   UNL     1       4.903   5.578  17.456  0.00  0.00    +0.000 N 
ATOM      8  H   UNL     1       5.237   3.752  14.415  0.00  0.00    +0.000 HD
ATOM      9  H   UNL     1       7.968   5.168  12.965  0.00  0.00    +0.000 HD
ATOM     10  H   UNL     1       6.768   6.342  15.872  0.00  0.00    +0.000 HD
ATOM     11  H   UNL     1       6.518   3.227  16.067  0.00  0.00    +0.000 HD
ATOM     12  H   UNL     1       4.894   6.584  17.353  0.00  0.00    +0.000 HD
ENDROOT
BRANCH   7  13
ATOM     13  C   UNL     1       3.789   5.054  18.151  0.00  0.00    +0.000 A 
ATOM     14  C   UNL     1       2.708   4.507  17.442  0.00  0.00    +0.000 A 
ATOM     15  C   UNL     1       1.551   4.094  18.117  0.00  0.00    +0.000 A 
ATOM     16  C   UNL     1       1.479   4.214  19.502  0.00  0.00    +0.000 A 
ATOM     17  F   UNL     1       0.364   3.838  20.141  0.00  0.00    +0.000 F 
ATOM     18  C   UNL     1       2.549   4.726  20.215  0.00  0.00    +0.000 A 
ATOM     19  F   UNL     1       2.490   4.834  21.549  0.00  0.00    +0.000 F 
ATOM     20  C   UNL     1       3.693   5.142  19.548  0.00  0.00    +0.000 A 
ENDBRANCH   7  13
BRANCH   1  21
ATOM     21  C   UNL     1       6.565   3.000  12.992  0.00  0.00    +0.000 C 
BRANCH  21  23
ATOM     22  C   UNL     1       5.816   1.405  11.132  0.00  0.00    +0.000 C 
ATOM     23  C   UNL     1       5.783   2.836  11.673  0.00  0.00    +0.000 C 
ATOM     24  C   UNL     1       4.343   3.336  11.786  0.00  0.00    +0.000 C 
ENDBRANCH  21  23
ENDBRANCH   1  21
TORSDOF 3
ENDMDL
MODEL 4
REMARK VINA RESULT:      -7.4      1.009      1.142
REMARK  Name = 
REMARK  5 active torsions:
REMARK  status: ('A' for Active; 'I' for Inactive)
REMARK    1  A    between atoms: C_1  and  C_2
REMARK    2  A    between atoms: C_2  and  C_3
REMARK    3  A    between atoms: C_2  and  C_4
REMARK    4  A    between atoms: C_4  and  N_5
REMARK    5  A    between atoms: N_11  and  C_12
REMARK                            x       y       z     vdW  Elec       q    Type
REMARK                         _______ _______ _______ _____ _____    ______ ____
ROOT
ATOM      1  N   UNL     1       6.236   4.440  13.320  0.00  0.00    +0.000 N 
ATOM      2  C   UNL     1       7.099   5.172  14.079  0.00  0.00    +0.000 C 
ATOM      3  N   UNL     1       8.239   5.626  13.687  0.00  0.00    +0.000 NA
ATOM      4  N   UNL     1       6.660   5.437  15.343  0.00  0.00    +0.000 N 
ATOM      5  C   UNL     1       5.917   4.683  16.206  0.00  0.00    +0.000 C 
ATOM      6  N   UNL     1       5.840   3.394  16.083  0.00  0.00    +0.000 NA
ATOM      7  N   UNL     1       5.233   5.382  17.165  0.00  0.00    +0.000 N 
ATOM      8  H   UNL     1       5.385   4.181  13.814  0.00  0.00    +0.000 HD
ATOM      9  H   UNL     1       8.387   5.344  12.716  0.00  0.00    +0.000 HD
ATOM     10  H   UNL     1       7.276   6.101  15.793  0.00  0.00    +0.000 HD
ATOM     11  H   UNL     1       6.475   3.108  15.332  0.00  0.00    +0.000 HD
ATOM     12  H   UNL     1       5.406   6.372  17.274  0.00  0.00    +0.000 HD
ENDROOT
BRANCH   7  13
ATOM     13  C   UNL     1       4.014   4.937  17.725  0.00  0.00    +0.000 A 
ATOM     14  C   UNL     1       3.353   5.718  18.687  0.00  0.00    +0.000 A 
ATOM     15  C   UNL     1       2.209   5.231  19.334  0.00  0.00    +0.000 A 
ATOM     16  C   UNL     1       1.716   3.971  19.009  0.00  0.00    +0.000 A 
ATOM     17  F   UNL     1       0.634   3.501  19.645  0.00  0.00    +0.000 F 
ATOM     18  C   UNL     1       2.342   3.203  18.044  0.00  0.00    +0.000 A 
ATOM     19  F   UNL     1       1.866   1.993  17.720  0.00  0.00    +0.000 F 
ATOM     20  C   UNL     1       3.480   3.679  17.408  0.00  0.00    +0.000 A 
ENDBRANCH   7  13
BRANCH   1  21
ATOM     21  C   UNL     1       6.626   3.507  12.278  0.00  0.00    +0.000 C 
BRANCH  21  23
ATOM     22  C   UNL     1       4.299   3.142  11.268  0.00  0.00    +0.000 C 
ATOM     23  C   UNL     1       5.513   2.495  11.938  0.00  0.00    +0.000 C 
ATOM     24  C   UNL     1       6.029   1.323  11.102  0.00  0.00    +0.000 C 
ENDBRANCH  21  23
ENDBRANCH   1  21
TORSDOF 3
ENDMDL
MODEL 5
REMARK VINA RESULT:      -7.4      1.166      1.435
REMARK  Name = 
REMARK  5 active torsions:
REMARK  status: ('A' for Active; 'I' for Inactive)
REMARK    1  A    between atoms: C_1  and  C_2
REMARK    2  A    between atoms: C_2  and  C_3
REMARK    3  A    between atoms: C_2  and  C_4
REMARK    4  A    between atoms: C_4  and  N_5
REMARK    5  A    between atoms: N_11  and  C_12
REMARK                            x       y       z     vdW  Elec       q    Type
REMARK                         _______ _______ _______ _____ _____    ______ ____
ROOT
ATOM      1  N   UNL     1       5.908   4.032  13.982  0.00  0.00    +0.000 N 
ATOM      2  C   UNL     1       6.685   5.042  14.463  0.00  0.00    +0.000 C 
ATOM      3  N   UNL     1       7.739   5.512  13.891  0.00  0.00    +0.000 NA
ATOM      4  N   UNL     1       6.253   5.581  15.640  0.00  0.00    +0.000 N 
ATOM      5  C   UNL     1       5.648   5.001  16.718  0.00  0.00    +0.000 C 
ATOM      6  N   UNL     1       5.746   3.726  16.943  0.00  0.00    +0.000 NA
ATOM      7  N   UNL     1       4.906   5.841  17.504  0.00  0.00    +0.000 N 
ATOM      8  H   UNL     1       5.116   3.811  14.582  0.00  0.00    +0.000 HD
ATOM      9  H   UNL     1       7.894   5.000  13.021  0.00  0.00    +0.000 HD
ATOM     10  H   UNL     1       6.786   6.412  15.858  0.00  0.00    +0.000 HD
ATOM     11  H   UNL     1       6.391   3.331  16.253  0.00  0.00    +0.000 HD
ATOM     12  H   UNL     1       4.944   6.838  17.337  0.00  0.00    +0.000 HD
ENDROOT
BRANCH   7  13
ATOM     13  C   UNL     1       3.777   5.415  18.241  0.00  0.00    +0.000 A 
ATOM     14  C   UNL     1       3.716   5.634  19.627  0.00  0.00    +0.000 A 
ATOM     15  C   UNL     1       2.658   5.111  20.383  0.00  0.00    +0.000 A 
ATOM     16  C   UNL     1       1.654   4.382  19.754  0.00  0.00    +0.000 A 
ATOM     17  F   UNL     1       0.655   3.867  20.483  0.00  0.00    +0.000 F 
ATOM     18  C   UNL     1       1.688   4.183  18.385  0.00  0.00    +0.000 A 
ATOM     19  F   UNL     1       0.718   3.491  17.771  0.00  0.00    +0.000 F 
ATOM     20  C   UNL     1       2.738   4.693  17.635  0.00  0.00    +0.000 A 
ENDBRANCH   7  13
BRANCH   1  21
ATOM     21  C   UNL     1       6.389   2.908  13.198  0.00  0.00    +0.000 C 
BRANCH  21  23
ATOM     22  C   UNL     1       5.955   1.525  11.085  0.00  0.00    +0.000 C 
ATOM     23  C   UNL     1       5.811   2.887  11.769  0.00  0.00    +0.000 C 
ATOM     24  C   UNL     1       4.358   3.361  11.724  0.00  0.00    +0.000 C 
ENDBRANCH  21  23
ENDBRANCH   1  21
TORSDOF 3
ENDMDL
MODEL 6
REMARK VINA RESULT:      -7.3      2.766      4.741
REMARK  Name = 
REMARK  5 active torsions:
REMARK  status: ('A' for Active; 'I' for Inactive)
REMARK    1  A    between atoms: C_1  and  C_2
REMARK    2  A    between atoms: C_2  and  C_3
REMARK    3  A    between atoms: C_2  and  C_4
REMARK    4  A    between atoms: C_4  and  N_5
REMARK    5  A    between atoms: N_11  and  C_12
REMARK                            x       y       z     vdW  Elec       q    Type
REMARK                         _______ _______ _______ _____ _____    ______ ____
ROOT
ATOM      1  N   UNL     1       6.619   4.939  16.637  0.00  0.00    +0.000 N 
ATOM      2  C   UNL     1       5.948   4.458  15.553  0.00  0.00    +0.000 C 
ATOM      3  N   UNL     1       6.343   4.546  14.330  0.00  0.00    +0.000 NA
ATOM      4  N   UNL     1       4.779   3.818  15.846  0.00  0.00    +0.000 N 
ATOM      5  C   UNL     1       3.845   4.064  16.810  0.00  0.00    +0.000 C 
ATOM      6  N   UNL     1       3.745   5.230  17.373  0.00  0.00    +0.000 NA
ATOM      7  N   UNL     1       3.066   2.996  17.167  0.00  0.00    +0.000 N 
ATOM      8  H   UNL     1       6.140   4.763  17.518  0.00  0.00    +0.000 HD
ATOM      9  H   UNL     1       7.239   5.037  14.311  0.00  0.00    +0.000 HD
ATOM     10  H   UNL     1       4.415   3.364  15.019  0.00  0.00    +0.000 HD
ATOM     11  H   UNL     1       4.394   5.866  16.902  0.00  0.00    +0.000 HD
ATOM     12  H   UNL     1       3.122   2.141  16.629  0.00  0.00    +0.000 HD
ENDROOT
BRANCH   7  13
ATOM     13  C   UNL     1       2.512   2.839  18.458  0.00  0.00    +0.000 A 
ATOM     14  C   UNL     1       1.159   3.135  18.687  0.00  0.00    +0.000 A 
ATOM     15  C   UNL     1       0.632   3.096  19.985  0.00  0.00    +0.000 A 
ATOM     16  C   UNL     1       1.453   2.747  21.053  0.00  0.00    +0.000 A 
ATOM     17  F   UNL     1       0.950   2.731  22.295  0.00  0.00    +0.000 F 
ATOM     18  C   UNL     1       2.781   2.426  20.837  0.00  0.00    +0.000 A 
ATOM     19  F   UNL     1       3.574   2.079  21.861  0.00  0.00    +0.000 F 
ATOM     20  C   UNL     1       3.308   2.471  19.554  0.00  0.00    +0.000 A 
ENDBRANCH   7  13
BRANCH   1  21
ATOM     21  C   UNL     1       7.456   6.126  16.642  0.00  0.00    +0.000 C 
BRANCH  21  23
ATOM     22  C   UNL     1       7.951   6.096  19.156  0.00  0.00    +0.000 C 
ATOM     23  C   UNL     1       7.391   6.895  17.977  0.00  0.00    +0.000 C 
ATOM     24  C   UNL     1       8.060   8.267  17.890  0.00  0.00    +0.000 C 
ENDBRANCH  21  23
ENDBRANCH   1  21
TORSDOF 3
ENDMDL
MODEL 7
REMARK VINA RESULT:      -7.2      0.670      1.745
REMARK  Name = 
REMARK  5 active torsions:
REMARK  status: ('A' for Active; 'I' for Inactive)
REMARK    1  A    between atoms: C_1  and  C_2
REMARK    2  A    between atoms: C_2  and  C_3
REMARK    3  A    between atoms: C_2  and  C_4
REMARK    4  A    between atoms: C_4  and  N_5
REMARK    5  A    between atoms: N_11  and  C_12
REMARK                            x       y       z     vdW  Elec       q    Type
REMARK                         _______ _______ _______ _____ _____    ______ ____
ROOT
ATOM      1  N   UNL     1       6.524   4.405  13.210  0.00  0.00    +0.000 N 
ATOM      2  C   UNL     1       7.372   5.165  13.957  0.00  0.00    +0.000 C 
ATOM      3  N   UNL     1       8.447   5.729  13.526  0.00  0.00    +0.000 NA
ATOM      4  N   UNL     1       6.993   5.328  15.257  0.00  0.00    +0.000 N 
ATOM      5  C   UNL     1       6.367   4.473  16.119  0.00  0.00    +0.000 C 
ATOM      6  N   UNL     1       6.384   3.189  15.928  0.00  0.00    +0.000 NA
ATOM      7  N   UNL     1       5.692   5.063  17.153  0.00  0.00    +0.000 N 
ATOM      8  H   UNL     1       5.728   4.052  13.737  0.00  0.00    +0.000 HD
ATOM      9  H   UNL     1       8.555   5.510  12.534  0.00  0.00    +0.000 HD
ATOM     10  H   UNL     1       7.582   6.016  15.708  0.00  0.00    +0.000 HD
ATOM     11  H   UNL     1       6.991   2.995  15.128  0.00  0.00    +0.000 HD
ATOM     12  H   UNL     1       5.793   6.058  17.307  0.00  0.00    +0.000 HD
ENDROOT
BRANCH   7  13
ATOM     13  C   UNL     1       4.548   4.492  17.758  0.00  0.00    +0.000 A 
ATOM     14  C   UNL     1       3.273   4.732  17.222  0.00  0.00    +0.000 A 
ATOM     15  C   UNL     1       2.126   4.270  17.882  0.00  0.00    +0.000 A 
ATOM     16  C   UNL     1       2.253   3.556  19.069  0.00  0.00    +0.000 A 
ATOM     17  F   UNL     1       1.153   3.134  19.707  0.00  0.00    +0.000 F 
ATOM     18  C   UNL     1       3.505   3.289  19.593  0.00  0.00    +0.000 A 
ATOM     19  F   UNL     1       3.635   2.593  20.731  0.00  0.00    +0.000 F 
ATOM     20  C   UNL     1       4.642   3.752  18.946  0.00  0.00    +0.000 A 
ENDBRANCH   7  13
BRANCH   1  21
ATOM     21  C   UNL     1       6.920   3.560  12.097  0.00  0.00    +0.000 C 
BRANCH  21  23
ATOM     22  C   UNL     1       5.822   1.375  11.332  0.00  0.00    +0.000 C 
ATOM     23  C   UNL     1       5.718   2.901  11.392  0.00  0.00    +0.000 C 
ATOM     24  C   UNL     1       4.382   3.325  12.002  0.00  0.00    +0.000 C 
ENDBRANCH  21  23
ENDBRANCH   1  21
TORSDOF 3
ENDMDL
MODEL 8
REMARK VINA RESULT:      -7.1      3.025      4.935
REMARK  Name = 
REMARK  5 active torsions:
REMARK  status: ('A' for Active; 'I' for Inactive)
REMARK    1  A    between atoms: C_1  and  C_2
REMARK    2  A    between atoms: C_2  and  C_3
REMARK    3  A    between atoms: C_2  and  C_4
REMARK    4  A    between atoms: C_4  and  N_5
REMARK    5  A    between atoms: N_11  and  C_12
REMARK                            x       y       z     vdW  Elec       q    Type
REMARK                         _______ _______ _______ _____ _____    ______ ____
ROOT
ATOM      1  N   UNL     1       6.265   6.026  17.022  0.00  0.00    +0.000 N 
ATOM      2  C   UNL     1       5.866   5.350  15.909  0.00  0.00    +0.000 C 
ATOM      3  N   UNL     1       6.357   5.499  14.727  0.00  0.00    +0.000 NA
ATOM      4  N   UNL     1       4.877   4.435  16.124  0.00  0.00    +0.000 N 
ATOM      5  C   UNL     1       3.809   4.458  16.976  0.00  0.00    +0.000 C 
ATOM      6  N   UNL     1       3.351   5.574  17.454  0.00  0.00    +0.000 NA
ATOM      7  N   UNL     1       3.299   3.236  17.319  0.00  0.00    +0.000 N 
ATOM      8  H   UNL     1       5.754   5.760  17.861  0.00  0.00    +0.000 HD
ATOM      9  H   UNL     1       7.092   6.207  14.766  0.00  0.00    +0.000 HD
ATOM     10  H   UNL     1       4.736   3.874  15.295  0.00  0.00    +0.000 HD
ATOM     11  H   UNL     1       3.861   6.343  17.011  0.00  0.00    +0.000 HD
ATOM     12  H   UNL     1       3.632   2.408  16.842  0.00  0.00    +0.000 HD
ENDROOT
BRANCH   7  13
ATOM     13  C   UNL     1       2.665   2.981  18.557  0.00  0.00    +0.000 A 
ATOM     14  C   UNL     1       1.287   3.202  18.703  0.00  0.00    +0.000 A 
ATOM     15  C   UNL     1       0.673   3.066  19.956  0.00  0.00    +0.000 A 
ATOM     16  C   UNL     1       1.434   2.695  21.060  0.00  0.00    +0.000 A 
ATOM     17  F   UNL     1       0.849   2.587  22.260  0.00  0.00    +0.000 F 
ATOM     18  C   UNL     1       2.789   2.447  20.924  0.00  0.00    +0.000 A 
ATOM     19  F   UNL     1       3.525   2.080  21.982  0.00  0.00    +0.000 F 
ATOM     20  C   UNL     1       3.400   2.589  19.686  0.00  0.00    +0.000 A 
ENDBRANCH   7  13
BRANCH   1  21
ATOM     21  C   UNL     1       6.761   7.391  17.037  0.00  0.00    +0.000 C 
BRANCH  21  23
ATOM     22  C   UNL     1       8.344   8.983  18.274  0.00  0.00    +0.000 C 
ATOM     23  C   UNL     1       8.070   7.541  17.839  0.00  0.00    +0.000 C 
ATOM     24  C   UNL     1       8.126   6.597  19.040  0.00  0.00    +0.000 C 
ENDBRANCH  21  23
ENDBRANCH   1  21
TORSDOF 3
ENDMDL
MODEL 9
REMARK VINA RESULT:      -7.1      2.005      2.868
REMARK  Name = 
REMARK  5 active torsions:
REMARK  status: ('A' for Active; 'I' for Inactive)
REMARK    1  A    between atoms: C_1  and  C_2
REMARK    2  A    between atoms: C_2  and  C_3
REMARK    3  A    between atoms: C_2  and  C_4
REMARK    4  A    between atoms: C_4  and  N_5
REMARK    5  A    between atoms: N_11  and  C_12
REMARK                            x       y       z     vdW  Elec       q    Type
REMARK                         _______ _______ _______ _____ _____    ______ ____
ROOT
ATOM      1  N   UNL     1       6.481   5.658  15.669  0.00  0.00    +0.000 N 
ATOM      2  C   UNL     1       6.859   6.435  16.723  0.00  0.00    +0.000 C 
ATOM      3  N   UNL     1       7.851   7.257  16.728  0.00  0.00    +0.000 NA
ATOM      4  N   UNL     1       6.073   6.311  17.831  0.00  0.00    +0.000 N 
ATOM      5  C   UNL     1       5.430   5.225  18.353  0.00  0.00    +0.000 C 
ATOM      6  N   UNL     1       5.803   4.016  18.063  0.00  0.00    +0.000 NA
ATOM      7  N   UNL     1       4.353   5.500  19.152  0.00  0.00    +0.000 N 
ATOM      8  H   UNL     1       5.667   5.080  15.866  0.00  0.00    +0.000 HD
ATOM      9  H   UNL     1       8.306   7.225  15.814  0.00  0.00    +0.000 HD
ATOM     10  H   UNL     1       6.319   7.017  18.512  0.00  0.00    +0.000 HD
ATOM     11  H   UNL     1       6.654   4.073  17.497  0.00  0.00    +0.000 HD
ATOM     12  H   UNL     1       4.168   6.458  19.420  0.00  0.00    +0.000 HD
ENDROOT
BRANCH   7  13
ATOM     13  C   UNL     1       3.246   4.632  19.285  0.00  0.00    +0.000 A 
ATOM     14  C   UNL     1       2.451   4.325  18.170  0.00  0.00    +0.000 A 
ATOM     15  C   UNL     1       1.284   3.564  18.316  0.00  0.00    +0.000 A 
ATOM     16  C   UNL     1       0.918   3.095  19.574  0.00  0.00    +0.000 A 
ATOM     17  F   UNL     1      -0.209   2.385  19.713  0.00  0.00    +0.000 F 
ATOM     18  C   UNL     1       1.708   3.367  20.677  0.00  0.00    +0.000 A 
ATOM     19  F   UNL     1       1.367   2.910  21.890  0.00  0.00    +0.000 F 
ATOM     20  C   UNL     1       2.859   4.128  20.537  0.00  0.00    +0.000 A 
ENDBRANCH   7  13
BRANCH   1  21
ATOM     21  C   UNL     1       7.383   5.096  14.680  0.00  0.00    +0.000 C 
BRANCH  21  23
ATOM     22  C   UNL     1       5.178   4.018  13.945  0.00  0.00    +0.000 C 
ATOM     23  C   UNL     1       6.698   4.057  13.770  0.00  0.00    +0.000 C 
ATOM     24  C   UNL     1       7.066   4.243  12.298  0.00  0.00    +0.000 C 
ENDBRANCH  21  23
ENDBRANCH   1  21
TORSDOF 3
ENDMDL
