MODEL 1
REMARK VINA RESULT:      -8.1      0.000      0.000
REMARK  Name = 
REMARK  6 active torsions:
REMARK  status: ('A' for Active; 'I' for Inactive)
REMARK    1  A    between atoms: C_2  and  C_3
REMARK    2  A    between atoms: C_3  and  N_4
REMARK    3  A    between atoms: N_7  and  C_8
REMARK    4  A    between atoms: C_8  and  C_9
REMARK    5  A    between atoms: N_17  and  C_18
REMARK    6  A    between atoms: C_18  and  C_19
REMARK                            x       y       z     vdW  Elec       q    Type
REMARK                         _______ _______ _______ _____ _____    ______ ____
ROOT
ATOM      1  C   UNL     1       6.817   7.275  16.864  0.00  0.00    +0.000 C 
ENDROOT
BRANCH   1   2
ATOM      2  N   UNL     1       5.830   6.262  17.218  0.00  0.00    +0.000 N 
ATOM      3  C   UNL     1       5.989   4.842  16.978  0.00  0.00    +0.000 C 
ATOM      4  C   UNL     1       4.738   4.251  17.609  0.00  0.00    +0.000 C 
ATOM      5  N   UNL     1       3.803   5.349  17.549  0.00  0.00    +0.000 N 
ATOM      6  C   UNL     1       4.483   6.563  17.445  0.00  0.00    +0.000 C 
ATOM      7  O   UNL     1       4.005   7.682  17.537  0.00  0.00    +0.000 OA
BRANCH   5   8
ATOM      8  C   UNL     1       2.404   5.207  17.891  0.00  0.00    +0.000 C 
BRANCH   8   9
ATOM      9  C   UNL     1       2.162   4.306  19.082  0.00  0.00    +0.000 A 
ATOM     10  C   UNL     1       2.484   4.727  20.381  0.00  0.00    +0.000 A 
ATOM     11  C   UNL     1       2.146   3.944  21.488  0.00  0.00    +0.000 A 
ATOM     12  C   UNL     1       1.489   2.727  21.311  0.00  0.00    +0.000 A 
ATOM     13  C   UNL     1       1.193   2.282  20.024  0.00  0.00    +0.000 A 
ATOM     14  C   UNL     1       1.531   3.063  18.917  0.00  0.00    +0.000 A 
ENDBRANCH   8   9
ENDBRANCH   5   8
ENDBRANCH   1   2
BRANCH   1  16
ATOM     15  O   UNL     1       8.232   7.014  18.837  0.00  0.00    +0.000 OA
ATOM     16  C   UNL     1       7.759   7.759  17.983  0.00  0.00    +0.000 C 
ATOM     17  N   UNL     1       8.058   9.104  17.933  0.00  0.00    +0.000 N 
ATOM     18  H   UNL     1       7.663   9.685  17.206  0.00  0.00    +0.000 HD
BRANCH  17  19
ATOM     19  C   UNL     1       8.905   9.733  18.921  0.00  0.00    +0.000 C 
BRANCH  19  20
ATOM     20  C   UNL     1       9.516  11.007  18.394  0.00  0.00    +0.000 A 
ATOM     21  C   UNL     1      10.893  11.091  18.140  0.00  0.00    +0.000 A 
ATOM     22  C   UNL     1      11.451  12.272  17.641  0.00  0.00    +0.000 A 
ATOM     23  C   UNL     1      10.635  13.375  17.398  0.00  0.00    +0.000 A 
ATOM     24 CL   UNL     1      11.322  14.823  16.771  0.00  0.00    +0.000 Cl
ATOM     25  C   UNL     1       9.268  13.311  17.656  0.00  0.00    +0.000 A 
ATOM     26  C   UNL     1       8.711  12.132  18.158  0.00  0.00    +0.000 A 
ENDBRANCH  19  20
ENDBRANCH  17  19
ENDBRANCH   1  16
TORSDOF 6
ENDMDL
MODEL 2
REMARK VINA RESULT:      -7.9      1.170      1.662
REMARK  Name = 
REMARK  6 active torsions:
REMARK  status: ('A' for Active; 'I' for Inactive)
REMARK    1  A    between atoms: C_2  and  C_3
REMARK    2  A    between atoms: C_3  and  N_4
REMARK    3  A    between atoms: N_7  and  C_8
REMARK    4  A    between atoms: C_8  and  C_9
REMARK    5  A    between atoms: N_17  and  C_18
REMARK    6  A    between atoms: C_18  and  C_19
REMARK                            x       y       z     vdW  Elec       q    Type
REMARK                         _______ _______ _______ _____ _____    ______ ____
ROOT
ATOM      1  C   UNL     1       7.275   7.120  16.694  0.00  0.00    +0.000 C 
ENDROOT
BRANCH   1   2
ATOM      2  N   UNL     1       6.021   6.415  16.925  0.00  0.00    +0.000 N 
ATOM      3  C   UNL     1       4.809   7.037  17.421  0.00  0.00    +0.000 C 
ATOM      4  C   UNL     1       3.805   5.894  17.388  0.00  0.00    +0.000 C 
ATOM      5  N   UNL     1       4.650   4.728  17.496  0.00  0.00    +0.000 N 
ATOM      6  C   UNL     1       5.950   5.028  17.089  0.00  0.00    +0.000 C 
ATOM      7  O   UNL     1       6.860   4.238  16.903  0.00  0.00    +0.000 OA
BRANCH   5   8
ATOM      8  C   UNL     1       4.121   3.392  17.673  0.00  0.00    +0.000 C 
BRANCH   8   9
ATOM      9  C   UNL     1       3.068   3.297  18.754  0.00  0.00    +0.000 A 
ATOM     10  C   UNL     1       1.721   3.075  18.430  0.00  0.00    +0.000 A 
ATOM     11  C   UNL     1       0.771   2.865  19.434  0.00  0.00    +0.000 A 
ATOM     12  C   UNL     1       1.154   2.881  20.774  0.00  0.00    +0.000 A 
ATOM     13  C   UNL     1       2.483   3.132  21.111  0.00  0.00    +0.000 A 
ATOM     14  C   UNL     1       3.432   3.344  20.109  0.00  0.00    +0.000 A 
ENDBRANCH   8   9
ENDBRANCH   5   8
ENDBRANCH   1   2
BRANCH   1  16
ATOM     15  O   UNL     1       8.293   7.088  18.913  0.00  0.00    +0.000 OA
ATOM     16  C   UNL     1       7.969   7.737  17.923  0.00  0.00    +0.000 C 
ATOM     17  N   UNL     1       8.231   9.087  17.811  0.00  0.00    +0.000 N 
ATOM     18  H   UNL     1       7.965   9.587  16.974  0.00  0.00    +0.000 HD
BRANCH  17  19
ATOM     19  C   UNL     1       8.853   9.834  18.881  0.00  0.00    +0.000 C 
BRANCH  19  20
ATOM     20  C   UNL     1       9.426  11.137  18.383  0.00  0.00    +0.000 A 
ATOM     21  C   UNL     1      10.734  11.200  17.880  0.00  0.00    +0.000 A 
ATOM     22  C   UNL     1      11.255  12.409  17.411  0.00  0.00    +0.000 A 
ATOM     23  C   UNL     1      10.473  13.561  17.448  0.00  0.00    +0.000 A 
ATOM     24 CL   UNL     1      11.113  15.046  16.857  0.00  0.00    +0.000 Cl
ATOM     25  C   UNL     1       9.177  13.517  17.955  0.00  0.00    +0.000 A 
ATOM     26  C   UNL     1       8.657  12.309  18.427  0.00  0.00    +0.000 A 
ENDBRANCH  19  20
ENDBRANCH  17  19
ENDBRANCH   1  16
TORSDOF 6
ENDMDL
MODEL 3
REMARK VINA RESULT:      -7.9      0.171      1.369
REMARK  Name = 
REMARK  6 active torsions:
REMARK  status: ('A' for Active; 'I' for Inactive)
REMARK    1  A    between atoms: C_2  and  C_3
REMARK    2  A    between atoms: C_3  and  N_4
REMARK    3  A    between atoms: N_7  and  C_8
REMARK    4  A    between atoms: C_8  and  C_9
REMARK    5  A    between atoms: N_17  and  C_18
REMARK    6  A    between atoms: C_18  and  C_19
REMARK                            x       y       z     vdW  Elec       q    Type
REMARK                         _______ _______ _______ _____ _____    ______ ____
ROOT
ATOM      1  C   UNL     1       6.790   7.303  16.922  0.00  0.00    +0.000 C 
ENDROOT
BRANCH   1   2
ATOM      2  N   UNL     1       5.799   6.305  17.305  0.00  0.00    +0.000 N 
ATOM      3  C   UNL     1       6.003   4.873  17.225  0.00  0.00    +0.000 C 
ATOM      4  C   UNL     1       4.718   4.314  17.818  0.00  0.00    +0.000 C 
ATOM      5  N   UNL     1       3.770   5.376  17.574  0.00  0.00    +0.000 N 
ATOM      6  C   UNL     1       4.432   6.591  17.397  0.00  0.00    +0.000 C 
ATOM      7  O   UNL     1       3.927   7.699  17.337  0.00  0.00    +0.000 OA
BRANCH   5   8
ATOM      8  C   UNL     1       2.352   5.231  17.824  0.00  0.00    +0.000 C 
BRANCH   8   9
ATOM      9  C   UNL     1       2.035   4.398  19.046  0.00  0.00    +0.000 A 
ATOM     10  C   UNL     1       1.440   3.133  18.922  0.00  0.00    +0.000 A 
ATOM     11  C   UNL     1       1.263   2.316  20.041  0.00  0.00    +0.000 A 
ATOM     12  C   UNL     1       1.671   2.754  21.300  0.00  0.00    +0.000 A 
ATOM     13  C   UNL     1       2.235   4.020  21.443  0.00  0.00    +0.000 A 
ATOM     14  C   UNL     1       2.411   4.838  20.324  0.00  0.00    +0.000 A 
ENDBRANCH   8   9
ENDBRANCH   5   8
ENDBRANCH   1   2
BRANCH   1  16
ATOM     15  O   UNL     1       8.244   7.037  18.866  0.00  0.00    +0.000 OA
ATOM     16  C   UNL     1       7.761   7.782  18.019  0.00  0.00    +0.000 C 
ATOM     17  N   UNL     1       8.074   9.124  17.954  0.00  0.00    +0.000 N 
ATOM     18  H   UNL     1       7.669   9.705  17.232  0.00  0.00    +0.000 HD
BRANCH  17  19
ATOM     19  C   UNL     1       8.949   9.749  18.920  0.00  0.00    +0.000 C 
BRANCH  19  20
ATOM     20  C   UNL     1       9.490  11.060  18.407  0.00  0.00    +0.000 A 
ATOM     21  C   UNL     1       8.696  12.216  18.414  0.00  0.00    +0.000 A 
ATOM     22  C   UNL     1       9.208  13.430  17.947  0.00  0.00    +0.000 A 
ATOM     23  C   UNL     1      10.514  13.492  17.466  0.00  0.00    +0.000 A 
ATOM     24 CL   UNL     1      11.145  14.991  16.903  0.00  0.00    +0.000 Cl
ATOM     25  C   UNL     1      11.310  12.350  17.441  0.00  0.00    +0.000 A 
ATOM     26  C   UNL     1      10.798  11.136  17.905  0.00  0.00    +0.000 A 
ENDBRANCH  19  20
ENDBRANCH  17  19
ENDBRANCH   1  16
TORSDOF 6
ENDMDL
MODEL 4
REMARK VINA RESULT:      -7.6      1.176      1.337
REMARK  Name = 
REMARK  6 active torsions:
REMARK  status: ('A' for Active; 'I' for Inactive)
REMARK    1  A    between atoms: C_2  and  C_3
REMARK    2  A    between atoms: C_3  and  N_4
REMARK    3  A    between atoms: N_7  and  C_8
REMARK    4  A    between atoms: C_8  and  C_9
REMARK    5  A    between atoms: N_17  and  C_18
REMARK    6  A    between atoms: C_18  and  C_19
REMARK                            x       y       z     vdW  Elec       q    Type
REMARK                         _______ _______ _______ _____ _____    ______ ____
ROOT
ATOM      1  C   UNL     1       6.567   7.235  16.898  0.00  0.00    +0.000 C 
ENDROOT
BRANCH   1   2
ATOM      2  N   UNL     1       5.894   5.943  16.947  0.00  0.00    +0.000 N 
ATOM      3  C   UNL     1       6.412   4.725  16.357  0.00  0.00    +0.000 C 
ATOM      4  C   UNL     1       5.383   3.684  16.771  0.00  0.00    +0.000 C 
ATOM      5  N   UNL     1       4.190   4.476  16.960  0.00  0.00    +0.000 N 
ATOM      6  C   UNL     1       4.523   5.811  17.195  0.00  0.00    +0.000 C 
ATOM      7  O   UNL     1       3.772   6.702  17.553  0.00  0.00    +0.000 OA
BRANCH   5   8
ATOM      8  C   UNL     1       2.891   3.889  17.206  0.00  0.00    +0.000 C 
BRANCH   8   9
ATOM      9  C   UNL     1       2.567   3.730  18.675  0.00  0.00    +0.000 A 
ATOM     10  C   UNL     1       3.237   2.781  19.461  0.00  0.00    +0.000 A 
ATOM     11  C   UNL     1       3.025   2.721  20.842  0.00  0.00    +0.000 A 
ATOM     12  C   UNL     1       2.136   3.604  21.452  0.00  0.00    +0.000 A 
ATOM     13  C   UNL     1       1.440   4.531  20.678  0.00  0.00    +0.000 A 
ATOM     14  C   UNL     1       1.650   4.590  19.299  0.00  0.00    +0.000 A 
ENDBRANCH   8   9
ENDBRANCH   5   8
ENDBRANCH   1   2
BRANCH   1  16
ATOM     15  O   UNL     1       8.062   6.651  18.738  0.00  0.00    +0.000 OA
ATOM     16  C   UNL     1       7.630   7.513  17.978  0.00  0.00    +0.000 C 
ATOM     17  N   UNL     1       8.087   8.814  18.005  0.00  0.00    +0.000 N 
ATOM     18  H   UNL     1       7.720   9.494  17.353  0.00  0.00    +0.000 HD
BRANCH  17  19
ATOM     19  C   UNL     1       9.066   9.257  18.972  0.00  0.00    +0.000 C 
BRANCH  19  20
ATOM     20  C   UNL     1       9.295  10.745  18.882  0.00  0.00    +0.000 A 
ATOM     21  C   UNL     1      10.061  11.413  19.850  0.00  0.00    +0.000 A 
ATOM     22  C   UNL     1      10.277  12.791  19.754  0.00  0.00    +0.000 A 
ATOM     23  C   UNL     1       9.726  13.507  18.694  0.00  0.00    +0.000 A 
ATOM     24 CL   UNL     1      10.005  15.201  18.572  0.00  0.00    +0.000 Cl
ATOM     25  C   UNL     1       8.954  12.860  17.733  0.00  0.00    +0.000 A 
ATOM     26  C   UNL     1       8.734  11.484  17.830  0.00  0.00    +0.000 A 
ENDBRANCH  19  20
ENDBRANCH  17  19
ENDBRANCH   1  16
TORSDOF 6
ENDMDL
MODEL 5
REMARK VINA RESULT:      -7.4      5.406      7.823
REMARK  Name = 
REMARK  6 active torsions:
REMARK  status: ('A' for Active; 'I' for Inactive)
REMARK    1  A    between atoms: C_2  and  C_3
REMARK    2  A    between atoms: C_3  and  N_4
REMARK    3  A    between atoms: N_7  and  C_8
REMARK    4  A    between atoms: C_8  and  C_9
REMARK    5  A    between atoms: N_17  and  C_18
REMARK    6  A    between atoms: C_18  and  C_19
REMARK                            x       y       z     vdW  Elec       q    Type
REMARK                         _______ _______ _______ _____ _____    ______ ____
ROOT
ATOM      1  C   UNL     1       2.031   6.990  20.590  0.00  0.00    +0.000 C 
ENDROOT
BRANCH   1   2
ATOM      2  N   UNL     1       1.704   8.022  19.616  0.00  0.00    +0.000 N 
ATOM      3  C   UNL     1       2.451   8.268  18.399  0.00  0.00    +0.000 C 
ATOM      4  C   UNL     1       1.645   9.367  17.723  0.00  0.00    +0.000 C 
ATOM      5  N   UNL     1       0.981  10.004  18.837  0.00  0.00    +0.000 N 
ATOM      6  C   UNL     1       0.911   9.132  19.925  0.00  0.00    +0.000 C 
ATOM      7  O   UNL     1       0.277   9.294  20.954  0.00  0.00    +0.000 OA
BRANCH   5   8
ATOM      8  C   UNL     1       0.218  11.226  18.700  0.00  0.00    +0.000 C 
BRANCH   8   9
ATOM      9  C   UNL     1      -1.245  10.993  18.397  0.00  0.00    +0.000 A 
ATOM     10  C   UNL     1      -2.239  11.783  18.995  0.00  0.00    +0.000 A 
ATOM     11  C   UNL     1      -3.579  11.648  18.619  0.00  0.00    +0.000 A 
ATOM     12  C   UNL     1      -3.943  10.717  17.648  0.00  0.00    +0.000 A 
ATOM     13  C   UNL     1      -2.971   9.904  17.069  0.00  0.00    +0.000 A 
ATOM     14  C   UNL     1      -1.632  10.037  17.445  0.00  0.00    +0.000 A 
ENDBRANCH   8   9
ENDBRANCH   5   8
ENDBRANCH   1   2
BRANCH   1  16
ATOM     15  O   UNL     1       1.583   4.750  19.729  0.00  0.00    +0.000 OA
ATOM     16  C   UNL     1       2.410   5.601  20.040  0.00  0.00    +0.000 C 
ATOM     17  N   UNL     1       3.766   5.398  19.893  0.00  0.00    +0.000 N 
ATOM     18  H   UNL     1       4.418   6.128  20.145  0.00  0.00    +0.000 HD
BRANCH  17  19
ATOM     19  C   UNL     1       4.301   4.143  19.415  0.00  0.00    +0.000 C 
BRANCH  19  20
ATOM     20  C   UNL     1       5.051   4.320  18.119  0.00  0.00    +0.000 A 
ATOM     21  C   UNL     1       4.408   4.134  16.886  0.00  0.00    +0.000 A 
ATOM     22  C   UNL     1       5.108   4.311  15.689  0.00  0.00    +0.000 A 
ATOM     23  C   UNL     1       6.453   4.669  15.719  0.00  0.00    +0.000 A 
ATOM     24 CL   UNL     1       7.308   4.898  14.243  0.00  0.00    +0.000 Cl
ATOM     25  C   UNL     1       7.108   4.846  16.934  0.00  0.00    +0.000 A 
ATOM     26  C   UNL     1       6.410   4.666  18.132  0.00  0.00    +0.000 A 
ENDBRANCH  19  20
ENDBRANCH  17  19
ENDBRANCH   1  16
TORSDOF 6
ENDMDL
MODEL 6
REMARK VINA RESULT:      -7.3      5.352      7.721
REMARK  Name = 
REMARK  6 active torsions:
REMARK  status: ('A' for Active; 'I' for Inactive)
REMARK    1  A    between atoms: C_2  and  C_3
REMARK    2  A    between atoms: C_3  and  N_4
REMARK    3  A    between atoms: N_7  and  C_8
REMARK    4  A    between atoms: C_8  and  C_9
REMARK    5  A    between atoms: N_17  and  C_18
REMARK    6  A    between atoms: C_18  and  C_19
REMARK                            x       y       z     vdW  Elec       q    Type
REMARK                         _______ _______ _______ _____ _____    ______ ____
ROOT
ATOM      1  C   UNL     1       2.042   6.831  20.489  0.00  0.00    +0.000 C 
ENDROOT
BRANCH   1   2
ATOM      2  N   UNL     1       1.762   7.912  19.552  0.00  0.00    +0.000 N 
ATOM      3  C   UNL     1       2.514   8.162  18.339  0.00  0.00    +0.000 C 
ATOM      4  C   UNL     1       1.761   9.323  17.708  0.00  0.00    +0.000 C 
ATOM      5  N   UNL     1       1.138   9.954  18.848  0.00  0.00    +0.000 N 
ATOM      6  C   UNL     1       1.029   9.050  19.906  0.00  0.00    +0.000 C 
ATOM      7  O   UNL     1       0.410   9.209  20.944  0.00  0.00    +0.000 OA
BRANCH   5   8
ATOM      8  C   UNL     1       0.438  11.217  18.759  0.00  0.00    +0.000 C 
BRANCH   8   9
ATOM      9  C   UNL     1      -1.019  11.075  18.378  0.00  0.00    +0.000 A 
ATOM     10  C   UNL     1      -1.440  10.057  17.509  0.00  0.00    +0.000 A 
ATOM     11  C   UNL     1      -2.800   9.852  17.257  0.00  0.00    +0.000 A 
ATOM     12  C   UNL     1      -3.755  10.666  17.864  0.00  0.00    +0.000 A 
ATOM     13  C   UNL     1      -3.349  11.701  18.704  0.00  0.00    +0.000 A 
ATOM     14  C   UNL     1      -1.990  11.907  18.955  0.00  0.00    +0.000 A 
ENDBRANCH   8   9
ENDBRANCH   5   8
ENDBRANCH   1   2
BRANCH   1  16
ATOM     15  O   UNL     1       1.740   4.644  19.447  0.00  0.00    +0.000 OA
ATOM     16  C   UNL     1       2.510   5.490  19.891  0.00  0.00    +0.000 C 
ATOM     17  N   UNL     1       3.879   5.326  19.865  0.00  0.00    +0.000 N 
ATOM     18  H   UNL     1       4.484   6.051  20.226  0.00  0.00    +0.000 HD
BRANCH  17  19
ATOM     19  C   UNL     1       4.492   4.116  19.364  0.00  0.00    +0.000 C 
BRANCH  19  20
ATOM     20  C   UNL     1       5.206   4.360  18.059  0.00  0.00    +0.000 A 
ATOM     21  C   UNL     1       6.575   4.667  18.037  0.00  0.00    +0.000 A 
ATOM     22  C   UNL     1       7.233   4.882  16.822  0.00  0.00    +0.000 A 
ATOM     23  C   UNL     1       6.526   4.795  15.626  0.00  0.00    +0.000 A 
ATOM     24 CL   UNL     1       7.342   5.047  14.132  0.00  0.00    +0.000 Cl
ATOM     25  C   UNL     1       5.165   4.503  15.632  0.00  0.00    +0.000 A 
ATOM     26  C   UNL     1       4.505   4.292  16.846  0.00  0.00    +0.000 A 
ENDBRANCH  19  20
ENDBRANCH  17  19
ENDBRANCH   1  16
TORSDOF 6
ENDMDL
MODEL 7
REMARK VINA RESULT:      -7.3      1.820      2.048
REMARK  Name = 
REMARK  6 active torsions:
REMARK  status: ('A' for Active; 'I' for Inactive)
REMARK    1  A    between atoms: C_2  and  C_3
REMARK    2  A    between atoms: C_3  and  N_4
REMARK    3  A    between atoms: N_7  and  C_8
REMARK    4  A    between atoms: C_8  and  C_9
REMARK    5  A    between atoms: N_17  and  C_18
REMARK    6  A    between atoms: C_18  and  C_19
REMARK                            x       y       z     vdW  Elec       q    Type
REMARK                         _______ _______ _______ _____ _____    ______ ____
ROOT
ATOM      1  C   UNL     1       7.411   6.339  18.600  0.00  0.00    +0.000 C 
ENDROOT
BRANCH   1   2
ATOM      2  N   UNL     1       6.536   5.314  18.046  0.00  0.00    +0.000 N 
ATOM      3  C   UNL     1       6.874   4.468  16.920  0.00  0.00    +0.000 C 
ATOM      4  C   UNL     1       5.672   3.539  16.822  0.00  0.00    +0.000 C 
ATOM      5  N   UNL     1       4.618   4.322  17.422  0.00  0.00    +0.000 N 
ATOM      6  C   UNL     1       5.153   5.303  18.258  0.00  0.00    +0.000 C 
ATOM      7  O   UNL     1       4.543   6.018  19.034  0.00  0.00    +0.000 OA
BRANCH   5   8
ATOM      8  C   UNL     1       3.231   3.909  17.408  0.00  0.00    +0.000 C 
BRANCH   8   9
ATOM      9  C   UNL     1       2.685   3.581  18.780  0.00  0.00    +0.000 A 
ATOM     10  C   UNL     1       3.379   2.721  19.645  0.00  0.00    +0.000 A 
ATOM     11  C   UNL     1       2.936   2.517  20.955  0.00  0.00    +0.000 A 
ATOM     12  C   UNL     1       1.790   3.164  21.415  0.00  0.00    +0.000 A 
ATOM     13  C   UNL     1       1.074   3.996  20.557  0.00  0.00    +0.000 A 
ATOM     14  C   UNL     1       1.515   4.199  19.247  0.00  0.00    +0.000 A 
ENDBRANCH   8   9
ENDBRANCH   5   8
ENDBRANCH   1   2
BRANCH   1  16
ATOM     15  O   UNL     1       7.029   7.826  16.701  0.00  0.00    +0.000 OA
ATOM     16  C   UNL     1       7.594   7.626  17.772  0.00  0.00    +0.000 C 
ATOM     17  N   UNL     1       8.426   8.562  18.351  0.00  0.00    +0.000 N 
ATOM     18  H   UNL     1       8.861   8.370  19.243  0.00  0.00    +0.000 HD
BRANCH  17  19
ATOM     19  C   UNL     1       8.731   9.817  17.701  0.00  0.00    +0.000 C 
BRANCH  19  20
ATOM     20  C   UNL     1       9.072  10.889  18.704  0.00  0.00    +0.000 A 
ATOM     21  C   UNL     1       9.437  10.554  20.016  0.00  0.00    +0.000 A 
ATOM     22  C   UNL     1       9.762  11.554  20.938  0.00  0.00    +0.000 A 
ATOM     23  C   UNL     1       9.719  12.892  20.553  0.00  0.00    +0.000 A 
ATOM     24 CL   UNL     1      10.132  14.120  21.686  0.00  0.00    +0.000 Cl
ATOM     25  C   UNL     1       9.347  13.241  19.257  0.00  0.00    +0.000 A 
ATOM     26  C   UNL     1       9.018  12.242  18.337  0.00  0.00    +0.000 A 
ENDBRANCH  19  20
ENDBRANCH  17  19
ENDBRANCH   1  16
TORSDOF 6
ENDMDL
MODEL 8
REMARK VINA RESULT:      -7.3      7.384      9.943
REMARK  Name = 
REMARK  6 active torsions:
REMARK  status: ('A' for Active; 'I' for Inactive)
REMARK    1  A    between atoms: C_2  and  C_3
REMARK    2  A    between atoms: C_3  and  N_4
REMARK    3  A    between atoms: N_7  and  C_8
REMARK    4  A    between atoms: C_8  and  C_9
REMARK    5  A    between atoms: N_17  and  C_18
REMARK    6  A    between atoms: C_18  and  C_19
REMARK                            x       y       z     vdW  Elec       q    Type
REMARK                         _______ _______ _______ _____ _____    ______ ____
ROOT
ATOM      1  C   UNL     1       0.271  10.422  19.858  0.00  0.00    +0.000 C 
ENDROOT
BRANCH   1   2
ATOM      2  N   UNL     1       1.201   9.446  19.305  0.00  0.00    +0.000 N 
ATOM      3  C   UNL     1       1.458   9.267  17.891  0.00  0.00    +0.000 C 
ATOM      4  C   UNL     1       2.552   8.209  17.876  0.00  0.00    +0.000 C 
ATOM      5  N   UNL     1       2.335   7.513  19.123  0.00  0.00    +0.000 N 
ATOM      6  C   UNL     1       1.633   8.322  20.018  0.00  0.00    +0.000 C 
ATOM      7  O   UNL     1       1.432   8.104  21.201  0.00  0.00    +0.000 OA
BRANCH   5   8
ATOM      8  C   UNL     1       3.044   6.302  19.478  0.00  0.00    +0.000 C 
BRANCH   8   9
ATOM      9  C   UNL     1       2.208   5.050  19.337  0.00  0.00    +0.000 A 
ATOM     10  C   UNL     1       2.132   4.367  18.114  0.00  0.00    +0.000 A 
ATOM     11  C   UNL     1       1.460   3.145  18.019  0.00  0.00    +0.000 A 
ATOM     12  C   UNL     1       0.850   2.593  19.144  0.00  0.00    +0.000 A 
ATOM     13  C   UNL     1       0.890   3.275  20.358  0.00  0.00    +0.000 A 
ATOM     14  C   UNL     1       1.560   4.497  20.453  0.00  0.00    +0.000 A 
ENDBRANCH   8   9
ENDBRANCH   5   8
ENDBRANCH   1   2
BRANCH   1  16
ATOM     15  O   UNL     1      -0.277  12.293  18.388  0.00  0.00    +0.000 OA
ATOM     16  C   UNL     1      -0.600  11.206  18.857  0.00  0.00    +0.000 C 
ATOM     17  N   UNL     1      -1.769  10.568  18.499  0.00  0.00    +0.000 N 
ATOM     18  H   UNL     1      -1.996   9.665  18.893  0.00  0.00    +0.000 HD
BRANCH  17  19
ATOM     19  C   UNL     1      -2.718  11.172  17.590  0.00  0.00    +0.000 C 
BRANCH  19  20
ATOM     20  C   UNL     1      -3.987  11.568  18.301  0.00  0.00    +0.000 A 
ATOM     21  C   UNL     1      -3.942  12.332  19.477  0.00  0.00    +0.000 A 
ATOM     22  C   UNL     1      -5.124  12.704  20.125  0.00  0.00    +0.000 A 
ATOM     23  C   UNL     1      -6.354  12.311  19.603  0.00  0.00    +0.000 A 
ATOM     24 CL   UNL     1      -7.807  12.782  20.397  0.00  0.00    +0.000 Cl
ATOM     25  C   UNL     1      -6.415  11.543  18.444  0.00  0.00    +0.000 A 
ATOM     26  C   UNL     1      -5.234  11.167  17.798  0.00  0.00    +0.000 A 
ENDBRANCH  19  20
ENDBRANCH  17  19
ENDBRANCH   1  16
TORSDOF 6
ENDMDL
MODEL 9
REMARK VINA RESULT:      -7.3      4.856      7.447
REMARK  Name = 
REMARK  6 active torsions:
REMARK  status: ('A' for Active; 'I' for Inactive)
REMARK    1  A    between atoms: C_2  and  C_3
REMARK    2  A    between atoms: C_3  and  N_4
REMARK    3  A    between atoms: N_7  and  C_8
REMARK    4  A    between atoms: C_8  and  C_9
REMARK    5  A    between atoms: N_17  and  C_18
REMARK    6  A    between atoms: C_18  and  C_19
REMARK                            x       y       z     vdW  Elec       q    Type
REMARK                         _______ _______ _______ _____ _____    ______ ____
ROOT
ATOM      1  C   UNL     1       3.602   4.732  19.766  0.00  0.00    +0.000 C 
ENDROOT
BRANCH   1   2
ATOM      2  N   UNL     1       4.259   5.365  18.630  0.00  0.00    +0.000 N 
ATOM      3  C   UNL     1       3.580   6.165  17.631  0.00  0.00    +0.000 C 
ATOM      4  C   UNL     1       4.723   6.644  16.748  0.00  0.00    +0.000 C 
ATOM      5  N   UNL     1       5.725   5.624  16.946  0.00  0.00    +0.000 N 
ATOM      6  C   UNL     1       5.505   4.950  18.148  0.00  0.00    +0.000 C 
ATOM      7  O   UNL     1       6.253   4.153  18.689  0.00  0.00    +0.000 OA
BRANCH   5   8
ATOM      8  C   UNL     1       6.947   5.565  16.172  0.00  0.00    +0.000 C 
BRANCH   8   9
ATOM      9  C   UNL     1       6.752   5.018  14.776  0.00  0.00    +0.000 A 
ATOM     10  C   UNL     1       7.666   5.314  13.752  0.00  0.00    +0.000 A 
ATOM     11  C   UNL     1       7.552   4.708  12.498  0.00  0.00    +0.000 A 
ATOM     12  C   UNL     1       6.519   3.805  12.247  0.00  0.00    +0.000 A 
ATOM     13  C   UNL     1       5.586   3.527  13.245  0.00  0.00    +0.000 A 
ATOM     14  C   UNL     1       5.699   4.133  14.498  0.00  0.00    +0.000 A 
ENDBRANCH   8   9
ENDBRANCH   5   8
ENDBRANCH   1   2
BRANCH   1  16
ATOM     15  O   UNL     1       1.265   4.734  20.474  0.00  0.00    +0.000 OA
ATOM     16  C   UNL     1       2.292   5.373  20.264  0.00  0.00    +0.000 C 
ATOM     17  N   UNL     1       2.373   6.731  20.490  0.00  0.00    +0.000 N 
ATOM     18  H   UNL     1       3.240   7.222  20.322  0.00  0.00    +0.000 HD
BRANCH  17  19
ATOM     19  C   UNL     1       1.231   7.499  20.934  0.00  0.00    +0.000 C 
BRANCH  19  20
ATOM     20  C   UNL     1       1.207   8.867  20.301  0.00  0.00    +0.000 A 
ATOM     21  C   UNL     1       0.843   9.998  21.048  0.00  0.00    +0.000 A 
ATOM     22  C   UNL     1       0.833  11.264  20.457  0.00  0.00    +0.000 A 
ATOM     23  C   UNL     1       1.182  11.406  19.116  0.00  0.00    +0.000 A 
ATOM     24 CL   UNL     1       1.181  12.969  18.395  0.00  0.00    +0.000 Cl
ATOM     25  C   UNL     1       1.534  10.293  18.358  0.00  0.00    +0.000 A 
ATOM     26  C   UNL     1       1.541   9.026  18.948  0.00  0.00    +0.000 A 
ENDBRANCH  19  20
ENDBRANCH  17  19
ENDBRANCH   1  16
TORSDOF 6
ENDMDL
