MODEL 1
REMARK VINA RESULT:      -7.1      0.000      0.000
REMARK  Name = 
REMARK  8 active torsions:
REMARK  status: ('A' for Active; 'I' for Inactive)
REMARK    1  A    between atoms: C_1  and  N_2
REMARK    2  A    between atoms: N_2  and  C_3
REMARK    3  A    between atoms: C_3  and  C_4
REMARK    4  A    between atoms: C_4  and  C_5
REMARK    5  A    between atoms: C_5  and  O_6
REMARK    6  A    between atoms: C_5  and  C_15
REMARK    7  A    between atoms: O_6  and  C_7
REMARK    8  A    between atoms: C_12  and  C_13
REMARK                            x       y       z     vdW  Elec       q    Type
REMARK                         _______ _______ _______ _____ _____    ______ ____
ROOT
ATOM      1  C   UNL     1       4.121   5.295  17.478  0.00  0.00    +0.000 C 
ENDROOT
BRANCH   1   2
ATOM      2  C   UNL     1       5.506   5.782  17.870  0.00  0.00    +0.000 A 
ATOM      3  C   UNL     1       6.084   6.834  17.133  0.00  0.00    +0.000 A 
ATOM      4  C   UNL     1       7.346   7.332  17.460  0.00  0.00    +0.000 A 
ATOM      5  C   UNL     1       8.053   6.790  18.531  0.00  0.00    +0.000 A 
ATOM      6  C   UNL     1       7.496   5.747  19.279  0.00  0.00    +0.000 A 
ATOM      7  C   UNL     1       6.229   5.242  18.953  0.00  0.00    +0.000 A 
ENDBRANCH   1   2
BRANCH   1   8
ATOM      8  C   UNL     1       4.103   3.798  17.088  0.00  0.00    +0.000 C 
BRANCH   8   9
ATOM      9  C   UNL     1       3.325   2.877  18.040  0.00  0.00    +0.000 C 
BRANCH   9  11
ATOM     10  C   UNL     1       0.979   2.862  18.700  0.00  0.00    +0.000 C 
ATOM     11  N   UNL     1       1.927   2.819  17.586  0.00  0.00    +0.000 NA
ATOM     12  H   UNL     1       1.739   3.640  16.965  0.00  0.00    +0.000 HD
ENDBRANCH   9  11
ENDBRANCH   8   9
ENDBRANCH   1   8
BRANCH   1  13
ATOM     13  O   UNL     1       3.160   5.540  18.456  0.00  0.00    +0.000 OA
BRANCH  13  14
ATOM     14  C   UNL     1       2.557   6.732  18.733  0.00  0.00    +0.000 A 
ATOM     15  C   UNL     1       2.346   7.639  17.684  0.00  0.00    +0.000 A 
ATOM     16  C   UNL     1       1.739   8.878  17.918  0.00  0.00    +0.000 A 
ATOM     17  C   UNL     1       1.326   9.241  19.203  0.00  0.00    +0.000 A 
ATOM     18  I   UNL     1       0.417  11.151  19.424  0.00  0.00    +0.000 I 
ATOM     19  C   UNL     1       1.529   8.347  20.278  0.00  0.00    +0.000 A 
ATOM     20  C   UNL     1       1.109   8.658  21.690  0.00  0.00    +0.000 C 
ATOM     21  C   UNL     1       2.145   7.108  20.034  0.00  0.00    +0.000 A 
ENDBRANCH  13  14
ENDBRANCH   1  13
TORSDOF 6
ENDMDL
MODEL 2
REMARK VINA RESULT:      -6.9      1.959      4.155
REMARK  Name = 
REMARK  8 active torsions:
REMARK  status: ('A' for Active; 'I' for Inactive)
REMARK    1  A    between atoms: C_1  and  N_2
REMARK    2  A    between atoms: N_2  and  C_3
REMARK    3  A    between atoms: C_3  and  C_4
REMARK    4  A    between atoms: C_4  and  C_5
REMARK    5  A    between atoms: C_5  and  O_6
REMARK    6  A    between atoms: C_5  and  C_15
REMARK    7  A    between atoms: O_6  and  C_7
REMARK    8  A    between atoms: C_12  and  C_13
REMARK                            x       y       z     vdW  Elec       q    Type
REMARK                         _______ _______ _______ _____ _____    ______ ____
ROOT
ATOM      1  C   UNL     1       3.507   6.061  18.973  0.00  0.00    +0.000 C 
ENDROOT
BRANCH   1   2
ATOM      2  C   UNL     1       2.554   4.894  19.175  0.00  0.00    +0.000 A 
ATOM      3  C   UNL     1       2.123   4.595  20.483  0.00  0.00    +0.000 A 
ATOM      4  C   UNL     1       1.235   3.546  20.725  0.00  0.00    +0.000 A 
ATOM      5  C   UNL     1       0.758   2.779  19.664  0.00  0.00    +0.000 A 
ATOM      6  C   UNL     1       1.169   3.062  18.357  0.00  0.00    +0.000 A 
ATOM      7  C   UNL     1       2.063   4.113  18.109  0.00  0.00    +0.000 A 
ENDBRANCH   1   2
BRANCH   1   8
ATOM      8  C   UNL     1       4.828   5.639  18.285  0.00  0.00    +0.000 C 
BRANCH   8   9
ATOM      9  C   UNL     1       5.707   4.666  19.086  0.00  0.00    +0.000 C 
BRANCH   9  11
ATOM     10  C   UNL     1       6.645   4.616  16.837  0.00  0.00    +0.000 C 
ATOM     11  N   UNL     1       6.851   4.280  18.246  0.00  0.00    +0.000 NA
ATOM     12  H   UNL     1       7.703   4.787  18.582  0.00  0.00    +0.000 HD
ENDBRANCH   9  11
ENDBRANCH   8   9
ENDBRANCH   1   8
BRANCH   1  13
ATOM     13  O   UNL     1       2.932   7.123  18.280  0.00  0.00    +0.000 OA
BRANCH  13  14
ATOM     14  C   UNL     1       2.106   8.083  18.789  0.00  0.00    +0.000 A 
ATOM     15  C   UNL     1       1.592   9.057  17.920  0.00  0.00    +0.000 A 
ATOM     16  C   UNL     1       0.749  10.067  18.394  0.00  0.00    +0.000 A 
ATOM     17  C   UNL     1       0.395  10.129  19.745  0.00  0.00    +0.000 A 
ATOM     18  I   UNL     1      -0.895  11.713  20.337  0.00  0.00    +0.000 I 
ATOM     19  C   UNL     1       0.900   9.161  20.642  0.00  0.00    +0.000 A 
ATOM     20  C   UNL     1       0.565   9.153  22.110  0.00  0.00    +0.000 C 
ATOM     21  C   UNL     1       1.752   8.155  20.157  0.00  0.00    +0.000 A 
ENDBRANCH  13  14
ENDBRANCH   1  13
TORSDOF 6
ENDMDL
MODEL 3
REMARK VINA RESULT:      -6.9      2.210      3.075
REMARK  Name = 
REMARK  8 active torsions:
REMARK  status: ('A' for Active; 'I' for Inactive)
REMARK    1  A    between atoms: C_1  and  N_2
REMARK    2  A    between atoms: N_2  and  C_3
REMARK    3  A    between atoms: C_3  and  C_4
REMARK    4  A    between atoms: C_4  and  C_5
REMARK    5  A    between atoms: C_5  and  O_6
REMARK    6  A    between atoms: C_5  and  C_15
REMARK    7  A    between atoms: O_6  and  C_7
REMARK    8  A    between atoms: C_12  and  C_13
REMARK                            x       y       z     vdW  Elec       q    Type
REMARK                         _______ _______ _______ _____ _____    ______ ____
ROOT
ATOM      1  C   UNL     1       4.927   5.420  16.487  0.00  0.00    +0.000 C 
ENDROOT
BRANCH   1   2
ATOM      2  C   UNL     1       6.107   5.954  17.283  0.00  0.00    +0.000 A 
ATOM      3  C   UNL     1       6.612   7.230  16.966  0.00  0.00    +0.000 A 
ATOM      4  C   UNL     1       7.683   7.776  17.676  0.00  0.00    +0.000 A 
ATOM      5  C   UNL     1       8.266   7.058  18.717  0.00  0.00    +0.000 A 
ATOM      6  C   UNL     1       7.777   5.790  19.052  0.00  0.00    +0.000 A 
ATOM      7  C   UNL     1       6.703   5.236  18.341  0.00  0.00    +0.000 A 
ENDBRANCH   1   2
BRANCH   1   8
ATOM      8  C   UNL     1       5.290   4.173  15.646  0.00  0.00    +0.000 C 
BRANCH   8   9
ATOM      9  C   UNL     1       6.239   4.429  14.465  0.00  0.00    +0.000 C 
BRANCH   9  11
ATOM     10  C   UNL     1       5.883   3.440  12.267  0.00  0.00    +0.000 C 
ATOM     11  N   UNL     1       6.301   3.206  13.650  0.00  0.00    +0.000 NA
ATOM     12  H   UNL     1       7.288   2.858  13.639  0.00  0.00    +0.000 HD
ENDBRANCH   9  11
ENDBRANCH   8   9
ENDBRANCH   1   8
BRANCH   1  13
ATOM     13  O   UNL     1       3.813   5.149  17.278  0.00  0.00    +0.000 OA
BRANCH  13  14
ATOM     14  C   UNL     1       3.165   6.017  18.107  0.00  0.00    +0.000 A 
ATOM     15  C   UNL     1       2.838   5.591  19.403  0.00  0.00    +0.000 A 
ATOM     16  C   UNL     1       2.166   6.440  20.289  0.00  0.00    +0.000 A 
ATOM     17  C   UNL     1       1.807   7.736  19.905  0.00  0.00    +0.000 A 
ATOM     18  I   UNL     1       0.791   8.926  21.345  0.00  0.00    +0.000 I 
ATOM     19  C   UNL     1       2.123   8.189  18.605  0.00  0.00    +0.000 A 
ATOM     20  C   UNL     1       1.777   9.570  18.113  0.00  0.00    +0.000 C 
ATOM     21  C   UNL     1       2.791   7.326  17.720  0.00  0.00    +0.000 A 
ENDBRANCH  13  14
ENDBRANCH   1  13
TORSDOF 6
ENDMDL
MODEL 4
REMARK VINA RESULT:      -6.8      1.963      4.052
REMARK  Name = 
REMARK  8 active torsions:
REMARK  status: ('A' for Active; 'I' for Inactive)
REMARK    1  A    between atoms: C_1  and  N_2
REMARK    2  A    between atoms: N_2  and  C_3
REMARK    3  A    between atoms: C_3  and  C_4
REMARK    4  A    between atoms: C_4  and  C_5
REMARK    5  A    between atoms: C_5  and  O_6
REMARK    6  A    between atoms: C_5  and  C_15
REMARK    7  A    between atoms: O_6  and  C_7
REMARK    8  A    between atoms: C_12  and  C_13
REMARK                            x       y       z     vdW  Elec       q    Type
REMARK                         _______ _______ _______ _____ _____    ______ ____
ROOT
ATOM      1  C   UNL     1       3.353   6.207  19.087  0.00  0.00    +0.000 C 
ENDROOT
BRANCH   1   2
ATOM      2  C   UNL     1       2.440   5.008  19.290  0.00  0.00    +0.000 A 
ATOM      3  C   UNL     1       2.051   4.259  18.162  0.00  0.00    +0.000 A 
ATOM      4  C   UNL     1       1.229   3.139  18.293  0.00  0.00    +0.000 A 
ATOM      5  C   UNL     1       0.781   2.746  19.552  0.00  0.00    +0.000 A 
ATOM      6  C   UNL     1       1.159   3.473  20.686  0.00  0.00    +0.000 A 
ATOM      7  C   UNL     1       1.984   4.601  20.560  0.00  0.00    +0.000 A 
ENDBRANCH   1   2
BRANCH   1   8
ATOM      8  C   UNL     1       4.685   5.831  18.394  0.00  0.00    +0.000 C 
BRANCH   8   9
ATOM      9  C   UNL     1       5.580   4.856  19.174  0.00  0.00    +0.000 C 
BRANCH   9  11
ATOM     10  C   UNL     1       6.045   4.416  16.822  0.00  0.00    +0.000 C 
ATOM     11  N   UNL     1       6.406   4.114  18.208  0.00  0.00    +0.000 NA
ATOM     12  H   UNL     1       7.409   4.377  18.350  0.00  0.00    +0.000 HD
ENDBRANCH   9  11
ENDBRANCH   8   9
ENDBRANCH   1   8
BRANCH   1  13
ATOM     13  O   UNL     1       2.740   7.250  18.398  0.00  0.00    +0.000 OA
BRANCH  13  14
ATOM     14  C   UNL     1       1.937   8.221  18.923  0.00  0.00    +0.000 A 
ATOM     15  C   UNL     1       1.433   9.212  18.068  0.00  0.00    +0.000 A 
ATOM     16  C   UNL     1       0.613  10.233  18.559  0.00  0.00    +0.000 A 
ATOM     17  C   UNL     1       0.275  10.289  19.915  0.00  0.00    +0.000 A 
ATOM     18  I   UNL     1      -0.980  11.892  20.533  0.00  0.00    +0.000 I 
ATOM     19  C   UNL     1       0.770   9.305  20.798  0.00  0.00    +0.000 A 
ATOM     20  C   UNL     1       0.450   9.289  22.269  0.00  0.00    +0.000 C 
ATOM     21  C   UNL     1       1.599   8.287  20.296  0.00  0.00    +0.000 A 
ENDBRANCH  13  14
ENDBRANCH   1  13
TORSDOF 6
ENDMDL
MODEL 5
REMARK VINA RESULT:      -6.8      0.786      1.925
REMARK  Name = 
REMARK  8 active torsions:
REMARK  status: ('A' for Active; 'I' for Inactive)
REMARK    1  A    between atoms: C_1  and  N_2
REMARK    2  A    between atoms: N_2  and  C_3
REMARK    3  A    between atoms: C_3  and  C_4
REMARK    4  A    between atoms: C_4  and  C_5
REMARK    5  A    between atoms: C_5  and  O_6
REMARK    6  A    between atoms: C_5  and  C_15
REMARK    7  A    between atoms: O_6  and  C_7
REMARK    8  A    between atoms: C_12  and  C_13
REMARK                            x       y       z     vdW  Elec       q    Type
REMARK                         _______ _______ _______ _____ _____    ______ ____
ROOT
ATOM      1  C   UNL     1       4.025   5.260  17.568  0.00  0.00    +0.000 C 
ENDROOT
BRANCH   1   2
ATOM      2  C   UNL     1       5.412   5.796  17.885  0.00  0.00    +0.000 A 
ATOM      3  C   UNL     1       6.126   5.227  18.958  0.00  0.00    +0.000 A 
ATOM      4  C   UNL     1       7.410   5.668  19.281  0.00  0.00    +0.000 A 
ATOM      5  C   UNL     1       8.004   6.686  18.538  0.00  0.00    +0.000 A 
ATOM      6  C   UNL     1       7.315   7.262  17.466  0.00  0.00    +0.000 A 
ATOM      7  C   UNL     1       6.023   6.823  17.138  0.00  0.00    +0.000 A 
ENDBRANCH   1   2
BRANCH   1   8
ATOM      8  C   UNL     1       4.054   3.802  17.051  0.00  0.00    +0.000 C 
BRANCH   8   9
ATOM      9  C   UNL     1       2.783   2.982  17.320  0.00  0.00    +0.000 C 
BRANCH   9  11
ATOM     10  C   UNL     1       1.746   2.221  19.389  0.00  0.00    +0.000 C 
ATOM     11  N   UNL     1       2.965   2.246  18.580  0.00  0.00    +0.000 NA
ATOM     12  H   UNL     1       3.230   1.258  18.358  0.00  0.00    +0.000 HD
ENDBRANCH   9  11
ENDBRANCH   8   9
ENDBRANCH   1   8
BRANCH   1  13
ATOM     13  O   UNL     1       3.141   5.364  18.639  0.00  0.00    +0.000 OA
BRANCH  13  14
ATOM     14  C   UNL     1       2.533   6.498  19.094  0.00  0.00    +0.000 A 
ATOM     15  C   UNL     1       2.011   6.505  20.395  0.00  0.00    +0.000 A 
ATOM     16  C   UNL     1       1.371   7.640  20.906  0.00  0.00    +0.000 A 
ATOM     17  C   UNL     1       1.240   8.796  20.130  0.00  0.00    +0.000 A 
ATOM     18  I   UNL     1       0.248  10.452  21.023  0.00  0.00    +0.000 I 
ATOM     19  C   UNL     1       1.756   8.815  18.816  0.00  0.00    +0.000 A 
ATOM     20  C   UNL     1       1.661  10.020  17.917  0.00  0.00    +0.000 C 
ATOM     21  C   UNL     1       2.390   7.668  18.310  0.00  0.00    +0.000 A 
ENDBRANCH  13  14
ENDBRANCH   1  13
TORSDOF 6
ENDMDL
MODEL 6
REMARK VINA RESULT:      -6.8      1.449      1.860
REMARK  Name = 
REMARK  8 active torsions:
REMARK  status: ('A' for Active; 'I' for Inactive)
REMARK    1  A    between atoms: C_1  and  N_2
REMARK    2  A    between atoms: N_2  and  C_3
REMARK    3  A    between atoms: C_3  and  C_4
REMARK    4  A    between atoms: C_4  and  C_5
REMARK    5  A    between atoms: C_5  and  O_6
REMARK    6  A    between atoms: C_5  and  C_15
REMARK    7  A    between atoms: O_6  and  C_7
REMARK    8  A    between atoms: C_12  and  C_13
REMARK                            x       y       z     vdW  Elec       q    Type
REMARK                         _______ _______ _______ _____ _____    ______ ____
ROOT
ATOM      1  C   UNL     1       3.179   5.292  17.809  0.00  0.00    +0.000 C 
ENDROOT
BRANCH   1   2
ATOM      2  C   UNL     1       4.639   5.036  17.471  0.00  0.00    +0.000 A 
ATOM      3  C   UNL     1       5.623   5.408  18.408  0.00  0.00    +0.000 A 
ATOM      4  C   UNL     1       6.976   5.179  18.158  0.00  0.00    +0.000 A 
ATOM      5  C   UNL     1       7.372   4.573  16.967  0.00  0.00    +0.000 A 
ATOM      6  C   UNL     1       6.411   4.191  16.025  0.00  0.00    +0.000 A 
ATOM      7  C   UNL     1       5.049   4.420  16.271  0.00  0.00    +0.000 A 
ENDBRANCH   1   2
BRANCH   1   8
ATOM      8  C   UNL     1       2.341   3.992  17.858  0.00  0.00    +0.000 C 
BRANCH   8   9
ATOM      9  C   UNL     1       2.503   3.152  19.134  0.00  0.00    +0.000 C 
BRANCH   9  11
ATOM     10  C   UNL     1       2.068   3.609  21.488  0.00  0.00    +0.000 C 
ATOM     11  N   UNL     1       1.529   3.628  20.128  0.00  0.00    +0.000 NA
ATOM     12  H   UNL     1       1.264   4.614  19.895  0.00  0.00    +0.000 HD
ENDBRANCH   9  11
ENDBRANCH   8   9
ENDBRANCH   1   8
BRANCH   1  13
ATOM     13  O   UNL     1       3.009   6.009  18.991  0.00  0.00    +0.000 OA
BRANCH  13  14
ATOM     14  C   UNL     1       2.345   7.191  19.145  0.00  0.00    +0.000 A 
ATOM     15  C   UNL     1       2.250   8.057  18.047  0.00  0.00    +0.000 A 
ATOM     16  C   UNL     1       1.586   9.284  18.156  0.00  0.00    +0.000 A 
ATOM     17  C   UNL     1       0.999   9.675  19.363  0.00  0.00    +0.000 A 
ATOM     18  I   UNL     1       0.020  11.563  19.397  0.00  0.00    +0.000 I 
ATOM     19  C   UNL     1       1.082   8.821  20.486  0.00  0.00    +0.000 A 
ATOM     20  C   UNL     1       0.473   9.164  21.820  0.00  0.00    +0.000 C 
ATOM     21  C   UNL     1       1.756   7.595  20.368  0.00  0.00    +0.000 A 
ENDBRANCH  13  14
ENDBRANCH   1  13
TORSDOF 6
ENDMDL
MODEL 7
REMARK VINA RESULT:      -6.8      0.707      1.393
REMARK  Name = 
REMARK  8 active torsions:
REMARK  status: ('A' for Active; 'I' for Inactive)
REMARK    1  A    between atoms: C_1  and  N_2
REMARK    2  A    between atoms: N_2  and  C_3
REMARK    3  A    between atoms: C_3  and  C_4
REMARK    4  A    between atoms: C_4  and  C_5
REMARK    5  A    between atoms: C_5  and  O_6
REMARK    6  A    between atoms: C_5  and  C_15
REMARK    7  A    between atoms: O_6  and  C_7
REMARK    8  A    between atoms: C_12  and  C_13
REMARK                            x       y       z     vdW  Elec       q    Type
REMARK                         _______ _______ _______ _____ _____    ______ ____
ROOT
ATOM      1  C   UNL     1       3.788   5.674  17.760  0.00  0.00    +0.000 C 
ENDROOT
BRANCH   1   2
ATOM      2  C   UNL     1       5.250   6.001  18.019  0.00  0.00    +0.000 A 
ATOM      3  C   UNL     1       5.906   5.358  19.087  0.00  0.00    +0.000 A 
ATOM      4  C   UNL     1       7.252   5.608  19.358  0.00  0.00    +0.000 A 
ATOM      5  C   UNL     1       7.968   6.502  18.565  0.00  0.00    +0.000 A 
ATOM      6  C   UNL     1       7.337   7.148  17.497  0.00  0.00    +0.000 A 
ATOM      7  C   UNL     1       5.984   6.902  17.221  0.00  0.00    +0.000 A 
ENDBRANCH   1   2
BRANCH   1   8
ATOM      8  C   UNL     1       3.567   4.190  17.382  0.00  0.00    +0.000 C 
BRANCH   8   9
ATOM      9  C   UNL     1       2.125   3.681  17.524  0.00  0.00    +0.000 C 
BRANCH   9  11
ATOM     10  C   UNL     1       3.497   1.776  18.178  0.00  0.00    +0.000 C 
ATOM     11  N   UNL     1       2.160   2.372  18.195  0.00  0.00    +0.000 NA
ATOM     12  H   UNL     1       1.871   2.496  19.193  0.00  0.00    +0.000 HD
ENDBRANCH   9  11
ENDBRANCH   8   9
ENDBRANCH   1   8
BRANCH   1  13
ATOM     13  O   UNL     1       2.955   6.020  18.821  0.00  0.00    +0.000 OA
BRANCH  13  14
ATOM     14  C   UNL     1       2.321   7.213  19.011  0.00  0.00    +0.000 A 
ATOM     15  C   UNL     1       2.179   8.080  17.918  0.00  0.00    +0.000 A 
ATOM     16  C   UNL     1       1.545   9.319  18.062  0.00  0.00    +0.000 A 
ATOM     17  C   UNL     1       1.034   9.721  19.300  0.00  0.00    +0.000 A 
ATOM     18  I   UNL     1       0.091  11.625  19.385  0.00  0.00    +0.000 I 
ATOM     19  C   UNL     1       1.164   8.867  20.417  0.00  0.00    +0.000 A 
ATOM     20  C   UNL     1       0.638   9.221  21.783  0.00  0.00    +0.000 C 
ATOM     21  C   UNL     1       1.809   7.629  20.264  0.00  0.00    +0.000 A 
ENDBRANCH  13  14
ENDBRANCH   1  13
TORSDOF 6
ENDMDL
MODEL 8
REMARK VINA RESULT:      -6.7      1.669      2.689
REMARK  Name = 
REMARK  8 active torsions:
REMARK  status: ('A' for Active; 'I' for Inactive)
REMARK    1  A    between atoms: C_1  and  N_2
REMARK    2  A    between atoms: N_2  and  C_3
REMARK    3  A    between atoms: C_3  and  C_4
REMARK    4  A    between atoms: C_4  and  C_5
REMARK    5  A    between atoms: C_5  and  O_6
REMARK    6  A    between atoms: C_5  and  C_15
REMARK    7  A    between atoms: O_6  and  C_7
REMARK    8  A    between atoms: C_12  and  C_13
REMARK                            x       y       z     vdW  Elec       q    Type
REMARK                         _______ _______ _______ _____ _____    ______ ____
ROOT
ATOM      1  C   UNL     1       3.288   4.339  17.372  0.00  0.00    +0.000 C 
ENDROOT
BRANCH   1   2
ATOM      2  C   UNL     1       4.683   4.465  16.779  0.00  0.00    +0.000 A 
ATOM      3  C   UNL     1       5.781   4.568  17.656  0.00  0.00    +0.000 A 
ATOM      4  C   UNL     1       7.084   4.667  17.167  0.00  0.00    +0.000 A 
ATOM      5  C   UNL     1       7.314   4.664  15.792  0.00  0.00    +0.000 A 
ATOM      6  C   UNL     1       6.239   4.559  14.904  0.00  0.00    +0.000 A 
ATOM      7  C   UNL     1       4.927   4.460  15.391  0.00  0.00    +0.000 A 
ENDBRANCH   1   2
BRANCH   1   8
ATOM      8  C   UNL     1       2.736   2.896  17.296  0.00  0.00    +0.000 C 
BRANCH   8   9
ATOM      9  C   UNL     1       2.717   2.127  18.626  0.00  0.00    +0.000 C 
BRANCH   9  11
ATOM     10  C   UNL     1       4.494   2.054  20.292  0.00  0.00    +0.000 C 
ATOM     11  N   UNL     1       4.091   1.698  18.932  0.00  0.00    +0.000 NA
ATOM     12  H   UNL     1       4.148   0.657  18.835  0.00  0.00    +0.000 HD
ENDBRANCH   9  11
ENDBRANCH   8   9
ENDBRANCH   1   8
BRANCH   1  13
ATOM     13  O   UNL     1       3.207   4.809  18.680  0.00  0.00    +0.000 OA
BRANCH  13  14
ATOM     14  C   UNL     1       2.640   5.978  19.099  0.00  0.00    +0.000 A 
ATOM     15  C   UNL     1       2.079   6.031  20.382  0.00  0.00    +0.000 A 
ATOM     16  C   UNL     1       1.479   7.203  20.855  0.00  0.00    +0.000 A 
ATOM     17  C   UNL     1       1.428   8.352  20.059  0.00  0.00    +0.000 A 
ATOM     18  I   UNL     1       0.490  10.068  20.896  0.00  0.00    +0.000 I 
ATOM     19  C   UNL     1       1.985   8.325  18.762  0.00  0.00    +0.000 A 
ATOM     20  C   UNL     1       1.976   9.518  17.843  0.00  0.00    +0.000 C 
ATOM     21  C   UNL     1       2.578   7.141  18.293  0.00  0.00    +0.000 A 
ENDBRANCH  13  14
ENDBRANCH   1  13
TORSDOF 6
ENDMDL
MODEL 9
REMARK VINA RESULT:      -6.7      1.340      1.687
REMARK  Name = 
REMARK  8 active torsions:
REMARK  status: ('A' for Active; 'I' for Inactive)
REMARK    1  A    between atoms: C_1  and  N_2
REMARK    2  A    between atoms: N_2  and  C_3
REMARK    3  A    between atoms: C_3  and  C_4
REMARK    4  A    between atoms: C_4  and  C_5
REMARK    5  A    between atoms: C_5  and  O_6
REMARK    6  A    between atoms: C_5  and  C_15
REMARK    7  A    between atoms: O_6  and  C_7
REMARK    8  A    between atoms: C_12  and  C_13
REMARK                            x       y       z     vdW  Elec       q    Type
REMARK                         _______ _______ _______ _____ _____    ______ ____
ROOT
ATOM      1  C   UNL     1       3.153   4.749  17.740  0.00  0.00    +0.000 C 
ENDROOT
BRANCH   1   2
ATOM      2  C   UNL     1       4.635   4.660  17.412  0.00  0.00    +0.000 A 
ATOM      3  C   UNL     1       5.016   4.265  16.115  0.00  0.00    +0.000 A 
ATOM      4  C   UNL     1       6.362   4.185  15.754  0.00  0.00    +0.000 A 
ATOM      5  C   UNL     1       7.352   4.500  16.683  0.00  0.00    +0.000 A 
ATOM      6  C   UNL     1       6.995   4.898  17.976  0.00  0.00    +0.000 A 
ATOM      7  C   UNL     1       5.644   4.979  18.343  0.00  0.00    +0.000 A 
ENDBRANCH   1   2
BRANCH   1   8
ATOM      8  C   UNL     1       2.456   3.367  17.725  0.00  0.00    +0.000 C 
BRANCH   8   9
ATOM      9  C   UNL     1       2.514   2.586  19.047  0.00  0.00    +0.000 C 
BRANCH   9  11
ATOM     10  C   UNL     1       1.512   3.018  21.226  0.00  0.00    +0.000 C 
ATOM     11  N   UNL     1       1.273   2.847  19.793  0.00  0.00    +0.000 NA
ATOM     12  H   UNL     1       0.838   3.726  19.426  0.00  0.00    +0.000 HD
ENDBRANCH   9  11
ENDBRANCH   8   9
ENDBRANCH   1   8
BRANCH   1  13
ATOM     13  O   UNL     1       2.898   5.394  18.947  0.00  0.00    +0.000 OA
BRANCH  13  14
ATOM     14  C   UNL     1       2.385   6.647  19.115  0.00  0.00    +0.000 A 
ATOM     15  C   UNL     1       2.369   7.520  18.017  0.00  0.00    +0.000 A 
ATOM     16  C   UNL     1       1.861   8.818  18.139  0.00  0.00    +0.000 A 
ATOM     17  C   UNL     1       1.355   9.276  19.359  0.00  0.00    +0.000 A 
ATOM     18  I   UNL     1       0.612  11.268  19.412  0.00  0.00    +0.000 I 
ATOM     19  C   UNL     1       1.361   8.418  20.481  0.00  0.00    +0.000 A 
ATOM     20  C   UNL     1       0.830   8.830  21.829  0.00  0.00    +0.000 C 
ATOM     21  C   UNL     1       1.879   7.119  20.350  0.00  0.00    +0.000 A 
ENDBRANCH  13  14
ENDBRANCH   1  13
TORSDOF 6
ENDMDL
