MODEL 1
REMARK VINA RESULT:      -7.9      0.000      0.000
REMARK  Name = 
REMARK  6 active torsions:
REMARK  status: ('A' for Active; 'I' for Inactive)
REMARK    1  A    between atoms: C_2  and  C_15
REMARK    2  A    between atoms: N_3  and  N_4
REMARK    3  A    between atoms: C_5  and  C_7
REMARK    4  A    between atoms: C_18  and  C_19
REMARK    5  A    between atoms: C_19  and  O_20
REMARK    6  A    between atoms: O_20  and  C_21
REMARK                            x       y       z     vdW  Elec       q    Type
REMARK                         _______ _______ _______ _____ _____    ______ ____
ROOT
ATOM      1  O   UNL     1       2.066   8.656  18.612  0.00  0.00    +0.000 OA
ATOM      2  C   UNL     1       2.098   7.741  19.436  0.00  0.00    +0.000 C 
ATOM      3  N   UNL     1       1.662   7.909  20.736  0.00  0.00    +0.000 N 
ATOM      4  H   UNL     1       1.711   7.161  21.427  0.00  0.00    +0.000 HD
ENDROOT
BRANCH   2   5
ATOM      5  C   UNL     1       2.606   6.403  19.115  0.00  0.00    +0.000 A 
ATOM      6  C   UNL     1       2.506   5.337  19.992  0.00  0.00    +0.000 A 
ATOM      7  S   UNL     1       3.209   3.933  19.322  0.00  0.00    +0.000 S 
ATOM      8  C   UNL     1       3.610   4.823  17.901  0.00  0.00    +0.000 A 
ATOM      9  N   UNL     1       3.228   6.093  17.900  0.00  0.00    +0.000 NA
BRANCH   8  10
ATOM     10  C   UNL     1       4.281   4.110  16.761  0.00  0.00    +0.000 C 
BRANCH  10  11
ATOM     11  O   UNL     1       5.633   3.836  17.142  0.00  0.00    +0.000 OA
BRANCH  11  12
ATOM     12  C   UNL     1       6.397   4.929  17.467  0.00  0.00    +0.000 A 
ATOM     13  C   UNL     1       6.584   6.057  16.661  0.00  0.00    +0.000 A 
ATOM     14  C   UNL     1       7.377   7.118  17.106  0.00  0.00    +0.000 A 
ATOM     15  C   UNL     1       7.983   7.047  18.353  0.00  0.00    +0.000 A 
ATOM     16  F   UNL     1       8.737   8.069  18.777  0.00  0.00    +0.000 F 
ATOM     17  C   UNL     1       7.817   5.931  19.163  0.00  0.00    +0.000 A 
ATOM     18  C   UNL     1       7.023   4.868  18.717  0.00  0.00    +0.000 A 
ENDBRANCH  11  12
ENDBRANCH  10  11
ENDBRANCH   8  10
ENDBRANCH   2   5
BRANCH   3  19
ATOM     19  N   UNL     1       1.181   9.171  21.124  0.00  0.00    +0.000 N 
ATOM     20  C   UNL     1      -0.052   9.306  21.742  0.00  0.00    +0.000 C 
ATOM     21  O   UNL     1      -0.747   8.318  21.991  0.00  0.00    +0.000 OA
ATOM     22  H   UNL     1       1.756   9.979  20.894  0.00  0.00    +0.000 HD
BRANCH  20  23
ATOM     23  C   UNL     1      -0.458  10.672  22.071  0.00  0.00    +0.000 A 
ATOM     24  C   UNL     1      -1.393  11.069  23.028  0.00  0.00    +0.000 A 
ATOM     25  C   UNL     1      -1.550  12.476  23.047  0.00  0.00    +0.000 A 
ATOM     26  C   UNL     1      -0.752  13.088  22.125  0.00  0.00    +0.000 A 
ATOM     27  S   UNL     1       0.213  12.044  21.245  0.00  0.00    +0.000 S 
ATOM     28  C   UNL     1      -0.897  14.559  22.059  0.00  0.00    +0.000 C 
ATOM     29  C   UNL     1      -1.971  14.828  23.158  0.00  0.00    +0.000 C 
ATOM     30  C   UNL     1      -2.372  13.456  23.795  0.00  0.00    +0.000 C 
ENDBRANCH  20  23
ENDBRANCH   3  19
TORSDOF 6
ENDMDL
MODEL 2
REMARK VINA RESULT:      -7.8      2.847      4.073
REMARK  Name = 
REMARK  6 active torsions:
REMARK  status: ('A' for Active; 'I' for Inactive)
REMARK    1  A    between atoms: C_2  and  C_15
REMARK    2  A    between atoms: N_3  and  N_4
REMARK    3  A    between atoms: C_5  and  C_7
REMARK    4  A    between atoms: C_18  and  C_19
REMARK    5  A    between atoms: C_19  and  O_20
REMARK    6  A    between atoms: O_20  and  C_21
REMARK                            x       y       z     vdW  Elec       q    Type
REMARK                         _______ _______ _______ _____ _____    ______ ____
ROOT
ATOM      1  O   UNL     1       2.406   9.136  17.249  0.00  0.00    +0.000 OA
ATOM      2  C   UNL     1       2.665   8.183  17.986  0.00  0.00    +0.000 C 
ATOM      3  N   UNL     1       2.095   8.047  19.237  0.00  0.00    +0.000 N 
ATOM      4  H   UNL     1       2.326   7.272  19.859  0.00  0.00    +0.000 HD
ENDROOT
BRANCH   2   5
ATOM      5  C   UNL     1       3.599   7.118  17.605  0.00  0.00    +0.000 A 
ATOM      6  C   UNL     1       4.870   7.378  17.124  0.00  0.00    +0.000 A 
ATOM      7  S   UNL     1       5.688   5.925  16.758  0.00  0.00    +0.000 S 
ATOM      8  C   UNL     1       4.304   5.030  17.258  0.00  0.00    +0.000 A 
ATOM      9  N   UNL     1       3.286   5.757  17.698  0.00  0.00    +0.000 NA
BRANCH   8  10
ATOM     10  C   UNL     1       4.360   3.528  17.232  0.00  0.00    +0.000 C 
BRANCH  10  11
ATOM     11  O   UNL     1       3.028   3.030  17.391  0.00  0.00    +0.000 OA
BRANCH  11  12
ATOM     12  C   UNL     1       2.589   2.896  18.684  0.00  0.00    +0.000 A 
ATOM     13  C   UNL     1       3.393   2.586  19.786  0.00  0.00    +0.000 A 
ATOM     14  C   UNL     1       2.834   2.488  21.063  0.00  0.00    +0.000 A 
ATOM     15  C   UNL     1       1.472   2.698  21.233  0.00  0.00    +0.000 A 
ATOM     16  F   UNL     1       0.941   2.609  22.460  0.00  0.00    +0.000 F 
ATOM     17  C   UNL     1       0.656   2.998  20.150  0.00  0.00    +0.000 A 
ATOM     18  C   UNL     1       1.216   3.094  18.872  0.00  0.00    +0.000 A 
ENDBRANCH  11  12
ENDBRANCH  10  11
ENDBRANCH   8  10
ENDBRANCH   2   5
BRANCH   3  19
ATOM     19  N   UNL     1       1.204   9.039  19.679  0.00  0.00    +0.000 N 
ATOM     20  C   UNL     1       0.836   9.128  21.012  0.00  0.00    +0.000 C 
ATOM     21  O   UNL     1       1.304   8.352  21.850  0.00  0.00    +0.000 OA
ATOM     22  H   UNL     1       0.811   9.660  18.973  0.00  0.00    +0.000 HD
BRANCH  20  23
ATOM     23  C   UNL     1      -0.120  10.182  21.346  0.00  0.00    +0.000 A 
ATOM     24  C   UNL     1      -0.636  10.489  22.605  0.00  0.00    +0.000 A 
ATOM     25  C   UNL     1      -1.563  11.558  22.540  0.00  0.00    +0.000 A 
ATOM     26  C   UNL     1      -1.721  12.014  21.265  0.00  0.00    +0.000 A 
ATOM     27  S   UNL     1      -0.776  11.233  20.129  0.00  0.00    +0.000 S 
ATOM     28  C   UNL     1      -2.711  13.103  21.115  0.00  0.00    +0.000 C 
ATOM     29  C   UNL     1      -3.193  13.307  22.585  0.00  0.00    +0.000 C 
ATOM     30  C   UNL     1      -2.422  12.295  23.495  0.00  0.00    +0.000 C 
ENDBRANCH  20  23
ENDBRANCH   3  19
TORSDOF 6
ENDMDL
MODEL 3
REMARK VINA RESULT:      -7.8      2.876      4.163
REMARK  Name = 
REMARK  6 active torsions:
REMARK  status: ('A' for Active; 'I' for Inactive)
REMARK    1  A    between atoms: C_2  and  C_15
REMARK    2  A    between atoms: N_3  and  N_4
REMARK    3  A    between atoms: C_5  and  C_7
REMARK    4  A    between atoms: C_18  and  C_19
REMARK    5  A    between atoms: C_19  and  O_20
REMARK    6  A    between atoms: O_20  and  C_21
REMARK                            x       y       z     vdW  Elec       q    Type
REMARK                         _______ _______ _______ _____ _____    ______ ____
ROOT
ATOM      1  O   UNL     1       2.385   9.157  17.297  0.00  0.00    +0.000 OA
ATOM      2  C   UNL     1       2.632   8.175  17.999  0.00  0.00    +0.000 C 
ATOM      3  N   UNL     1       2.042   7.988  19.234  0.00  0.00    +0.000 N 
ATOM      4  H   UNL     1       2.263   7.188  19.827  0.00  0.00    +0.000 HD
ENDROOT
BRANCH   2   5
ATOM      5  C   UNL     1       3.574   7.127  17.591  0.00  0.00    +0.000 A 
ATOM      6  C   UNL     1       4.819   7.409  17.057  0.00  0.00    +0.000 A 
ATOM      7  S   UNL     1       5.653   5.971  16.672  0.00  0.00    +0.000 S 
ATOM      8  C   UNL     1       4.310   5.051  17.236  0.00  0.00    +0.000 A 
ATOM      9  N   UNL     1       3.295   5.760  17.710  0.00  0.00    +0.000 NA
BRANCH   8  10
ATOM     10  C   UNL     1       4.399   3.550  17.222  0.00  0.00    +0.000 C 
BRANCH  10  11
ATOM     11  O   UNL     1       3.076   3.024  17.368  0.00  0.00    +0.000 OA
BRANCH  11  12
ATOM     12  C   UNL     1       2.622   2.895  18.656  0.00  0.00    +0.000 A 
ATOM     13  C   UNL     1       3.427   2.711  19.785  0.00  0.00    +0.000 A 
ATOM     14  C   UNL     1       2.850   2.604  21.054  0.00  0.00    +0.000 A 
ATOM     15  C   UNL     1       1.471   2.678  21.189  0.00  0.00    +0.000 A 
ATOM     16  F   UNL     1       0.923   2.581  22.407  0.00  0.00    +0.000 F 
ATOM     17  C   UNL     1       0.654   2.851  20.079  0.00  0.00    +0.000 A 
ATOM     18  C   UNL     1       1.232   2.957  18.809  0.00  0.00    +0.000 A 
ENDBRANCH  11  12
ENDBRANCH  10  11
ENDBRANCH   8  10
ENDBRANCH   2   5
BRANCH   3  19
ATOM     19  N   UNL     1       1.142   8.961  19.701  0.00  0.00    +0.000 N 
ATOM     20  C   UNL     1       0.948   9.162  21.058  0.00  0.00    +0.000 C 
ATOM     21  O   UNL     1       1.580   8.508  21.891  0.00  0.00    +0.000 OA
ATOM     22  H   UNL     1       0.613   9.478  19.001  0.00  0.00    +0.000 HD
BRANCH  20  23
ATOM     23  C   UNL     1      -0.035  10.181  21.421  0.00  0.00    +0.000 A 
ATOM     24  C   UNL     1      -0.524  11.211  20.616  0.00  0.00    +0.000 A 
ATOM     25  C   UNL     1      -1.445  12.026  21.318  0.00  0.00    +0.000 A 
ATOM     26  C   UNL     1      -1.620  11.602  22.602  0.00  0.00    +0.000 A 
ATOM     27  S   UNL     1      -0.745  10.237  23.005  0.00  0.00    +0.000 S 
ATOM     28  C   UNL     1      -2.539  12.435  23.409  0.00  0.00    +0.000 C 
ATOM     29  C   UNL     1      -2.972  13.528  22.383  0.00  0.00    +0.000 C 
ATOM     30  C   UNL     1      -2.253  13.232  21.025  0.00  0.00    +0.000 C 
ENDBRANCH  20  23
ENDBRANCH   3  19
TORSDOF 6
ENDMDL
MODEL 4
REMARK VINA RESULT:      -7.6      2.659      3.205
REMARK  Name = 
REMARK  6 active torsions:
REMARK  status: ('A' for Active; 'I' for Inactive)
REMARK    1  A    between atoms: C_2  and  C_15
REMARK    2  A    between atoms: N_3  and  N_4
REMARK    3  A    between atoms: C_5  and  C_7
REMARK    4  A    between atoms: C_18  and  C_19
REMARK    5  A    between atoms: C_19  and  O_20
REMARK    6  A    between atoms: O_20  and  C_21
REMARK                            x       y       z     vdW  Elec       q    Type
REMARK                         _______ _______ _______ _____ _____    ______ ____
ROOT
ATOM      1  O   UNL     1       1.975   7.988  18.151  0.00  0.00    +0.000 OA
ATOM      2  C   UNL     1       2.432   7.364  19.111  0.00  0.00    +0.000 C 
ATOM      3  N   UNL     1       2.022   7.609  20.407  0.00  0.00    +0.000 N 
ATOM      4  H   UNL     1       2.416   7.111  21.205  0.00  0.00    +0.000 HD
ENDROOT
BRANCH   2   5
ATOM      5  C   UNL     1       3.451   6.320  18.964  0.00  0.00    +0.000 A 
ATOM      6  C   UNL     1       3.507   5.210  19.790  0.00  0.00    +0.000 A 
ATOM      7  S   UNL     1       4.818   4.204  19.365  0.00  0.00    +0.000 S 
ATOM      8  C   UNL     1       5.241   5.301  18.106  0.00  0.00    +0.000 A 
ATOM      9  N   UNL     1       4.446   6.355  17.979  0.00  0.00    +0.000 NA
BRANCH   8  10
ATOM     10  C   UNL     1       6.405   4.971  17.213  0.00  0.00    +0.000 C 
BRANCH  10  11
ATOM     11  O   UNL     1       6.334   5.814  16.059  0.00  0.00    +0.000 OA
BRANCH  11  12
ATOM     12  C   UNL     1       6.477   5.185  14.848  0.00  0.00    +0.000 A 
ATOM     13  C   UNL     1       7.514   5.408  13.935  0.00  0.00    +0.000 A 
ATOM     14  C   UNL     1       7.562   4.696  12.734  0.00  0.00    +0.000 A 
ATOM     15  C   UNL     1       6.573   3.766  12.447  0.00  0.00    +0.000 A 
ATOM     16  F   UNL     1       6.627   3.081  11.297  0.00  0.00    +0.000 F 
ATOM     17  C   UNL     1       5.531   3.536  13.336  0.00  0.00    +0.000 A 
ATOM     18  C   UNL     1       5.482   4.251  14.538  0.00  0.00    +0.000 A 
ENDBRANCH  11  12
ENDBRANCH  10  11
ENDBRANCH   8  10
ENDBRANCH   2   5
BRANCH   3  19
ATOM     19  N   UNL     1       1.062   8.610  20.629  0.00  0.00    +0.000 N 
ATOM     20  C   UNL     1       1.082   9.377  21.782  0.00  0.00    +0.000 C 
ATOM     21  O   UNL     1       1.960   9.216  22.633  0.00  0.00    +0.000 OA
ATOM     22  H   UNL     1       0.331   8.717  19.927  0.00  0.00    +0.000 HD
BRANCH  20  23
ATOM     23  C   UNL     1       0.014  10.366  21.914  0.00  0.00    +0.000 A 
ATOM     24  C   UNL     1      -0.853  10.538  22.994  0.00  0.00    +0.000 A 
ATOM     25  C   UNL     1      -1.781  11.580  22.754  0.00  0.00    +0.000 A 
ATOM     26  C   UNL     1      -1.598  12.150  21.529  0.00  0.00    +0.000 A 
ATOM     27  S   UNL     1      -0.329  11.509  20.651  0.00  0.00    +0.000 S 
ATOM     28  C   UNL     1      -2.563  13.220  21.193  0.00  0.00    +0.000 C 
ATOM     29  C   UNL     1      -3.452  13.269  22.475  0.00  0.00    +0.000 C 
ATOM     30  C   UNL     1      -2.915  12.198  23.481  0.00  0.00    +0.000 C 
ENDBRANCH  20  23
ENDBRANCH   3  19
TORSDOF 6
ENDMDL
MODEL 5
REMARK VINA RESULT:      -7.5      0.594      1.057
REMARK  Name = 
REMARK  6 active torsions:
REMARK  status: ('A' for Active; 'I' for Inactive)
REMARK    1  A    between atoms: C_2  and  C_15
REMARK    2  A    between atoms: N_3  and  N_4
REMARK    3  A    between atoms: C_5  and  C_7
REMARK    4  A    between atoms: C_18  and  C_19
REMARK    5  A    between atoms: C_19  and  O_20
REMARK    6  A    between atoms: O_20  and  C_21
REMARK                            x       y       z     vdW  Elec       q    Type
REMARK                         _______ _______ _______ _____ _____    ______ ____
ROOT
ATOM      1  O   UNL     1       1.757   8.319  19.045  0.00  0.00    +0.000 OA
ATOM      2  C   UNL     1       1.954   7.508  19.951  0.00  0.00    +0.000 C 
ATOM      3  N   UNL     1       1.715   7.816  21.276  0.00  0.00    +0.000 N 
ATOM      4  H   UNL     1       1.900   7.155  22.031  0.00  0.00    +0.000 HD
ENDROOT
BRANCH   2   5
ATOM      5  C   UNL     1       2.464   6.154  19.706  0.00  0.00    +0.000 A 
ATOM      6  C   UNL     1       2.262   5.110  20.591  0.00  0.00    +0.000 A 
ATOM      7  S   UNL     1       2.999   3.680  20.019  0.00  0.00    +0.000 S 
ATOM      8  C   UNL     1       3.548   4.531  18.625  0.00  0.00    +0.000 A 
ATOM      9  N   UNL     1       3.192   5.807  18.562  0.00  0.00    +0.000 NA
BRANCH   8  10
ATOM     10  C   UNL     1       4.311   3.782  17.568  0.00  0.00    +0.000 C 
BRANCH  10  11
ATOM     11  O   UNL     1       5.683   3.718  17.970  0.00  0.00    +0.000 OA
BRANCH  11  12
ATOM     12  C   UNL     1       6.375   4.902  17.928  0.00  0.00    +0.000 A 
ATOM     13  C   UNL     1       7.180   5.408  18.955  0.00  0.00    +0.000 A 
ATOM     14  C   UNL     1       7.849   6.624  18.792  0.00  0.00    +0.000 A 
ATOM     15  C   UNL     1       7.709   7.332  17.606  0.00  0.00    +0.000 A 
ATOM     16  F   UNL     1       8.357   8.494  17.453  0.00  0.00    +0.000 F 
ATOM     17  C   UNL     1       6.908   6.850  16.579  0.00  0.00    +0.000 A 
ATOM     18  C   UNL     1       6.237   5.633  16.743  0.00  0.00    +0.000 A 
ENDBRANCH  11  12
ENDBRANCH  10  11
ENDBRANCH   8  10
ENDBRANCH   2   5
BRANCH   3  19
ATOM     19  N   UNL     1       1.243   9.101  21.591  0.00  0.00    +0.000 N 
ATOM     20  C   UNL     1      -0.092   9.320  21.888  0.00  0.00    +0.000 C 
ATOM     21  O   UNL     1      -0.897   8.385  21.909  0.00  0.00    +0.000 OA
ATOM     22  H   UNL     1       1.915   9.866  21.550  0.00  0.00    +0.000 HD
BRANCH  20  23
ATOM     23  C   UNL     1      -0.468  10.704  22.170  0.00  0.00    +0.000 A 
ATOM     24  C   UNL     1      -1.389  11.156  23.117  0.00  0.00    +0.000 A 
ATOM     25  C   UNL     1      -1.517  12.566  23.085  0.00  0.00    +0.000 A 
ATOM     26  C   UNL     1      -0.713  13.126  22.137  0.00  0.00    +0.000 A 
ATOM     27  S   UNL     1       0.225  12.032  21.291  0.00  0.00    +0.000 S 
ATOM     28  C   UNL     1      -0.829  14.597  22.019  0.00  0.00    +0.000 C 
ATOM     29  C   UNL     1      -1.889  14.928  23.114  0.00  0.00    +0.000 C 
ATOM     30  C   UNL     1      -2.314  13.588  23.802  0.00  0.00    +0.000 C 
ENDBRANCH  20  23
ENDBRANCH   3  19
TORSDOF 6
ENDMDL
MODEL 6
REMARK VINA RESULT:      -7.5      2.953      3.831
REMARK  Name = 
REMARK  6 active torsions:
REMARK  status: ('A' for Active; 'I' for Inactive)
REMARK    1  A    between atoms: C_2  and  C_15
REMARK    2  A    between atoms: N_3  and  N_4
REMARK    3  A    between atoms: C_5  and  C_7
REMARK    4  A    between atoms: C_18  and  C_19
REMARK    5  A    between atoms: C_19  and  O_20
REMARK    6  A    between atoms: O_20  and  C_21
REMARK                            x       y       z     vdW  Elec       q    Type
REMARK                         _______ _______ _______ _____ _____    ______ ____
ROOT
ATOM      1  O   UNL     1       2.168   9.307  17.342  0.00  0.00    +0.000 OA
ATOM      2  C   UNL     1       1.869   8.959  18.485  0.00  0.00    +0.000 C 
ATOM      3  N   UNL     1       1.362   9.848  19.413  0.00  0.00    +0.000 N 
ATOM      4  H   UNL     1       1.137   9.567  20.368  0.00  0.00    +0.000 HD
ENDROOT
BRANCH   2   5
ATOM      5  C   UNL     1       2.031   7.582  18.961  0.00  0.00    +0.000 A 
ATOM      6  C   UNL     1       1.787   7.212  20.272  0.00  0.00    +0.000 A 
ATOM      7  S   UNL     1       2.089   5.547  20.499  0.00  0.00    +0.000 S 
ATOM      8  C   UNL     1       2.531   5.410  18.839  0.00  0.00    +0.000 A 
ATOM      9  N   UNL     1       2.442   6.530  18.133  0.00  0.00    +0.000 NA
BRANCH   8  10
ATOM     10  C   UNL     1       2.908   4.060  18.295  0.00  0.00    +0.000 C 
BRANCH  10  11
ATOM     11  O   UNL     1       4.285   3.825  18.603  0.00  0.00    +0.000 OA
BRANCH  11  12
ATOM     12  C   UNL     1       5.183   4.151  17.618  0.00  0.00    +0.000 A 
ATOM     13  C   UNL     1       6.497   4.582  17.829  0.00  0.00    +0.000 A 
ATOM     14  C   UNL     1       7.327   4.875  16.743  0.00  0.00    +0.000 A 
ATOM     15  C   UNL     1       6.839   4.740  15.451  0.00  0.00    +0.000 A 
ATOM     16  F   UNL     1       7.640   5.017  14.413  0.00  0.00    +0.000 F 
ATOM     17  C   UNL     1       5.534   4.323  15.221  0.00  0.00    +0.000 A 
ATOM     18  C   UNL     1       4.704   4.031  16.309  0.00  0.00    +0.000 A 
ENDBRANCH  11  12
ENDBRANCH  10  11
ENDBRANCH   8  10
ENDBRANCH   2   5
BRANCH   3  19
ATOM     19  N   UNL     1       1.197  11.190  19.035  0.00  0.00    +0.000 N 
ATOM     20  C   UNL     1       1.237  12.208  19.975  0.00  0.00    +0.000 C 
ATOM     21  O   UNL     1       1.445  11.961  21.166  0.00  0.00    +0.000 OA
ATOM     22  H   UNL     1       1.006  11.377  18.052  0.00  0.00    +0.000 HD
BRANCH  20  23
ATOM     23  C   UNL     1       1.022  13.561  19.465  0.00  0.00    +0.000 A 
ATOM     24  C   UNL     1       1.990  14.461  19.018  0.00  0.00    +0.000 A 
ATOM     25  C   UNL     1       1.412  15.692  18.625  0.00  0.00    +0.000 A 
ATOM     26  C   UNL     1       0.058  15.690  18.785  0.00  0.00    +0.000 A 
ATOM     27  S   UNL     1      -0.568  14.253  19.364  0.00  0.00    +0.000 S 
ATOM     28  C   UNL     1      -0.608  16.964  18.434  0.00  0.00    +0.000 C 
ATOM     29  C   UNL     1       0.596  17.846  17.980  0.00  0.00    +0.000 C 
ATOM     30  C   UNL     1       1.900  16.990  18.103  0.00  0.00    +0.000 C 
ENDBRANCH  20  23
ENDBRANCH   3  19
TORSDOF 6
ENDMDL
MODEL 7
REMARK VINA RESULT:      -7.4      1.538      2.237
REMARK  Name = 
REMARK  6 active torsions:
REMARK  status: ('A' for Active; 'I' for Inactive)
REMARK    1  A    between atoms: C_2  and  C_15
REMARK    2  A    between atoms: N_3  and  N_4
REMARK    3  A    between atoms: C_5  and  C_7
REMARK    4  A    between atoms: C_18  and  C_19
REMARK    5  A    between atoms: C_19  and  O_20
REMARK    6  A    between atoms: O_20  and  C_21
REMARK                            x       y       z     vdW  Elec       q    Type
REMARK                         _______ _______ _______ _____ _____    ______ ____
ROOT
ATOM      1  O   UNL     1       1.676   6.311  20.585  0.00  0.00    +0.000 OA
ATOM      2  C   UNL     1       2.253   6.444  19.505  0.00  0.00    +0.000 C 
ATOM      3  N   UNL     1       2.251   7.641  18.814  0.00  0.00    +0.000 N 
ATOM      4  H   UNL     1       2.707   7.746  17.908  0.00  0.00    +0.000 HD
ENDROOT
BRANCH   2   5
ATOM      5  C   UNL     1       2.982   5.349  18.856  0.00  0.00    +0.000 A 
ATOM      6  C   UNL     1       3.048   4.075  19.394  0.00  0.00    +0.000 A 
ATOM      7  S   UNL     1       3.986   3.048  18.405  0.00  0.00    +0.000 S 
ATOM      8  C   UNL     1       4.255   4.356  17.317  0.00  0.00    +0.000 A 
ATOM      9  N   UNL     1       3.666   5.498  17.645  0.00  0.00    +0.000 NA
BRANCH   8  10
ATOM     10  C   UNL     1       5.055   4.111  16.068  0.00  0.00    +0.000 C 
BRANCH  10  11
ATOM     11  O   UNL     1       6.428   3.956  16.441  0.00  0.00    +0.000 OA
BRANCH  11  12
ATOM     12  C   UNL     1       6.982   5.001  17.136  0.00  0.00    +0.000 A 
ATOM     13  C   UNL     1       7.515   4.926  18.427  0.00  0.00    +0.000 A 
ATOM     14  C   UNL     1       8.066   6.060  19.031  0.00  0.00    +0.000 A 
ATOM     15  C   UNL     1       8.079   7.265  18.343  0.00  0.00    +0.000 A 
ATOM     16  F   UNL     1       8.613   8.348  18.923  0.00  0.00    +0.000 F 
ATOM     17  C   UNL     1       7.547   7.362  17.064  0.00  0.00    +0.000 A 
ATOM     18  C   UNL     1       6.994   6.227  16.461  0.00  0.00    +0.000 A 
ENDBRANCH  11  12
ENDBRANCH  10  11
ENDBRANCH   8  10
ENDBRANCH   2   5
BRANCH   3  19
ATOM     19  N   UNL     1       1.557   8.731  19.364  0.00  0.00    +0.000 N 
ATOM     20  C   UNL     1       1.440   9.926  18.673  0.00  0.00    +0.000 C 
ATOM     21  O   UNL     1       1.923  10.054  17.545  0.00  0.00    +0.000 OA
ATOM     22  H   UNL     1       1.181   8.617  20.304  0.00  0.00    +0.000 HD
BRANCH  20  23
ATOM     23  C   UNL     1       0.721  10.997  19.361  0.00  0.00    +0.000 A 
ATOM     24  C   UNL     1      -0.097  10.882  20.485  0.00  0.00    +0.000 A 
ATOM     25  C   UNL     1      -0.652  12.131  20.855  0.00  0.00    +0.000 A 
ATOM     26  C   UNL     1      -0.251  13.130  20.017  0.00  0.00    +0.000 A 
ATOM     27  S   UNL     1       0.797  12.643  18.811  0.00  0.00    +0.000 S 
ATOM     28  C   UNL     1      -0.829  14.459  20.318  0.00  0.00    +0.000 C 
ATOM     29  C   UNL     1      -1.713  14.152  21.567  0.00  0.00    +0.000 C 
ATOM     30  C   UNL     1      -1.572  12.631  21.903  0.00  0.00    +0.000 C 
ENDBRANCH  20  23
ENDBRANCH   3  19
TORSDOF 6
ENDMDL
MODEL 8
REMARK VINA RESULT:      -7.4      0.730      1.446
REMARK  Name = 
REMARK  6 active torsions:
REMARK  status: ('A' for Active; 'I' for Inactive)
REMARK    1  A    between atoms: C_2  and  C_15
REMARK    2  A    between atoms: N_3  and  N_4
REMARK    3  A    between atoms: C_5  and  C_7
REMARK    4  A    between atoms: C_18  and  C_19
REMARK    5  A    between atoms: C_19  and  O_20
REMARK    6  A    between atoms: O_20  and  C_21
REMARK                            x       y       z     vdW  Elec       q    Type
REMARK                         _______ _______ _______ _____ _____    ______ ____
ROOT
ATOM      1  O   UNL     1       2.401   8.577  18.339  0.00  0.00    +0.000 OA
ATOM      2  C   UNL     1       2.359   7.630  19.127  0.00  0.00    +0.000 C 
ATOM      3  N   UNL     1       1.877   7.768  20.414  0.00  0.00    +0.000 N 
ATOM      4  H   UNL     1       1.864   6.992  21.076  0.00  0.00    +0.000 HD
ENDROOT
BRANCH   2   5
ATOM      5  C   UNL     1       2.822   6.284  18.773  0.00  0.00    +0.000 A 
ATOM      6  C   UNL     1       2.582   5.179  19.571  0.00  0.00    +0.000 A 
ATOM      7  S   UNL     1       3.270   3.776  18.885  0.00  0.00    +0.000 S 
ATOM      8  C   UNL     1       3.852   4.717  17.564  0.00  0.00    +0.000 A 
ATOM      9  N   UNL     1       3.540   6.006  17.604  0.00  0.00    +0.000 NA
BRANCH   8  10
ATOM     10  C   UNL     1       4.591   4.030  16.450  0.00  0.00    +0.000 C 
BRANCH  10  11
ATOM     11  O   UNL     1       5.916   3.742  16.905  0.00  0.00    +0.000 OA
BRANCH  11  12
ATOM     12  C   UNL     1       6.603   4.796  17.453  0.00  0.00    +0.000 A 
ATOM     13  C   UNL     1       7.062   4.866  18.773  0.00  0.00    +0.000 A 
ATOM     14  C   UNL     1       7.764   5.991  19.217  0.00  0.00    +0.000 A 
ATOM     15  C   UNL     1       8.001   7.042  18.342  0.00  0.00    +0.000 A 
ATOM     16  F   UNL     1       8.679   8.115  18.771  0.00  0.00    +0.000 F 
ATOM     17  C   UNL     1       7.545   6.995  17.031  0.00  0.00    +0.000 A 
ATOM     18  C   UNL     1       6.841   5.870  16.587  0.00  0.00    +0.000 A 
ENDBRANCH  11  12
ENDBRANCH  10  11
ENDBRANCH   8  10
ENDBRANCH   2   5
BRANCH   3  19
ATOM     19  N   UNL     1       1.433   9.033  20.832  0.00  0.00    +0.000 N 
ATOM     20  C   UNL     1       0.181   9.200  21.401  0.00  0.00    +0.000 C 
ATOM     21  O   UNL     1      -0.567   8.235  21.578  0.00  0.00    +0.000 OA
ATOM     22  H   UNL     1       2.053   9.823  20.661  0.00  0.00    +0.000 HD
BRANCH  20  23
ATOM     23  C   UNL     1      -0.181  10.568  21.768  0.00  0.00    +0.000 A 
ATOM     24  C   UNL     1       0.239  11.749  21.154  0.00  0.00    +0.000 A 
ATOM     25  C   UNL     1      -0.293  12.889  21.802  0.00  0.00    +0.000 A 
ATOM     26  C   UNL     1      -1.077  12.548  22.864  0.00  0.00    +0.000 A 
ATOM     27  S   UNL     1      -1.234  10.902  23.107  0.00  0.00    +0.000 S 
ATOM     28  C   UNL     1      -1.632  13.695  23.617  0.00  0.00    +0.000 C 
ATOM     29  C   UNL     1      -1.062  14.911  22.823  0.00  0.00    +0.000 C 
ATOM     30  C   UNL     1      -0.201  14.359  21.639  0.00  0.00    +0.000 C 
ENDBRANCH  20  23
ENDBRANCH   3  19
TORSDOF 6
ENDMDL
MODEL 9
REMARK VINA RESULT:      -7.3      3.925      4.734
REMARK  Name = 
REMARK  6 active torsions:
REMARK  status: ('A' for Active; 'I' for Inactive)
REMARK    1  A    between atoms: C_2  and  C_15
REMARK    2  A    between atoms: N_3  and  N_4
REMARK    3  A    between atoms: C_5  and  C_7
REMARK    4  A    between atoms: C_18  and  C_19
REMARK    5  A    between atoms: C_19  and  O_20
REMARK    6  A    between atoms: O_20  and  C_21
REMARK                            x       y       z     vdW  Elec       q    Type
REMARK                         _______ _______ _______ _____ _____    ______ ____
ROOT
ATOM      1  O   UNL     1       1.810   6.051  17.907  0.00  0.00    +0.000 OA
ATOM      2  C   UNL     1       2.828   6.742  17.965  0.00  0.00    +0.000 C 
ATOM      3  N   UNL     1       2.786   8.120  17.882  0.00  0.00    +0.000 N 
ATOM      4  H   UNL     1       3.630   8.692  17.905  0.00  0.00    +0.000 HD
ENDROOT
BRANCH   2   5
ATOM      5  C   UNL     1       4.168   6.165  18.118  0.00  0.00    +0.000 A 
ATOM      6  C   UNL     1       4.681   5.785  19.346  0.00  0.00    +0.000 A 
ATOM      7  S   UNL     1       6.266   5.174  19.179  0.00  0.00    +0.000 S 
ATOM      8  C   UNL     1       6.183   5.450  17.480  0.00  0.00    +0.000 A 
ATOM      9  N   UNL     1       5.036   5.950  17.041  0.00  0.00    +0.000 NA
BRANCH   8  10
ATOM     10  C   UNL     1       7.351   5.054  16.620  0.00  0.00    +0.000 C 
BRANCH  10  11
ATOM     11  O   UNL     1       7.248   5.756  15.378  0.00  0.00    +0.000 OA
BRANCH  11  12
ATOM     12  C   UNL     1       6.925   4.993  14.284  0.00  0.00    +0.000 A 
ATOM     13  C   UNL     1       7.662   4.925  13.096  0.00  0.00    +0.000 A 
ATOM     14  C   UNL     1       7.240   4.099  12.051  0.00  0.00    +0.000 A 
ATOM     15  C   UNL     1       6.082   3.348  12.194  0.00  0.00    +0.000 A 
ATOM     16  F   UNL     1       5.684   2.553  11.191  0.00  0.00    +0.000 F 
ATOM     17  C   UNL     1       5.332   3.409  13.362  0.00  0.00    +0.000 A 
ATOM     18  C   UNL     1       5.754   4.236  14.408  0.00  0.00    +0.000 A 
ENDBRANCH  11  12
ENDBRANCH  10  11
ENDBRANCH   8  10
ENDBRANCH   2   5
BRANCH   3  19
ATOM     19  N   UNL     1       1.539   8.744  17.715  0.00  0.00    +0.000 N 
ATOM     20  C   UNL     1       0.910   9.380  18.772  0.00  0.00    +0.000 C 
ATOM     21  O   UNL     1       1.443   9.438  19.883  0.00  0.00    +0.000 OA
ATOM     22  H   UNL     1       1.102   8.671  16.797  0.00  0.00    +0.000 HD
BRANCH  20  23
ATOM     23  C   UNL     1      -0.398   9.966  18.483  0.00  0.00    +0.000 A 
ATOM     24  C   UNL     1      -1.192   9.750  17.355  0.00  0.00    +0.000 A 
ATOM     25  C   UNL     1      -2.384  10.512  17.406  0.00  0.00    +0.000 A 
ATOM     26  C   UNL     1      -2.455  11.267  18.539  0.00  0.00    +0.000 A 
ATOM     27  S   UNL     1      -1.157  11.081  19.576  0.00  0.00    +0.000 S 
ATOM     28  C   UNL     1      -3.657  12.125  18.638  0.00  0.00    +0.000 C 
ATOM     29  C   UNL     1      -4.410  11.779  17.316  0.00  0.00    +0.000 C 
ATOM     30  C   UNL     1      -3.566  10.718  16.536  0.00  0.00    +0.000 C 
ENDBRANCH  20  23
ENDBRANCH   3  19
TORSDOF 6
ENDMDL
