MODEL 1
REMARK VINA RESULT:      -8.2      0.000      0.000
REMARK  Name = 
REMARK  4 active torsions:
REMARK  status: ('A' for Active; 'I' for Inactive)
REMARK    1  A    between atoms: C_1  and  C_2
REMARK    2  A    between atoms: C_6  and  C_7
REMARK    3  A    between atoms: N_16  and  C_17
REMARK    4  A    between atoms: C_17  and  C_18
REMARK                            x       y       z     vdW  Elec       q    Type
REMARK                         _______ _______ _______ _____ _____    ______ ____
ROOT
ATOM      1  C   UNL     1       4.377   3.587  17.372  0.00  0.00    +0.000 C 
ATOM      2  O   UNL     1       4.047   2.405  17.400  0.00  0.00    +0.000 OA
ATOM      3  N   UNL     1       3.437   4.601  17.562  0.00  0.00    +0.000 N 
ATOM      4  C   UNL     1       2.027   4.312  17.732  0.00  0.00    +0.000 C 
ATOM      5  C   UNL     1       1.368   5.645  18.073  0.00  0.00    +0.000 C 
ATOM      6  C   UNL     1       2.508   6.548  18.588  0.00  0.00    +0.000 C 
ATOM      7  C   UNL     1       2.659   6.473  20.118  0.00  0.00    +0.000 C 
ATOM      8  C   UNL     1       1.512   7.196  20.815  0.00  0.00    +0.000 C 
ATOM      9  C   UNL     1       1.355   8.630  20.303  0.00  0.00    +0.000 C 
ATOM     10  N   UNL     1       1.220   8.712  18.836  0.00  0.00    +0.000 NA
ATOM     11  C   UNL     1       2.337   8.022  18.167  0.00  0.00    +0.000 C 
ATOM     12  C   UNL     1       3.755   5.971  17.907  0.00  0.00    +0.000 C 
ENDROOT
BRANCH   1  18
ATOM     13  C   UNL     1       6.155   4.155  14.621  0.00  0.00    +0.000 C 
ATOM     14  C   UNL     1       6.512   4.263  16.051  0.00  0.00    +0.000 A 
ATOM     15  N   UNL     1       7.792   4.623  16.421  0.00  0.00    +0.000 NA
ATOM     16  C   UNL     1       7.752   4.613  17.733  0.00  0.00    +0.000 A 
ATOM     17  O   UNL     1       6.557   4.253  18.265  0.00  0.00    +0.000 OA
ATOM     18  C   UNL     1       5.753   4.010  17.178  0.00  0.00    +0.000 A 
ENDBRANCH   1  18
BRANCH  10  19
ATOM     19  C   UNL     1       1.214  10.128  18.379  0.00  0.00    +0.000 C 
BRANCH  19  20
ATOM     20  C   UNL     1      -0.036  10.895  18.734  0.00  0.00    +0.000 A 
ATOM     21  C   UNL     1      -0.015  11.917  19.693  0.00  0.00    +0.000 A 
ATOM     22  C   UNL     1      -1.164  12.670  19.949  0.00  0.00    +0.000 A 
ATOM     23  C   UNL     1      -2.344  12.412  19.248  0.00  0.00    +0.000 A 
ATOM     24  C   UNL     1      -2.387  11.372  18.323  0.00  0.00    +0.000 A 
ATOM     25  C   UNL     1      -1.244  10.615  18.085  0.00  0.00    +0.000 A 
ATOM     26  F   UNL     1      -1.315   9.607  17.204  0.00  0.00    +0.000 F 
ENDBRANCH  19  20
ENDBRANCH  10  19
TORSDOF 3
ENDMDL
MODEL 2
REMARK VINA RESULT:      -8.1      0.903      1.304
REMARK  Name = 
REMARK  4 active torsions:
REMARK  status: ('A' for Active; 'I' for Inactive)
REMARK    1  A    between atoms: C_1  and  C_2
REMARK    2  A    between atoms: C_6  and  C_7
REMARK    3  A    between atoms: N_16  and  C_17
REMARK    4  A    between atoms: C_17  and  C_18
REMARK                            x       y       z     vdW  Elec       q    Type
REMARK                         _______ _______ _______ _____ _____    ______ ____
ROOT
ATOM      1  C   UNL     1       4.393   3.549  17.358  0.00  0.00    +0.000 C 
ATOM      2  O   UNL     1       4.073   2.365  17.395  0.00  0.00    +0.000 OA
ATOM      3  N   UNL     1       3.446   4.557  17.548  0.00  0.00    +0.000 N 
ATOM      4  C   UNL     1       2.040   4.258  17.728  0.00  0.00    +0.000 C 
ATOM      5  C   UNL     1       1.372   5.586  18.065  0.00  0.00    +0.000 C 
ATOM      6  C   UNL     1       2.508   6.502  18.568  0.00  0.00    +0.000 C 
ATOM      7  C   UNL     1       2.669   6.438  20.097  0.00  0.00    +0.000 C 
ATOM      8  C   UNL     1       1.520   7.156  20.796  0.00  0.00    +0.000 C 
ATOM      9  C   UNL     1       1.349   8.585  20.277  0.00  0.00    +0.000 C 
ATOM     10  N   UNL     1       1.204   8.657  18.810  0.00  0.00    +0.000 NA
ATOM     11  C   UNL     1       2.322   7.972  18.139  0.00  0.00    +0.000 C 
ATOM     12  C   UNL     1       3.755   5.931  17.882  0.00  0.00    +0.000 C 
ENDROOT
BRANCH   1  18
ATOM     13  C   UNL     1       6.151   4.110  14.593  0.00  0.00    +0.000 C 
ATOM     14  C   UNL     1       6.515   4.232  16.019  0.00  0.00    +0.000 A 
ATOM     15  N   UNL     1       7.794   4.606  16.380  0.00  0.00    +0.000 NA
ATOM     16  C   UNL     1       7.761   4.607  17.691  0.00  0.00    +0.000 A 
ATOM     17  O   UNL     1       6.572   4.241  18.234  0.00  0.00    +0.000 OA
ATOM     18  C   UNL     1       5.765   3.982  17.153  0.00  0.00    +0.000 A 
ENDBRANCH   1  18
BRANCH  10  19
ATOM     19  C   UNL     1       1.183  10.071  18.345  0.00  0.00    +0.000 C 
BRANCH  19  20
ATOM     20  C   UNL     1      -0.138  10.774  18.538  0.00  0.00    +0.000 A 
ATOM     21  C   UNL     1      -1.302  10.321  17.902  0.00  0.00    +0.000 A 
ATOM     22  C   UNL     1      -2.531  10.936  18.156  0.00  0.00    +0.000 A 
ATOM     23  C   UNL     1      -2.610  12.006  19.049  0.00  0.00    +0.000 A 
ATOM     24  C   UNL     1      -1.453  12.490  19.654  0.00  0.00    +0.000 A 
ATOM     25  C   UNL     1      -0.230  11.884  19.384  0.00  0.00    +0.000 A 
ATOM     26  F   UNL     1       0.873  12.380  19.963  0.00  0.00    +0.000 F 
ENDBRANCH  19  20
ENDBRANCH  10  19
TORSDOF 3
ENDMDL
MODEL 3
REMARK VINA RESULT:      -7.8      5.142      6.796
REMARK  Name = 
REMARK  4 active torsions:
REMARK  status: ('A' for Active; 'I' for Inactive)
REMARK    1  A    between atoms: C_1  and  C_2
REMARK    2  A    between atoms: C_6  and  C_7
REMARK    3  A    between atoms: N_16  and  C_17
REMARK    4  A    between atoms: C_17  and  C_18
REMARK                            x       y       z     vdW  Elec       q    Type
REMARK                         _______ _______ _______ _____ _____    ______ ____
ROOT
ATOM      1  C   UNL     1       6.866   4.329  12.818  0.00  0.00    +0.000 C 
ATOM      2  O   UNL     1       7.712   4.993  12.227  0.00  0.00    +0.000 OA
ATOM      3  N   UNL     1       6.783   4.345  14.212  0.00  0.00    +0.000 N 
ATOM      4  C   UNL     1       7.726   5.086  15.023  0.00  0.00    +0.000 C 
ATOM      5  C   UNL     1       7.208   4.990  16.455  0.00  0.00    +0.000 C 
ATOM      6  C   UNL     1       5.713   4.630  16.328  0.00  0.00    +0.000 C 
ATOM      7  C   UNL     1       4.816   5.880  16.313  0.00  0.00    +0.000 C 
ATOM      8  C   UNL     1       4.743   6.516  17.696  0.00  0.00    +0.000 C 
ATOM      9  C   UNL     1       4.327   5.500  18.763  0.00  0.00    +0.000 C 
ATOM     10  N   UNL     1       5.177   4.293  18.778  0.00  0.00    +0.000 NA
ATOM     11  C   UNL     1       5.234   3.676  17.442  0.00  0.00    +0.000 C 
ATOM     12  C   UNL     1       5.634   3.908  14.978  0.00  0.00    +0.000 C 
ENDROOT
BRANCH   1  18
ATOM     13  C   UNL     1       7.106   1.398  11.268  0.00  0.00    +0.000 C 
ATOM     14  C   UNL     1       5.952   2.295  11.480  0.00  0.00    +0.000 A 
ATOM     15  N   UNL     1       4.716   1.972  10.956  0.00  0.00    +0.000 NA
ATOM     16  C   UNL     1       3.950   2.971  11.326  0.00  0.00    +0.000 A 
ATOM     17  O   UNL     1       4.579   3.943  12.033  0.00  0.00    +0.000 OA
ATOM     18  C   UNL     1       5.882   3.517  12.122  0.00  0.00    +0.000 A 
ENDBRANCH   1  18
BRANCH  10  19
ATOM     19  C   UNL     1       4.647   3.280  19.731  0.00  0.00    +0.000 C 
BRANCH  19  20
ATOM     20  C   UNL     1       3.143   3.161  19.747  0.00  0.00    +0.000 A 
ATOM     21  C   UNL     1       2.357   3.985  20.563  0.00  0.00    +0.000 A 
ATOM     22  C   UNL     1       0.962   3.916  20.503  0.00  0.00    +0.000 A 
ATOM     23  C   UNL     1       0.340   3.025  19.627  0.00  0.00    +0.000 A 
ATOM     24  C   UNL     1       1.112   2.173  18.841  0.00  0.00    +0.000 A 
ATOM     25  C   UNL     1       2.500   2.235  18.917  0.00  0.00    +0.000 A 
ATOM     26  F   UNL     1       3.222   1.391  18.166  0.00  0.00    +0.000 F 
ENDBRANCH  19  20
ENDBRANCH  10  19
TORSDOF 3
ENDMDL
MODEL 4
REMARK VINA RESULT:      -7.6      4.985      6.750
REMARK  Name = 
REMARK  4 active torsions:
REMARK  status: ('A' for Active; 'I' for Inactive)
REMARK    1  A    between atoms: C_1  and  C_2
REMARK    2  A    between atoms: C_6  and  C_7
REMARK    3  A    between atoms: N_16  and  C_17
REMARK    4  A    between atoms: C_17  and  C_18
REMARK                            x       y       z     vdW  Elec       q    Type
REMARK                         _______ _______ _______ _____ _____    ______ ____
ROOT
ATOM      1  C   UNL     1       6.877   4.320  12.800  0.00  0.00    +0.000 C 
ATOM      2  O   UNL     1       7.741   4.948  12.195  0.00  0.00    +0.000 OA
ATOM      3  N   UNL     1       6.785   4.384  14.192  0.00  0.00    +0.000 N 
ATOM      4  C   UNL     1       7.737   5.133  14.986  0.00  0.00    +0.000 C 
ATOM      5  C   UNL     1       7.208   5.094  16.416  0.00  0.00    +0.000 C 
ATOM      6  C   UNL     1       5.706   4.759  16.290  0.00  0.00    +0.000 C 
ATOM      7  C   UNL     1       4.835   6.027  16.226  0.00  0.00    +0.000 C 
ATOM      8  C   UNL     1       4.765   6.709  17.588  0.00  0.00    +0.000 C 
ATOM      9  C   UNL     1       4.322   5.737  18.684  0.00  0.00    +0.000 C 
ATOM     10  N   UNL     1       5.146   4.514  18.745  0.00  0.00    +0.000 NA
ATOM     11  C   UNL     1       5.200   3.853  17.430  0.00  0.00    +0.000 C 
ATOM     12  C   UNL     1       5.622   3.995  14.963  0.00  0.00    +0.000 C 
ENDROOT
BRANCH   1  18
ATOM     13  C   UNL     1       7.094   1.387  11.251  0.00  0.00    +0.000 C 
ATOM     14  C   UNL     1       5.943   2.283  11.482  0.00  0.00    +0.000 A 
ATOM     15  N   UNL     1       4.698   1.957  10.981  0.00  0.00    +0.000 NA
ATOM     16  C   UNL     1       3.937   2.955  11.364  0.00  0.00    +0.000 A 
ATOM     17  O   UNL     1       4.578   3.930  12.057  0.00  0.00    +0.000 OA
ATOM     18  C   UNL     1       5.883   3.506  12.123  0.00  0.00    +0.000 A 
ENDBRANCH   1  18
BRANCH  10  19
ATOM     19  C   UNL     1       4.589   3.545  19.727  0.00  0.00    +0.000 C 
BRANCH  19  20
ATOM     20  C   UNL     1       3.108   3.295  19.589  0.00  0.00    +0.000 A 
ATOM     21  C   UNL     1       2.606   2.428  18.609  0.00  0.00    +0.000 A 
ATOM     22  C   UNL     1       1.238   2.146  18.549  0.00  0.00    +0.000 A 
ATOM     23  C   UNL     1       0.360   2.724  19.468  0.00  0.00    +0.000 A 
ATOM     24  C   UNL     1       0.844   3.618  20.421  0.00  0.00    +0.000 A 
ATOM     25  C   UNL     1       2.204   3.907  20.464  0.00  0.00    +0.000 A 
ATOM     26  F   UNL     1       2.644   4.786  21.377  0.00  0.00    +0.000 F 
ENDBRANCH  19  20
ENDBRANCH  10  19
TORSDOF 3
ENDMDL
MODEL 5
REMARK VINA RESULT:      -7.5      1.191      1.823
REMARK  Name = 
REMARK  4 active torsions:
REMARK  status: ('A' for Active; 'I' for Inactive)
REMARK    1  A    between atoms: C_1  and  C_2
REMARK    2  A    between atoms: C_6  and  C_7
REMARK    3  A    between atoms: N_16  and  C_17
REMARK    4  A    between atoms: C_17  and  C_18
REMARK                            x       y       z     vdW  Elec       q    Type
REMARK                         _______ _______ _______ _____ _____    ______ ____
ROOT
ATOM      1  C   UNL     1       4.322   3.686  17.066  0.00  0.00    +0.000 C 
ATOM      2  O   UNL     1       4.100   2.489  17.220  0.00  0.00    +0.000 OA
ATOM      3  N   UNL     1       3.350   4.642  17.363  0.00  0.00    +0.000 N 
ATOM      4  C   UNL     1       2.020   4.268  17.799  0.00  0.00    +0.000 C 
ATOM      5  C   UNL     1       1.323   5.571  18.175  0.00  0.00    +0.000 C 
ATOM      6  C   UNL     1       2.458   6.587  18.425  0.00  0.00    +0.000 C 
ATOM      7  C   UNL     1       2.879   6.632  19.905  0.00  0.00    +0.000 C 
ATOM      8  C   UNL     1       1.815   7.320  20.753  0.00  0.00    +0.000 C 
ATOM      9  C   UNL     1       1.455   8.699  20.196  0.00  0.00    +0.000 C 
ATOM     10  N   UNL     1       1.060   8.667  18.774  0.00  0.00    +0.000 NA
ATOM     11  C   UNL     1       2.096   8.012  17.957  0.00  0.00    +0.000 C 
ATOM     12  C   UNL     1       3.610   6.052  17.565  0.00  0.00    +0.000 C 
ENDROOT
BRANCH   1  18
ATOM     13  C   UNL     1       6.920   4.966  18.698  0.00  0.00    +0.000 C 
ATOM     14  C   UNL     1       6.702   4.716  17.258  0.00  0.00    +0.000 A 
ATOM     15  N   UNL     1       7.669   5.069  16.338  0.00  0.00    +0.000 NA
ATOM     16  C   UNL     1       7.148   4.714  15.187  0.00  0.00    +0.000 A 
ATOM     17  O   UNL     1       5.905   4.177  15.263  0.00  0.00    +0.000 OA
ATOM     18  C   UNL     1       5.604   4.190  16.604  0.00  0.00    +0.000 A 
ENDBRANCH   1  18
BRANCH  10  19
ATOM     19  C   UNL     1       0.858  10.043  18.246  0.00  0.00    +0.000 C 
BRANCH  19  20
ATOM     20  C   UNL     1      -0.584  10.481  18.173  0.00  0.00    +0.000 A 
ATOM     21  C   UNL     1      -1.500   9.827  17.338  0.00  0.00    +0.000 A 
ATOM     22  C   UNL     1      -2.849  10.194  17.344  0.00  0.00    +0.000 A 
ATOM     23  C   UNL     1      -3.296  11.215  18.185  0.00  0.00    +0.000 A 
ATOM     24  C   UNL     1      -2.386  11.899  18.988  0.00  0.00    +0.000 A 
ATOM     25  C   UNL     1      -1.042  11.539  18.965  0.00  0.00    +0.000 A 
ATOM     26  F   UNL     1      -0.181  12.225  19.732  0.00  0.00    +0.000 F 
ENDBRANCH  19  20
ENDBRANCH  10  19
TORSDOF 3
ENDMDL
MODEL 6
REMARK VINA RESULT:      -7.4      0.842      1.255
REMARK  Name = 
REMARK  4 active torsions:
REMARK  status: ('A' for Active; 'I' for Inactive)
REMARK    1  A    between atoms: C_1  and  C_2
REMARK    2  A    between atoms: C_6  and  C_7
REMARK    3  A    between atoms: N_16  and  C_17
REMARK    4  A    between atoms: C_17  and  C_18
REMARK                            x       y       z     vdW  Elec       q    Type
REMARK                         _______ _______ _______ _____ _____    ______ ____
ROOT
ATOM      1  C   UNL     1       4.332   3.679  17.100  0.00  0.00    +0.000 C 
ATOM      2  O   UNL     1       4.106   2.484  17.258  0.00  0.00    +0.000 OA
ATOM      3  N   UNL     1       3.360   4.640  17.388  0.00  0.00    +0.000 N 
ATOM      4  C   UNL     1       2.027   4.271  17.818  0.00  0.00    +0.000 C 
ATOM      5  C   UNL     1       1.332   5.577  18.185  0.00  0.00    +0.000 C 
ATOM      6  C   UNL     1       2.468   6.591  18.436  0.00  0.00    +0.000 C 
ATOM      7  C   UNL     1       2.881   6.642  19.918  0.00  0.00    +0.000 C 
ATOM      8  C   UNL     1       1.815   7.336  20.758  0.00  0.00    +0.000 C 
ATOM      9  C   UNL     1       1.461   8.714  20.192  0.00  0.00    +0.000 C 
ATOM     10  N   UNL     1       1.073   8.676  18.769  0.00  0.00    +0.000 NA
ATOM     11  C   UNL     1       2.112   8.015  17.961  0.00  0.00    +0.000 C 
ATOM     12  C   UNL     1       3.623   6.050  17.585  0.00  0.00    +0.000 C 
ENDROOT
BRANCH   1  18
ATOM     13  C   UNL     1       6.899   5.020  18.732  0.00  0.00    +0.000 C 
ATOM     14  C   UNL     1       6.703   4.729  17.298  0.00  0.00    +0.000 A 
ATOM     15  N   UNL     1       7.681   5.061  16.382  0.00  0.00    +0.000 NA
ATOM     16  C   UNL     1       7.179   4.672  15.234  0.00  0.00    +0.000 A 
ATOM     17  O   UNL     1       5.937   4.130  15.307  0.00  0.00    +0.000 OA
ATOM     18  C   UNL     1       5.618   4.178  16.642  0.00  0.00    +0.000 A 
ENDBRANCH   1  18
BRANCH  10  19
ATOM     19  C   UNL     1       0.877  10.051  18.234  0.00  0.00    +0.000 C 
BRANCH  19  20
ATOM     20  C   UNL     1      -0.481  10.644  18.512  0.00  0.00    +0.000 A 
ATOM     21  C   UNL     1      -0.667  11.589  19.530  0.00  0.00    +0.000 A 
ATOM     22  C   UNL     1      -1.916  12.187  19.719  0.00  0.00    +0.000 A 
ATOM     23  C   UNL     1      -2.989  11.850  18.893  0.00  0.00    +0.000 A 
ATOM     24  C   UNL     1      -2.826  10.882  17.904  0.00  0.00    +0.000 A 
ATOM     25  C   UNL     1      -1.584  10.278  17.732  0.00  0.00    +0.000 A 
ATOM     26  F   UNL     1      -1.456   9.336  16.787  0.00  0.00    +0.000 F 
ENDBRANCH  19  20
ENDBRANCH  10  19
TORSDOF 3
ENDMDL
MODEL 7
REMARK VINA RESULT:      -7.3      5.125      9.941
REMARK  Name = 
REMARK  4 active torsions:
REMARK  status: ('A' for Active; 'I' for Inactive)
REMARK    1  A    between atoms: C_1  and  C_2
REMARK    2  A    between atoms: C_6  and  C_7
REMARK    3  A    between atoms: N_16  and  C_17
REMARK    4  A    between atoms: C_17  and  C_18
REMARK                            x       y       z     vdW  Elec       q    Type
REMARK                         _______ _______ _______ _____ _____    ______ ____
ROOT
ATOM      1  C   UNL     1      -5.350  11.786  17.919  0.00  0.00    +0.000 C 
ATOM      2  O   UNL     1      -5.881  12.204  16.894  0.00  0.00    +0.000 OA
ATOM      3  N   UNL     1      -4.038  11.307  17.905  0.00  0.00    +0.000 N 
ATOM      4  C   UNL     1      -3.272  11.218  16.679  0.00  0.00    +0.000 C 
ATOM      5  C   UNL     1      -1.862  10.813  17.098  0.00  0.00    +0.000 C 
ATOM      6  C   UNL     1      -1.754  11.189  18.592  0.00  0.00    +0.000 C 
ATOM      7  C   UNL     1      -1.179  12.602  18.793  0.00  0.00    +0.000 C 
ATOM      8  C   UNL     1       0.312  12.634  18.478  0.00  0.00    +0.000 C 
ATOM      9  C   UNL     1       1.077  11.565  19.262  0.00  0.00    +0.000 C 
ATOM     10  N   UNL     1       0.526  10.208  19.083  0.00  0.00    +0.000 NA
ATOM     11  C   UNL     1      -0.912  10.180  19.400  0.00  0.00    +0.000 C 
ATOM     12  C   UNL     1      -3.207  11.136  19.078  0.00  0.00    +0.000 C 
ENDROOT
BRANCH   1  18
ATOM     13  C   UNL     1      -7.025   9.425  19.553  0.00  0.00    +0.000 C 
ATOM     14  C   UNL     1      -6.715  10.824  19.912  0.00  0.00    +0.000 A 
ATOM     15  N   UNL     1      -7.183  11.357  21.097  0.00  0.00    +0.000 NA
ATOM     16  C   UNL     1      -6.732  12.589  21.084  0.00  0.00    +0.000 A 
ATOM     17  O   UNL     1      -6.023  12.927  19.977  0.00  0.00    +0.000 OA
ATOM     18  C   UNL     1      -6.022  11.790  19.207  0.00  0.00    +0.000 A 
ENDBRANCH   1  18
BRANCH  10  19
ATOM     19  C   UNL     1       1.214   9.232  19.973  0.00  0.00    +0.000 C 
BRANCH  19  20
ATOM     20  C   UNL     1       1.997   8.167  19.247  0.00  0.00    +0.000 A 
ATOM     21  C   UNL     1       2.586   8.420  18.001  0.00  0.00    +0.000 A 
ATOM     22  C   UNL     1       3.376   7.447  17.382  0.00  0.00    +0.000 A 
ATOM     23  C   UNL     1       3.587   6.214  18.003  0.00  0.00    +0.000 A 
ATOM     24  C   UNL     1       2.973   5.938  19.222  0.00  0.00    +0.000 A 
ATOM     25  C   UNL     1       2.174   6.905  19.825  0.00  0.00    +0.000 A 
ATOM     26  F   UNL     1       1.577   6.609  20.988  0.00  0.00    +0.000 F 
ENDBRANCH  19  20
ENDBRANCH  10  19
TORSDOF 3
ENDMDL
MODEL 8
REMARK VINA RESULT:      -7.0      3.261      7.594
REMARK  Name = 
REMARK  4 active torsions:
REMARK  status: ('A' for Active; 'I' for Inactive)
REMARK    1  A    between atoms: C_1  and  C_2
REMARK    2  A    between atoms: C_6  and  C_7
REMARK    3  A    between atoms: N_16  and  C_17
REMARK    4  A    between atoms: C_17  and  C_18
REMARK                            x       y       z     vdW  Elec       q    Type
REMARK                         _______ _______ _______ _____ _____    ______ ____
ROOT
ATOM      1  C   UNL     1       0.674   8.566  20.811  0.00  0.00    +0.000 C 
ATOM      2  O   UNL     1      -0.161   8.424  21.700  0.00  0.00    +0.000 OA
ATOM      3  N   UNL     1       1.520   7.517  20.446  0.00  0.00    +0.000 N 
ATOM      4  C   UNL     1       1.501   6.245  21.137  0.00  0.00    +0.000 C 
ATOM      5  C   UNL     1       2.432   5.329  20.350  0.00  0.00    +0.000 C 
ATOM      6  C   UNL     1       2.545   5.964  18.948  0.00  0.00    +0.000 C 
ATOM      7  C   UNL     1       1.502   5.394  17.969  0.00  0.00    +0.000 C 
ATOM      8  C   UNL     1       1.859   3.969  17.563  0.00  0.00    +0.000 C 
ATOM      9  C   UNL     1       3.289   3.876  17.027  0.00  0.00    +0.000 C 
ATOM     10  N   UNL     1       4.295   4.429  17.955  0.00  0.00    +0.000 NA
ATOM     11  C   UNL     1       3.952   5.811  18.336  0.00  0.00    +0.000 C 
ATOM     12  C   UNL     1       2.267   7.450  19.207  0.00  0.00    +0.000 C 
ENDROOT
BRANCH   1  18
ATOM     13  C   UNL     1      -0.478   9.505  17.838  0.00  0.00    +0.000 C 
ATOM     14  C   UNL     1       0.342  10.222  18.835  0.00  0.00    +0.000 A 
ATOM     15  N   UNL     1       0.792  11.501  18.573  0.00  0.00    +0.000 NA
ATOM     16  C   UNL     1       1.475  11.818  19.647  0.00  0.00    +0.000 A 
ATOM     17  O   UNL     1       1.538  10.846  20.592  0.00  0.00    +0.000 OA
ATOM     18  C   UNL     1       0.817   9.803  20.063  0.00  0.00    +0.000 A 
ENDBRANCH   1  18
BRANCH  10  19
ATOM     19  C   UNL     1       5.645   4.444  17.331  0.00  0.00    +0.000 C 
BRANCH  19  20
ATOM     20  C   UNL     1       6.519   5.599  17.754  0.00  0.00    +0.000 A 
ATOM     21  C   UNL     1       7.357   5.504  18.873  0.00  0.00    +0.000 A 
ATOM     22  C   UNL     1       8.219   6.554  19.202  0.00  0.00    +0.000 A 
ATOM     23  C   UNL     1       8.253   7.707  18.416  0.00  0.00    +0.000 A 
ATOM     24  C   UNL     1       7.394   7.829  17.326  0.00  0.00    +0.000 A 
ATOM     25  C   UNL     1       6.527   6.786  17.014  0.00  0.00    +0.000 A 
ATOM     26  F   UNL     1       5.696   6.934  15.972  0.00  0.00    +0.000 F 
ENDBRANCH  19  20
ENDBRANCH  10  19
TORSDOF 3
ENDMDL
MODEL 9
REMARK VINA RESULT:      -6.9      4.563      8.952
REMARK  Name = 
REMARK  4 active torsions:
REMARK  status: ('A' for Active; 'I' for Inactive)
REMARK    1  A    between atoms: C_1  and  C_2
REMARK    2  A    between atoms: C_6  and  C_7
REMARK    3  A    between atoms: N_16  and  C_17
REMARK    4  A    between atoms: C_17  and  C_18
REMARK                            x       y       z     vdW  Elec       q    Type
REMARK                         _______ _______ _______ _____ _____    ______ ____
ROOT
ATOM      1  C   UNL     1      -0.312  13.252  19.820  0.00  0.00    +0.000 C 
ATOM      2  O   UNL     1      -1.121  13.849  19.115  0.00  0.00    +0.000 OA
ATOM      3  N   UNL     1      -0.181  11.864  19.746  0.00  0.00    +0.000 N 
ATOM      4  C   UNL     1      -1.031  11.061  18.892  0.00  0.00    +0.000 C 
ATOM      5  C   UNL     1      -0.474   9.643  18.965  0.00  0.00    +0.000 C 
ATOM      6  C   UNL     1       0.981   9.798  19.455  0.00  0.00    +0.000 C 
ATOM      7  C   UNL     1       1.977   9.901  18.286  0.00  0.00    +0.000 C 
ATOM      8  C   UNL     1       2.149   8.553  17.595  0.00  0.00    +0.000 C 
ATOM      9  C   UNL     1       2.516   7.452  18.593  0.00  0.00    +0.000 C 
ATOM     10  N   UNL     1       1.572   7.352  19.722  0.00  0.00    +0.000 NA
ATOM     11  C   UNL     1       1.418   8.654  20.393  0.00  0.00    +0.000 C 
ATOM     12  C   UNL     1       0.954  11.113  20.242  0.00  0.00    +0.000 C 
ENDROOT
BRANCH   1  18
ATOM     13  C   UNL     1      -0.720  14.249  22.965  0.00  0.00    +0.000 C 
ATOM     14  C   UNL     1       0.437  14.354  22.053  0.00  0.00    +0.000 A 
ATOM     15  N   UNL     1       1.592  14.987  22.466  0.00  0.00    +0.000 NA
ATOM     16  C   UNL     1       2.386  14.899  21.425  0.00  0.00    +0.000 A 
ATOM     17  O   UNL     1       1.846  14.280  20.345  0.00  0.00    +0.000 OA
ATOM     18  C   UNL     1       0.577  13.938  20.742  0.00  0.00    +0.000 A 
ENDBRANCH   1  18
BRANCH  10  19
ATOM     19  C   UNL     1       2.050   6.367  20.730  0.00  0.00    +0.000 C 
BRANCH  19  20
ATOM     20  C   UNL     1       2.054   4.936  20.255  0.00  0.00    +0.000 A 
ATOM     21  C   UNL     1       0.879   4.171  20.241  0.00  0.00    +0.000 A 
ATOM     22  C   UNL     1       0.887   2.874  19.721  0.00  0.00    +0.000 A 
ATOM     23  C   UNL     1       2.065   2.329  19.208  0.00  0.00    +0.000 A 
ATOM     24  C   UNL     1       3.247   3.065  19.254  0.00  0.00    +0.000 A 
ATOM     25  C   UNL     1       3.236   4.350  19.788  0.00  0.00    +0.000 A 
ATOM     26  F   UNL     1       4.389   5.032  19.840  0.00  0.00    +0.000 F 
ENDBRANCH  19  20
ENDBRANCH  10  19
TORSDOF 3
ENDMDL
