MODEL 1
REMARK VINA RESULT:      -6.5      0.000      0.000
REMARK  Name = 
REMARK  6 active torsions:
REMARK  status: ('A' for Active; 'I' for Inactive)
REMARK    1  A    between atoms: C_1  and  O_2
REMARK    2  A    between atoms: O_2  and  C_3
REMARK    3  A    between atoms: C_6  and  C_7
REMARK    4  A    between atoms: C_7  and  C_9
REMARK    5  A    between atoms: N_12  and  C_13
REMARK    6  A    between atoms: C_22  and  O_23
REMARK                            x       y       z     vdW  Elec       q    Type
REMARK                         _______ _______ _______ _____ _____    ______ ____
ROOT
ATOM      1  C   UNL     1       0.189  11.668  20.453  0.00  0.00    +0.000 C 
ATOM      2  C   UNL     1      -0.819  12.825  20.440  0.00  0.00    +0.000 C 
ATOM      3  C   UNL     1      -0.549  13.848  19.335  0.00  0.00    +0.000 C 
ATOM      4  N   UNL     1       0.812  14.388  19.337  0.00  0.00    +0.000 NA
ATOM      5  C   UNL     1       1.796  13.301  19.279  0.00  0.00    +0.000 C 
ATOM      6  C   UNL     1       1.619  12.193  20.328  0.00  0.00    +0.000 C 
ENDROOT
BRANCH   4   7
ATOM      7  C   UNL     1       1.130  15.500  20.274  0.00  0.00    +0.000 C 
ATOM      8  C   UNL     1       0.190  16.740  20.187  0.00  0.00    +0.000 C 
ATOM      9  C   UNL     1       0.300  17.441  18.848  0.00  0.00    +0.000 A 
ATOM     10  C   UNL     1      -0.819  18.089  18.309  0.00  0.00    +0.000 A 
ATOM     11  C   UNL     1      -0.771  18.629  17.025  0.00  0.00    +0.000 A 
ATOM     12  C   UNL     1       0.404  18.556  16.282  0.00  0.00    +0.000 A 
ATOM     13  C   UNL     1       1.542  17.971  16.837  0.00  0.00    +0.000 A 
ATOM     14  C   UNL     1       1.505  17.415  18.126  0.00  0.00    +0.000 A 
ATOM     15  C   UNL     1       2.742  16.730  18.662  0.00  0.00    +0.000 C 
ATOM     16  C   UNL     1       2.572  16.063  20.042  0.00  0.00    +0.000 C 
BRANCH  16  17
ATOM     17  O   UNL     1       2.922  16.988  21.089  0.00  0.00    +0.000 OA
ATOM     18  H   UNL     1       3.877  16.901  21.256  0.00  0.00    +0.000 HD
ENDBRANCH  16  17
ENDBRANCH   4   7
BRANCH   1  19
ATOM     19  C   UNL     1      -0.133  10.607  19.390  0.00  0.00    +0.000 C 
ATOM     20  O   UNL     1      -1.187  10.619  18.755  0.00  0.00    +0.000 OA
BRANCH  19  24
ATOM     21  C   UNL     1       2.641   7.440  18.836  0.00  0.00    +0.000 A 
ATOM     22  C   UNL     1       2.387   8.252  17.744  0.00  0.00    +0.000 A 
ATOM     23  C   UNL     1       1.472   9.301  17.885  0.00  0.00    +0.000 A 
ATOM     24  C   UNL     1       0.837   9.504  19.112  0.00  0.00    +0.000 A 
ATOM     25  C   UNL     1       1.155   8.618  20.140  0.00  0.00    +0.000 A 
ATOM     26  N   UNL     1       2.040   7.594  20.030  0.00  0.00    +0.000 NA
BRANCH  21  28
ATOM     27  C   UNL     1       4.302   6.562  17.438  0.00  0.00    +0.000 C 
ATOM     28  O   UNL     1       3.566   6.427  18.649  0.00  0.00    +0.000 OA
ENDBRANCH  21  28
ENDBRANCH  19  24
ENDBRANCH   1  19
TORSDOF 5
ENDMDL
MODEL 2
REMARK VINA RESULT:      -6.5      0.726      1.039
REMARK  Name = 
REMARK  6 active torsions:
REMARK  status: ('A' for Active; 'I' for Inactive)
REMARK    1  A    between atoms: C_1  and  O_2
REMARK    2  A    between atoms: O_2  and  C_3
REMARK    3  A    between atoms: C_6  and  C_7
REMARK    4  A    between atoms: C_7  and  C_9
REMARK    5  A    between atoms: N_12  and  C_13
REMARK    6  A    between atoms: C_22  and  O_23
REMARK                            x       y       z     vdW  Elec       q    Type
REMARK                         _______ _______ _______ _____ _____    ______ ____
ROOT
ATOM      1  C   UNL     1      -0.119  11.767  20.366  0.00  0.00    +0.000 C 
ATOM      2  C   UNL     1      -0.982  13.007  20.096  0.00  0.00    +0.000 C 
ATOM      3  C   UNL     1      -0.383  13.939  19.041  0.00  0.00    +0.000 C 
ATOM      4  N   UNL     1       0.993  14.355  19.319  0.00  0.00    +0.000 NA
ATOM      5  C   UNL     1       1.854  13.184  19.512  0.00  0.00    +0.000 C 
ATOM      6  C   UNL     1       1.350  12.154  20.536  0.00  0.00    +0.000 C 
ENDROOT
BRANCH   4   7
ATOM      7  C   UNL     1       1.213  15.484  20.264  0.00  0.00    +0.000 C 
ATOM      8  C   UNL     1       0.226  16.682  20.119  0.00  0.00    +0.000 C 
ATOM      9  C   UNL     1       0.376  17.381  18.783  0.00  0.00    +0.000 A 
ATOM     10  C   UNL     1      -0.740  17.978  18.182  0.00  0.00    +0.000 A 
ATOM     11  C   UNL     1      -0.648  18.513  16.898  0.00  0.00    +0.000 A 
ATOM     12  C   UNL     1       0.566  18.487  16.218  0.00  0.00    +0.000 A 
ATOM     13  C   UNL     1       1.698  17.955  16.836  0.00  0.00    +0.000 A 
ATOM     14  C   UNL     1       1.617  17.403  18.124  0.00  0.00    +0.000 A 
ATOM     15  C   UNL     1       2.853  16.775  18.729  0.00  0.00    +0.000 C 
ATOM     16  C   UNL     1       2.639  16.107  20.103  0.00  0.00    +0.000 C 
BRANCH  16  17
ATOM     17  O   UNL     1       2.894  17.052  21.160  0.00  0.00    +0.000 OA
ATOM     18  H   UNL     1       2.756  16.594  22.009  0.00  0.00    +0.000 HD
ENDBRANCH  16  17
ENDBRANCH   4   7
BRANCH   1  19
ATOM     19  C   UNL     1      -0.311  10.682  19.297  0.00  0.00    +0.000 C 
ATOM     20  O   UNL     1      -1.311  10.644  18.579  0.00  0.00    +0.000 OA
BRANCH  19  24
ATOM     21  C   UNL     1       2.611   7.697  18.536  0.00  0.00    +0.000 A 
ATOM     22  C   UNL     1       2.035   7.707  19.795  0.00  0.00    +0.000 A 
ATOM     23  C   UNL     1       1.074   8.681  20.086  0.00  0.00    +0.000 A 
ATOM     24  C   UNL     1       0.722   9.617  19.112  0.00  0.00    +0.000 A 
ATOM     25  C   UNL     1       1.375   9.525  17.884  0.00  0.00    +0.000 A 
ATOM     26  N   UNL     1       2.308   8.589  17.575  0.00  0.00    +0.000 NA
BRANCH  21  28
ATOM     27  C   UNL     1       3.558   5.695  19.298  0.00  0.00    +0.000 C 
ATOM     28  O   UNL     1       3.543   6.703  18.293  0.00  0.00    +0.000 OA
ENDBRANCH  21  28
ENDBRANCH  19  24
ENDBRANCH   1  19
TORSDOF 5
ENDMDL
MODEL 3
REMARK VINA RESULT:      -6.4      3.401      6.129
REMARK  Name = 
REMARK  6 active torsions:
REMARK  status: ('A' for Active; 'I' for Inactive)
REMARK    1  A    between atoms: C_1  and  O_2
REMARK    2  A    between atoms: O_2  and  C_3
REMARK    3  A    between atoms: C_6  and  C_7
REMARK    4  A    between atoms: C_7  and  C_9
REMARK    5  A    between atoms: N_12  and  C_13
REMARK    6  A    between atoms: C_22  and  O_23
REMARK                            x       y       z     vdW  Elec       q    Type
REMARK                         _______ _______ _______ _____ _____    ______ ____
ROOT
ATOM      1  C   UNL     1       2.345   6.087  18.575  0.00  0.00    +0.000 C 
ATOM      2  C   UNL     1       2.327   7.223  17.543  0.00  0.00    +0.000 C 
ATOM      3  C   UNL     1       2.717   8.580  18.133  0.00  0.00    +0.000 C 
ATOM      4  N   UNL     1       1.929   8.973  19.303  0.00  0.00    +0.000 NA
ATOM      5  C   UNL     1       1.987   7.932  20.336  0.00  0.00    +0.000 C 
ATOM      6  C   UNL     1       1.637   6.513  19.862  0.00  0.00    +0.000 C 
ENDROOT
BRANCH   4   7
ATOM      7  C   UNL     1       0.593   9.592  19.080  0.00  0.00    +0.000 C 
ATOM      8  C   UNL     1       0.583  10.858  18.172  0.00  0.00    +0.000 C 
ATOM      9  C   UNL     1       1.341  12.010  18.797  0.00  0.00    +0.000 A 
ATOM     10  C   UNL     1       2.009  12.930  17.978  0.00  0.00    +0.000 A 
ATOM     11  C   UNL     1       2.814  13.920  18.538  0.00  0.00    +0.000 A 
ATOM     12  C   UNL     1       2.933  14.022  19.921  0.00  0.00    +0.000 A 
ATOM     13  C   UNL     1       2.220  13.151  20.745  0.00  0.00    +0.000 A 
ATOM     14  C   UNL     1       1.413  12.143  20.194  0.00  0.00    +0.000 A 
ATOM     15  C   UNL     1       0.711  11.179  21.125  0.00  0.00    +0.000 C 
ATOM     16  C   UNL     1      -0.068  10.047  20.424  0.00  0.00    +0.000 C 
BRANCH  16  17
ATOM     17  O   UNL     1      -1.433  10.449  20.198  0.00  0.00    +0.000 OA
ATOM     18  H   UNL     1      -1.762   9.961  19.421  0.00  0.00    +0.000 HD
ENDBRANCH  16  17
ENDBRANCH   4   7
BRANCH   1  19
ATOM     19  C   UNL     1       3.764   5.566  18.840  0.00  0.00    +0.000 C 
ATOM     20  O   UNL     1       4.156   5.288  19.974  0.00  0.00    +0.000 OA
BRANCH  19  24
ATOM     21  C   UNL     1       6.585   5.312  15.676  0.00  0.00    +0.000 A 
ATOM     22  C   UNL     1       5.562   4.380  15.684  0.00  0.00    +0.000 A 
ATOM     23  C   UNL     1       4.618   4.426  16.715  0.00  0.00    +0.000 A 
ATOM     24  C   UNL     1       4.728   5.400  17.709  0.00  0.00    +0.000 A 
ATOM     25  C   UNL     1       5.805   6.279  17.614  0.00  0.00    +0.000 A 
ATOM     26  N   UNL     1       6.733   6.258  16.623  0.00  0.00    +0.000 NA
BRANCH  21  28
ATOM     27  C   UNL     1       6.938   4.603  13.473  0.00  0.00    +0.000 C 
ATOM     28  O   UNL     1       7.483   5.234  14.626  0.00  0.00    +0.000 OA
ENDBRANCH  21  28
ENDBRANCH  19  24
ENDBRANCH   1  19
TORSDOF 5
ENDMDL
MODEL 4
REMARK VINA RESULT:      -6.3      5.266     10.463
REMARK  Name = 
REMARK  6 active torsions:
REMARK  status: ('A' for Active; 'I' for Inactive)
REMARK    1  A    between atoms: C_1  and  O_2
REMARK    2  A    between atoms: O_2  and  C_3
REMARK    3  A    between atoms: C_6  and  C_7
REMARK    4  A    between atoms: C_7  and  C_9
REMARK    5  A    between atoms: N_12  and  C_13
REMARK    6  A    between atoms: C_22  and  O_23
REMARK                            x       y       z     vdW  Elec       q    Type
REMARK                         _______ _______ _______ _____ _____    ______ ____
ROOT
ATOM      1  C   UNL     1       2.434   7.113  20.267  0.00  0.00    +0.000 C 
ATOM      2  C   UNL     1       3.607   6.802  19.327  0.00  0.00    +0.000 C 
ATOM      3  C   UNL     1       3.213   5.910  18.147  0.00  0.00    +0.000 C 
ATOM      4  N   UNL     1       2.554   4.661  18.533  0.00  0.00    +0.000 NA
ATOM      5  C   UNL     1       1.385   4.937  19.377  0.00  0.00    +0.000 C 
ATOM      6  C   UNL     1       1.646   5.845  20.589  0.00  0.00    +0.000 C 
ENDROOT
BRANCH   4   7
ATOM      7  C   UNL     1       3.403   3.515  18.957  0.00  0.00    +0.000 C 
ATOM      8  C   UNL     1       4.923   3.826  19.107  0.00  0.00    +0.000 C 
ATOM      9  C   UNL     1       5.560   4.192  17.782  0.00  0.00    +0.000 A 
ATOM     10  C   UNL     1       6.630   5.096  17.751  0.00  0.00    +0.000 A 
ATOM     11  C   UNL     1       7.144   5.540  16.533  0.00  0.00    +0.000 A 
ATOM     12  C   UNL     1       6.616   5.060  15.338  0.00  0.00    +0.000 A 
ATOM     13  C   UNL     1       5.595   4.110  15.361  0.00  0.00    +0.000 A 
ATOM     14  C   UNL     1       5.062   3.661  16.580  0.00  0.00    +0.000 A 
ATOM     15  C   UNL     1       3.910   2.681  16.556  0.00  0.00    +0.000 C 
ATOM     16  C   UNL     1       3.327   2.327  17.941  0.00  0.00    +0.000 C 
BRANCH  16  17
ATOM     17  O   UNL     1       3.990   1.167  18.478  0.00  0.00    +0.000 OA
ATOM     18  H   UNL     1       4.420   0.701  17.738  0.00  0.00    +0.000 HD
ENDBRANCH  16  17
ENDBRANCH   4   7
BRANCH   1  19
ATOM     19  C   UNL     1       1.534   8.231  19.720  0.00  0.00    +0.000 C 
ATOM     20  O   UNL     1       1.392   8.423  18.512  0.00  0.00    +0.000 OA
BRANCH  19  24
ATOM     21  C   UNL     1      -0.434  10.685  22.573  0.00  0.00    +0.000 A 
ATOM     22  C   UNL     1      -0.822  10.821  21.252  0.00  0.00    +0.000 A 
ATOM     23  C   UNL     1      -0.191  10.035  20.281  0.00  0.00    +0.000 A 
ATOM     24  C   UNL     1       0.812   9.142  20.661  0.00  0.00    +0.000 A 
ATOM     25  C   UNL     1       1.136   9.096  22.016  0.00  0.00    +0.000 A 
ATOM     26  N   UNL     1       0.538   9.845  22.977  0.00  0.00    +0.000 NA
BRANCH  21  28
ATOM     27  C   UNL     1      -2.338  11.977  23.007  0.00  0.00    +0.000 C 
ATOM     28  O   UNL     1      -1.100  11.472  23.496  0.00  0.00    +0.000 OA
ENDBRANCH  21  28
ENDBRANCH  19  24
ENDBRANCH   1  19
TORSDOF 5
ENDMDL
MODEL 5
REMARK VINA RESULT:      -6.0      2.946      4.728
REMARK  Name = 
REMARK  6 active torsions:
REMARK  status: ('A' for Active; 'I' for Inactive)
REMARK    1  A    between atoms: C_1  and  O_2
REMARK    2  A    between atoms: O_2  and  C_3
REMARK    3  A    between atoms: C_6  and  C_7
REMARK    4  A    between atoms: C_7  and  C_9
REMARK    5  A    between atoms: N_12  and  C_13
REMARK    6  A    between atoms: C_22  and  O_23
REMARK                            x       y       z     vdW  Elec       q    Type
REMARK                         _______ _______ _______ _____ _____    ______ ____
ROOT
ATOM      1  C   UNL     1      -0.200  11.278  19.387  0.00  0.00    +0.000 C 
ATOM      2  C   UNL     1      -0.542  12.772  19.444  0.00  0.00    +0.000 C 
ATOM      3  C   UNL     1       0.215  13.604  18.406  0.00  0.00    +0.000 C 
ATOM      4  N   UNL     1       1.669  13.435  18.448  0.00  0.00    +0.000 NA
ATOM      5  C   UNL     1       2.026  12.018  18.325  0.00  0.00    +0.000 C 
ATOM      6  C   UNL     1       1.312  11.070  19.302  0.00  0.00    +0.000 C 
ENDROOT
BRANCH   4   7
ATOM      7  C   UNL     1       2.442  14.213  19.455  0.00  0.00    +0.000 C 
ATOM      8  C   UNL     1       1.794  15.556  19.908  0.00  0.00    +0.000 C 
ATOM      9  C   UNL     1       1.703  16.553  18.771  0.00  0.00    +0.000 A 
ATOM     10  C   UNL     1       0.645  17.471  18.734  0.00  0.00    +0.000 A 
ATOM     11  C   UNL     1       0.476  18.309  17.633  0.00  0.00    +0.000 A 
ATOM     12  C   UNL     1       1.379  18.261  16.576  0.00  0.00    +0.000 A 
ATOM     13  C   UNL     1       2.471  17.396  16.634  0.00  0.00    +0.000 A 
ATOM     14  C   UNL     1       2.649  16.539  17.732  0.00  0.00    +0.000 A 
ATOM     15  C   UNL     1       3.810  15.570  17.722  0.00  0.00    +0.000 C 
ATOM     16  C   UNL     1       3.862  14.603  18.923  0.00  0.00    +0.000 C 
BRANCH  16  17
ATOM     17  O   UNL     1       4.654  15.170  19.984  0.00  0.00    +0.000 OA
ATOM     18  H   UNL     1       5.585  15.163  19.697  0.00  0.00    +0.000 HD
ENDBRANCH  16  17
ENDBRANCH   4   7
BRANCH   1  19
ATOM     19  C   UNL     1      -0.949  10.554  18.259  0.00  0.00    +0.000 C 
ATOM     20  O   UNL     1      -0.444   9.620  17.635  0.00  0.00    +0.000 OA
BRANCH  19  24
ATOM     21  C   UNL     1      -4.917  11.790  17.390  0.00  0.00    +0.000 A 
ATOM     22  C   UNL     1      -4.162  11.312  16.334  0.00  0.00    +0.000 A 
ATOM     23  C   UNL     1      -2.846  10.903  16.579  0.00  0.00    +0.000 A 
ATOM     24  C   UNL     1      -2.326  10.988  17.871  0.00  0.00    +0.000 A 
ATOM     25  C   UNL     1      -3.168  11.499  18.858  0.00  0.00    +0.000 A 
ATOM     26  N   UNL     1      -4.448  11.900  18.647  0.00  0.00    +0.000 NA
BRANCH  21  28
ATOM     27  C   UNL     1      -7.119  11.931  18.174  0.00  0.00    +0.000 C 
ATOM     28  O   UNL     1      -6.217  12.166  17.099  0.00  0.00    +0.000 OA
ENDBRANCH  21  28
ENDBRANCH  19  24
ENDBRANCH   1  19
TORSDOF 5
ENDMDL
MODEL 6
REMARK VINA RESULT:      -6.0      3.050      5.070
REMARK  Name = 
REMARK  6 active torsions:
REMARK  status: ('A' for Active; 'I' for Inactive)
REMARK    1  A    between atoms: C_1  and  O_2
REMARK    2  A    between atoms: O_2  and  C_3
REMARK    3  A    between atoms: C_6  and  C_7
REMARK    4  A    between atoms: C_7  and  C_9
REMARK    5  A    between atoms: N_12  and  C_13
REMARK    6  A    between atoms: C_22  and  O_23
REMARK                            x       y       z     vdW  Elec       q    Type
REMARK                         _______ _______ _______ _____ _____    ______ ____
ROOT
ATOM      1  C   UNL     1      -0.809  11.903  19.752  0.00  0.00    +0.000 C 
ATOM      2  C   UNL     1      -1.028  13.416  19.617  0.00  0.00    +0.000 C 
ATOM      3  C   UNL     1      -0.158  14.056  18.533  0.00  0.00    +0.000 C 
ATOM      4  N   UNL     1       1.274  13.781  18.673  0.00  0.00    +0.000 NA
ATOM      5  C   UNL     1       1.516  12.336  18.734  0.00  0.00    +0.000 C 
ATOM      6  C   UNL     1       0.683  11.570  19.774  0.00  0.00    +0.000 C 
ENDROOT
BRANCH   4   7
ATOM      7  C   UNL     1       2.063  14.612  19.623  0.00  0.00    +0.000 C 
ATOM      8  C   UNL     1       1.452  16.004  19.965  0.00  0.00    +0.000 C 
ATOM      9  C   UNL     1       1.399  16.912  18.753  0.00  0.00    +0.000 A 
ATOM     10  C   UNL     1       0.370  17.855  18.635  0.00  0.00    +0.000 A 
ATOM     11  C   UNL     1       0.233  18.610  17.471  0.00  0.00    +0.000 A 
ATOM     12  C   UNL     1       1.142  18.452  16.429  0.00  0.00    +0.000 A 
ATOM     13  C   UNL     1       2.207  17.563  16.564  0.00  0.00    +0.000 A 
ATOM     14  C   UNL     1       2.352  16.790  17.727  0.00  0.00    +0.000 A 
ATOM     15  C   UNL     1       3.483  15.789  17.803  0.00  0.00    +0.000 C 
ATOM     16  C   UNL     1       3.497  14.917  19.076  0.00  0.00    +0.000 C 
BRANCH  16  17
ATOM     17  O   UNL     1       4.299  15.541  20.097  0.00  0.00    +0.000 OA
ATOM     18  H   UNL     1       5.046  14.947  20.294  0.00  0.00    +0.000 HD
ENDBRANCH  16  17
ENDBRANCH   4   7
BRANCH   1  19
ATOM     19  C   UNL     1      -1.564  11.109  18.676  0.00  0.00    +0.000 C 
ATOM     20  O   UNL     1      -1.032  10.194  18.047  0.00  0.00    +0.000 OA
BRANCH  19  24
ATOM     21  C   UNL     1      -5.533  12.074  17.514  0.00  0.00    +0.000 A 
ATOM     22  C   UNL     1      -5.214  12.228  18.852  0.00  0.00    +0.000 A 
ATOM     23  C   UNL     1      -3.918  11.912  19.275  0.00  0.00    +0.000 A 
ATOM     24  C   UNL     1      -2.983  11.449  18.349  0.00  0.00    +0.000 A 
ATOM     25  C   UNL     1      -3.413  11.316  17.030  0.00  0.00    +0.000 A 
ATOM     26  N   UNL     1      -4.663  11.618  16.593  0.00  0.00    +0.000 NA
BRANCH  21  28
ATOM     27  C   UNL     1      -7.505  13.170  18.139  0.00  0.00    +0.000 C 
ATOM     28  O   UNL     1      -6.821  12.416  17.144  0.00  0.00    +0.000 OA
ENDBRANCH  21  28
ENDBRANCH  19  24
ENDBRANCH   1  19
TORSDOF 5
ENDMDL
MODEL 7
REMARK VINA RESULT:      -6.0      3.874      5.535
REMARK  Name = 
REMARK  6 active torsions:
REMARK  status: ('A' for Active; 'I' for Inactive)
REMARK    1  A    between atoms: C_1  and  O_2
REMARK    2  A    between atoms: O_2  and  C_3
REMARK    3  A    between atoms: C_6  and  C_7
REMARK    4  A    between atoms: C_7  and  C_9
REMARK    5  A    between atoms: N_12  and  C_13
REMARK    6  A    between atoms: C_22  and  O_23
REMARK                            x       y       z     vdW  Elec       q    Type
REMARK                         _______ _______ _______ _____ _____    ______ ____
ROOT
ATOM      1  C   UNL     1       1.299   8.905  21.242  0.00  0.00    +0.000 C 
ATOM      2  C   UNL     1       0.862   9.435  22.614  0.00  0.00    +0.000 C 
ATOM      3  C   UNL     1      -0.589   9.921  22.639  0.00  0.00    +0.000 C 
ATOM      4  N   UNL     1      -0.908  10.912  21.610  0.00  0.00    +0.000 NA
ATOM      5  C   UNL     1      -0.564  10.400  20.279  0.00  0.00    +0.000 C 
ATOM      6  C   UNL     1       0.867   9.860  20.129  0.00  0.00    +0.000 C 
ENDROOT
BRANCH   4   7
ATOM      7  C   UNL     1      -0.557  12.336  21.868  0.00  0.00    +0.000 C 
ATOM      8  C   UNL     1      -1.202  12.967  23.138  0.00  0.00    +0.000 C 
ATOM      9  C   UNL     1      -2.711  13.050  23.025  0.00  0.00    +0.000 A 
ATOM     10  C   UNL     1      -3.501  12.938  24.176  0.00  0.00    +0.000 A 
ATOM     11  C   UNL     1      -4.891  12.886  24.076  0.00  0.00    +0.000 A 
ATOM     12  C   UNL     1      -5.503  12.978  22.830  0.00  0.00    +0.000 A 
ATOM     13  C   UNL     1      -4.726  13.156  21.685  0.00  0.00    +0.000 A 
ATOM     14  C   UNL     1      -3.326  13.200  21.770  0.00  0.00    +0.000 A 
ATOM     15  C   UNL     1      -2.520  13.326  20.497  0.00  0.00    +0.000 C 
ATOM     16  C   UNL     1      -0.990  13.264  20.684  0.00  0.00    +0.000 C 
BRANCH  16  17
ATOM     17  O   UNL     1      -0.457  14.590  20.870  0.00  0.00    +0.000 OA
ATOM     18  H   UNL     1       0.456  14.594  20.531  0.00  0.00    +0.000 HD
ENDBRANCH  16  17
ENDBRANCH   4   7
BRANCH   1  19
ATOM     19  C   UNL     1       0.813   7.470  20.994  0.00  0.00    +0.000 C 
ATOM     20  O   UNL     1      -0.356   7.135  21.183  0.00  0.00    +0.000 OA
BRANCH  19  24
ATOM     21  C   UNL     1       3.594   4.638  19.482  0.00  0.00    +0.000 A 
ATOM     22  C   UNL     1       2.702   4.194  20.443  0.00  0.00    +0.000 A 
ATOM     23  C   UNL     1       1.776   5.099  20.972  0.00  0.00    +0.000 A 
ATOM     24  C   UNL     1       1.772   6.422  20.526  0.00  0.00    +0.000 A 
ATOM     25  C   UNL     1       2.723   6.768  19.567  0.00  0.00    +0.000 A 
ATOM     26  N   UNL     1       3.630   5.908  19.036  0.00  0.00    +0.000 NA
BRANCH  21  28
ATOM     27  C   UNL     1       4.213   2.381  19.444  0.00  0.00    +0.000 C 
ATOM     28  O   UNL     1       4.477   3.699  18.979  0.00  0.00    +0.000 OA
ENDBRANCH  21  28
ENDBRANCH  19  24
ENDBRANCH   1  19
TORSDOF 5
ENDMDL
MODEL 8
REMARK VINA RESULT:      -6.0      3.850      5.419
REMARK  Name = 
REMARK  6 active torsions:
REMARK  status: ('A' for Active; 'I' for Inactive)
REMARK    1  A    between atoms: C_1  and  O_2
REMARK    2  A    between atoms: O_2  and  C_3
REMARK    3  A    between atoms: C_6  and  C_7
REMARK    4  A    between atoms: C_7  and  C_9
REMARK    5  A    between atoms: N_12  and  C_13
REMARK    6  A    between atoms: C_22  and  O_23
REMARK                            x       y       z     vdW  Elec       q    Type
REMARK                         _______ _______ _______ _____ _____    ______ ____
ROOT
ATOM      1  C   UNL     1       1.236   9.253  21.403  0.00  0.00    +0.000 C 
ATOM      2  C   UNL     1       0.714   9.680  22.782  0.00  0.00    +0.000 C 
ATOM      3  C   UNL     1      -0.755  10.108  22.764  0.00  0.00    +0.000 C 
ATOM      4  N   UNL     1      -1.066  11.148  21.782  0.00  0.00    +0.000 NA
ATOM      5  C   UNL     1      -0.639  10.733  20.441  0.00  0.00    +0.000 C 
ATOM      6  C   UNL     1       0.819  10.258  20.330  0.00  0.00    +0.000 C 
ENDROOT
BRANCH   4   7
ATOM      7  C   UNL     1      -0.785  12.565  22.142  0.00  0.00    +0.000 C 
ATOM      8  C   UNL     1      -1.509  13.089  23.419  0.00  0.00    +0.000 C 
ATOM      9  C   UNL     1      -3.014  13.120  23.245  0.00  0.00    +0.000 A 
ATOM     10  C   UNL     1      -3.846  12.905  24.351  0.00  0.00    +0.000 A 
ATOM     11  C   UNL     1      -5.227  12.805  24.187  0.00  0.00    +0.000 A 
ATOM     12  C   UNL     1      -5.790  12.952  22.923  0.00  0.00    +0.000 A 
ATOM     13  C   UNL     1      -4.974  13.232  21.827  0.00  0.00    +0.000 A 
ATOM     14  C   UNL     1      -3.581  13.326  21.976  0.00  0.00    +0.000 A 
ATOM     15  C   UNL     1      -2.729  13.563  20.749  0.00  0.00    +0.000 C 
ATOM     16  C   UNL     1      -1.207  13.549  21.000  0.00  0.00    +0.000 C 
BRANCH  16  17
ATOM     17  O   UNL     1      -0.738  14.881  21.290  0.00  0.00    +0.000 OA
ATOM     18  H   UNL     1       0.168  14.808  21.640  0.00  0.00    +0.000 HD
ENDBRANCH  16  17
ENDBRANCH   4   7
BRANCH   1  19
ATOM     19  C   UNL     1       0.822   7.819  21.045  0.00  0.00    +0.000 C 
ATOM     20  O   UNL     1      -0.267   7.351  21.380  0.00  0.00    +0.000 OA
BRANCH  19  24
ATOM     21  C   UNL     1       3.483   5.160  19.075  0.00  0.00    +0.000 A 
ATOM     22  C   UNL     1       3.314   6.413  18.512  0.00  0.00    +0.000 A 
ATOM     23  C   UNL     1       2.438   7.314  19.127  0.00  0.00    +0.000 A 
ATOM     24  C   UNL     1       1.757   6.934  20.284  0.00  0.00    +0.000 A 
ATOM     25  C   UNL     1       1.989   5.644  20.758  0.00  0.00    +0.000 A 
ATOM     26  N   UNL     1       2.834   4.751  20.181  0.00  0.00    +0.000 NA
BRANCH  21  28
ATOM     27  C   UNL     1       3.753   3.498  17.448  0.00  0.00    +0.000 C 
ATOM     28  O   UNL     1       4.372   4.313  18.437  0.00  0.00    +0.000 OA
ENDBRANCH  21  28
ENDBRANCH  19  24
ENDBRANCH   1  19
TORSDOF 5
ENDMDL
MODEL 9
REMARK VINA RESULT:      -6.0      3.237      5.129
REMARK  Name = 
REMARK  6 active torsions:
REMARK  status: ('A' for Active; 'I' for Inactive)
REMARK    1  A    between atoms: C_1  and  O_2
REMARK    2  A    between atoms: O_2  and  C_3
REMARK    3  A    between atoms: C_6  and  C_7
REMARK    4  A    between atoms: C_7  and  C_9
REMARK    5  A    between atoms: N_12  and  C_13
REMARK    6  A    between atoms: C_22  and  O_23
REMARK                            x       y       z     vdW  Elec       q    Type
REMARK                         _______ _______ _______ _____ _____    ______ ____
ROOT
ATOM      1  C   UNL     1       0.920  11.317  19.811  0.00  0.00    +0.000 C 
ATOM      2  C   UNL     1       0.467  11.079  21.258  0.00  0.00    +0.000 C 
ATOM      3  C   UNL     1      -1.023  11.350  21.475  0.00  0.00    +0.000 C 
ATOM      4  N   UNL     1      -1.462  12.677  21.039  0.00  0.00    +0.000 NA
ATOM      5  C   UNL     1      -1.102  12.901  19.635  0.00  0.00    +0.000 C 
ATOM      6  C   UNL     1       0.371  12.641  19.281  0.00  0.00    +0.000 C 
ENDROOT
BRANCH   4   7
ATOM      7  C   UNL     1      -1.245  13.829  21.956  0.00  0.00    +0.000 C 
ATOM      8  C   UNL     1      -1.753  13.630  23.416  0.00  0.00    +0.000 C 
ATOM      9  C   UNL     1      -3.260  13.484  23.476  0.00  0.00    +0.000 A 
ATOM     10  C   UNL     1      -3.842  12.683  24.468  0.00  0.00    +0.000 A 
ATOM     11  C   UNL     1      -5.214  12.436  24.461  0.00  0.00    +0.000 A 
ATOM     12  C   UNL     1      -6.020  13.014  23.485  0.00  0.00    +0.000 A 
ATOM     13  C   UNL     1      -5.458  13.865  22.534  0.00  0.00    +0.000 A 
ATOM     14  C   UNL     1      -4.077  14.115  22.523  0.00  0.00    +0.000 A 
ATOM     15  C   UNL     1      -3.501  14.990  21.432  0.00  0.00    +0.000 C 
ATOM     16  C   UNL     1      -1.964  15.122  21.446  0.00  0.00    +0.000 C 
BRANCH  16  17
ATOM     17  O   UNL     1      -1.569  16.259  22.237  0.00  0.00    +0.000 OA
ATOM     18  H   UNL     1      -2.277  16.432  22.884  0.00  0.00    +0.000 HD
ENDBRANCH  16  17
ENDBRANCH   4   7
BRANCH   1  19
ATOM     19  C   UNL     1       0.571  10.137  18.893  0.00  0.00    +0.000 C 
ATOM     20  O   UNL     1      -0.449  10.126  18.203  0.00  0.00    +0.000 OA
BRANCH  19  24
ATOM     21  C   UNL     1       3.100   6.725  18.949  0.00  0.00    +0.000 A 
ATOM     22  C   UNL     1       3.092   7.484  17.792  0.00  0.00    +0.000 A 
ATOM     23  C   UNL     1       2.266   8.611  17.732  0.00  0.00    +0.000 A 
ATOM     24  C   UNL     1       1.469   8.942  18.829  0.00  0.00    +0.000 A 
ATOM     25  C   UNL     1       1.541   8.101  19.938  0.00  0.00    +0.000 A 
ATOM     26  N   UNL     1       2.336   7.004  20.023  0.00  0.00    +0.000 NA
BRANCH  21  28
ATOM     27  C   UNL     1       3.306   4.437  19.397  0.00  0.00    +0.000 C 
ATOM     28  O   UNL     1       3.947   5.631  18.964  0.00  0.00    +0.000 OA
ENDBRANCH  21  28
ENDBRANCH  19  24
ENDBRANCH   1  19
TORSDOF 5
ENDMDL
