MODEL 1
REMARK VINA RESULT:      -5.8      0.000      0.000
REMARK  Name = 
REMARK  5 active torsions:
REMARK  status: ('A' for Active; 'I' for Inactive)
REMARK    1  A    between atoms: C_1  and  N_2
REMARK    2  A    between atoms: N_2  and  C_3
REMARK    3  A    between atoms: C_8  and  S_9
REMARK    4  A    between atoms: S_9  and  N_12
REMARK    5  A    between atoms: N_12  and  C_13
REMARK                            x       y       z     vdW  Elec       q    Type
REMARK                         _______ _______ _______ _____ _____    ______ ____
ROOT
ATOM      1  C   UNL     1       5.101   4.060  17.043  0.00  0.00    +0.000 A 
ATOM      2  C   UNL     1       3.742   3.808  17.281  0.00  0.00    +0.000 A 
ATOM      3  C   UNL     1       3.132   4.294  18.432  0.00  0.00    +0.000 A 
ATOM      4  N   UNL     1       3.777   5.000  19.379  0.00  0.00    +0.000 NA
ATOM      5  C   UNL     1       5.095   5.211  19.167  0.00  0.00    +0.000 A 
ATOM      6  C   UNL     1       5.782   4.772  18.041  0.00  0.00    +0.000 A 
ENDROOT
BRANCH   1   8
ATOM      7  C   UNL     1       5.764   4.209  14.666  0.00  0.00    +0.000 C 
ATOM      8  N   UNL     1       5.748   3.501  15.935  0.00  0.00    +0.000 N 
ATOM      9  H   UNL     1       6.655   3.073  16.160  0.00  0.00    +0.000 HD
ENDBRANCH   1   8
BRANCH   6  10
ATOM     10  S   UNL     1       7.494   5.167  17.972  0.00  0.00    +0.000 S 
ATOM     11  O   UNL     1       7.902   5.595  19.292  0.00  0.00    +0.000 OA
ATOM     12  O   UNL     1       8.209   4.136  17.248  0.00  0.00    +0.000 OA
BRANCH  10  13
ATOM     13  N   UNL     1       7.531   6.553  17.011  0.00  0.00    +0.000 NA
ATOM     14  C   UNL     1       7.717   7.843  17.668  0.00  0.00    +0.000 C 
ATOM     15  H   UNL     1       6.858   6.501  16.245  0.00  0.00    +0.000 HD
ENDBRANCH  10  13
ENDBRANCH   6  10
TORSDOF 3
ENDMDL
MODEL 2
REMARK VINA RESULT:      -5.6      2.148      2.795
REMARK  Name = 
REMARK  5 active torsions:
REMARK  status: ('A' for Active; 'I' for Inactive)
REMARK    1  A    between atoms: C_1  and  N_2
REMARK    2  A    between atoms: N_2  and  C_3
REMARK    3  A    between atoms: C_8  and  S_9
REMARK    4  A    between atoms: S_9  and  N_12
REMARK    5  A    between atoms: N_12  and  C_13
REMARK                            x       y       z     vdW  Elec       q    Type
REMARK                         _______ _______ _______ _____ _____    ______ ____
ROOT
ATOM      1  C   UNL     1       4.260   4.594  17.928  0.00  0.00    +0.000 A 
ATOM      2  C   UNL     1       3.076   5.172  18.411  0.00  0.00    +0.000 A 
ATOM      3  C   UNL     1       2.813   6.518  18.185  0.00  0.00    +0.000 A 
ATOM      4  N   UNL     1       3.648   7.343  17.526  0.00  0.00    +0.000 NA
ATOM      5  C   UNL     1       4.804   6.794  17.092  0.00  0.00    +0.000 A 
ATOM      6  C   UNL     1       5.143   5.457  17.264  0.00  0.00    +0.000 A 
ENDROOT
BRANCH   1   8
ATOM      7  C   UNL     1       4.438   2.766  19.583  0.00  0.00    +0.000 C 
ATOM      8  N   UNL     1       4.579   3.264  18.225  0.00  0.00    +0.000 N 
ATOM      9  H   UNL     1       4.245   2.592  17.522  0.00  0.00    +0.000 HD
ENDBRANCH   1   8
BRANCH   6  10
ATOM     10  S   UNL     1       6.698   4.960  16.610  0.00  0.00    +0.000 S 
ATOM     11  O   UNL     1       6.481   3.779  15.804  0.00  0.00    +0.000 OA
ATOM     12  O   UNL     1       7.410   6.114  16.099  0.00  0.00    +0.000 OA
BRANCH  10  13
ATOM     13  N   UNL     1       7.539   4.434  17.975  0.00  0.00    +0.000 NA
ATOM     14  C   UNL     1       7.813   5.403  19.032  0.00  0.00    +0.000 C 
ATOM     15  H   UNL     1       8.276   3.770  17.734  0.00  0.00    +0.000 HD
ENDBRANCH  10  13
ENDBRANCH   6  10
TORSDOF 3
ENDMDL
MODEL 3
REMARK VINA RESULT:      -5.6      1.744      2.887
REMARK  Name = 
REMARK  5 active torsions:
REMARK  status: ('A' for Active; 'I' for Inactive)
REMARK    1  A    between atoms: C_1  and  N_2
REMARK    2  A    between atoms: N_2  and  C_3
REMARK    3  A    between atoms: C_8  and  S_9
REMARK    4  A    between atoms: S_9  and  N_12
REMARK    5  A    between atoms: N_12  and  C_13
REMARK                            x       y       z     vdW  Elec       q    Type
REMARK                         _______ _______ _______ _____ _____    ______ ____
ROOT
ATOM      1  C   UNL     1       4.392   4.422  18.122  0.00  0.00    +0.000 A 
ATOM      2  C   UNL     1       3.134   4.925  18.485  0.00  0.00    +0.000 A 
ATOM      3  C   UNL     1       2.818   6.257  18.244  0.00  0.00    +0.000 A 
ATOM      4  N   UNL     1       3.667   7.138  17.682  0.00  0.00    +0.000 NA
ATOM      5  C   UNL     1       4.892   6.662  17.365  0.00  0.00    +0.000 A 
ATOM      6  C   UNL     1       5.288   5.344  17.561  0.00  0.00    +0.000 A 
ENDROOT
BRANCH   1   8
ATOM      7  C   UNL     1       4.449   2.565  19.753  0.00  0.00    +0.000 C 
ATOM      8  N   UNL     1       4.756   3.109  18.441  0.00  0.00    +0.000 N 
ATOM      9  H   UNL     1       4.578   2.437  17.683  0.00  0.00    +0.000 HD
ENDBRANCH   1   8
BRANCH   6  10
ATOM     10  S   UNL     1       6.928   4.944  17.067  0.00  0.00    +0.000 S 
ATOM     11  O   UNL     1       7.446   6.061  16.307  0.00  0.00    +0.000 OA
ATOM     12  O   UNL     1       7.656   4.379  18.186  0.00  0.00    +0.000 OA
BRANCH  10  13
ATOM     13  N   UNL     1       6.702   3.698  15.953  0.00  0.00    +0.000 NA
ATOM     14  C   UNL     1       6.030   4.011  14.696  0.00  0.00    +0.000 C 
ATOM     15  H   UNL     1       6.469   2.817  16.412  0.00  0.00    +0.000 HD
ENDBRANCH  10  13
ENDBRANCH   6  10
TORSDOF 3
ENDMDL
MODEL 4
REMARK VINA RESULT:      -5.5      3.016      4.421
REMARK  Name = 
REMARK  5 active torsions:
REMARK  status: ('A' for Active; 'I' for Inactive)
REMARK    1  A    between atoms: C_1  and  N_2
REMARK    2  A    between atoms: N_2  and  C_3
REMARK    3  A    between atoms: C_8  and  S_9
REMARK    4  A    between atoms: S_9  and  N_12
REMARK    5  A    between atoms: N_12  and  C_13
REMARK                            x       y       z     vdW  Elec       q    Type
REMARK                         _______ _______ _______ _____ _____    ______ ____
ROOT
ATOM      1  C   UNL     1       5.136   4.737  18.344  0.00  0.00    +0.000 A 
ATOM      2  C   UNL     1       5.039   6.045  17.847  0.00  0.00    +0.000 A 
ATOM      3  C   UNL     1       3.796   6.656  17.725  0.00  0.00    +0.000 A 
ATOM      4  N   UNL     1       2.634   6.057  18.046  0.00  0.00    +0.000 NA
ATOM      5  C   UNL     1       2.725   4.784  18.491  0.00  0.00    +0.000 A 
ATOM      6  C   UNL     1       3.925   4.102  18.654  0.00  0.00    +0.000 A 
ENDROOT
BRANCH   1   8
ATOM      7  C   UNL     1       7.517   4.633  17.685  0.00  0.00    +0.000 C 
ATOM      8  N   UNL     1       6.371   4.079  18.386  0.00  0.00    +0.000 N 
ATOM      9  H   UNL     1       6.614   3.719  19.317  0.00  0.00    +0.000 HD
ENDBRANCH   1   8
BRANCH   6  10
ATOM     10  S   UNL     1       3.806   2.453  19.254  0.00  0.00    +0.000 S 
ATOM     11  O   UNL     1       3.579   1.585  18.120  0.00  0.00    +0.000 OA
ATOM     12  O   UNL     1       4.865   2.199  20.211  0.00  0.00    +0.000 OA
BRANCH  10  13
ATOM     13  N   UNL     1       2.359   2.462  20.120  0.00  0.00    +0.000 NA
ATOM     14  C   UNL     1       2.411   2.761  21.548  0.00  0.00    +0.000 C 
ATOM     15  H   UNL     1       1.726   1.724  19.810  0.00  0.00    +0.000 HD
ENDBRANCH  10  13
ENDBRANCH   6  10
TORSDOF 3
ENDMDL
MODEL 5
REMARK VINA RESULT:      -5.5      2.006      3.814
REMARK  Name = 
REMARK  5 active torsions:
REMARK  status: ('A' for Active; 'I' for Inactive)
REMARK    1  A    between atoms: C_1  and  N_2
REMARK    2  A    between atoms: N_2  and  C_3
REMARK    3  A    between atoms: C_8  and  S_9
REMARK    4  A    between atoms: S_9  and  N_12
REMARK    5  A    between atoms: N_12  and  C_13
REMARK                            x       y       z     vdW  Elec       q    Type
REMARK                         _______ _______ _______ _____ _____    ______ ____
ROOT
ATOM      1  C   UNL     1       4.875   4.414  16.521  0.00  0.00    +0.000 A 
ATOM      2  C   UNL     1       5.279   4.415  15.178  0.00  0.00    +0.000 A 
ATOM      3  C   UNL     1       6.619   4.589  14.852  0.00  0.00    +0.000 A 
ATOM      4  N   UNL     1       7.592   4.780  15.762  0.00  0.00    +0.000 NA
ATOM      5  C   UNL     1       7.197   4.815  17.054  0.00  0.00    +0.000 A 
ATOM      6  C   UNL     1       5.883   4.640  17.470  0.00  0.00    +0.000 A 
ENDROOT
BRANCH   1   8
ATOM      7  C   UNL     1       2.870   3.035  16.955  0.00  0.00    +0.000 C 
ATOM      8  N   UNL     1       3.520   4.331  16.859  0.00  0.00    +0.000 N 
ATOM      9  H   UNL     1       3.244   4.967  17.618  0.00  0.00    +0.000 HD
ENDBRANCH   1   8
BRANCH   6  10
ATOM     10  S   UNL     1       5.600   4.718  19.204  0.00  0.00    +0.000 S 
ATOM     11  O   UNL     1       6.857   5.038  19.844  0.00  0.00    +0.000 OA
ATOM     12  O   UNL     1       4.391   5.472  19.473  0.00  0.00    +0.000 OA
BRANCH  10  13
ATOM     13  N   UNL     1       5.274   3.114  19.614  0.00  0.00    +0.000 NA
ATOM     14  C   UNL     1       3.995   2.810  20.247  0.00  0.00    +0.000 C 
ATOM     15  H   UNL     1       6.105   2.636  19.964  0.00  0.00    +0.000 HD
ENDBRANCH  10  13
ENDBRANCH   6  10
TORSDOF 3
ENDMDL
MODEL 6
REMARK VINA RESULT:      -5.5      2.159      3.094
REMARK  Name = 
REMARK  5 active torsions:
REMARK  status: ('A' for Active; 'I' for Inactive)
REMARK    1  A    between atoms: C_1  and  N_2
REMARK    2  A    between atoms: N_2  and  C_3
REMARK    3  A    between atoms: C_8  and  S_9
REMARK    4  A    between atoms: S_9  and  N_12
REMARK    5  A    between atoms: N_12  and  C_13
REMARK                            x       y       z     vdW  Elec       q    Type
REMARK                         _______ _______ _______ _____ _____    ______ ____
ROOT
ATOM      1  C   UNL     1       3.991   3.238  18.766  0.00  0.00    +0.000 A 
ATOM      2  C   UNL     1       2.641   2.864  18.696  0.00  0.00    +0.000 A 
ATOM      3  C   UNL     1       1.694   3.754  18.203  0.00  0.00    +0.000 A 
ATOM      4  N   UNL     1       1.985   5.001  17.786  0.00  0.00    +0.000 NA
ATOM      5  C   UNL     1       3.280   5.373  17.887  0.00  0.00    +0.000 A 
ATOM      6  C   UNL     1       4.293   4.545  18.358  0.00  0.00    +0.000 A 
ENDROOT
BRANCH   1   8
ATOM      7  C   UNL     1       4.702   1.815  20.659  0.00  0.00    +0.000 C 
ATOM      8  N   UNL     1       4.939   2.386  19.344  0.00  0.00    +0.000 N 
ATOM      9  H   UNL     1       5.340   1.707  18.685  0.00  0.00    +0.000 HD
ENDBRANCH   1   8
BRANCH   6  10
ATOM     10  S   UNL     1       5.908   5.239  18.395  0.00  0.00    +0.000 S 
ATOM     11  O   UNL     1       5.861   6.507  17.702  0.00  0.00    +0.000 OA
ATOM     12  O   UNL     1       6.467   5.116  19.727  0.00  0.00    +0.000 OA
BRANCH  10  13
ATOM     13  N   UNL     1       6.794   4.205  17.398  0.00  0.00    +0.000 NA
ATOM     14  C   UNL     1       6.548   4.256  15.960  0.00  0.00    +0.000 C 
ATOM     15  H   UNL     1       6.929   3.289  17.827  0.00  0.00    +0.000 HD
ENDBRANCH  10  13
ENDBRANCH   6  10
TORSDOF 3
ENDMDL
MODEL 7
REMARK VINA RESULT:      -5.5      2.557      3.517
REMARK  Name = 
REMARK  5 active torsions:
REMARK  status: ('A' for Active; 'I' for Inactive)
REMARK    1  A    between atoms: C_1  and  N_2
REMARK    2  A    between atoms: N_2  and  C_3
REMARK    3  A    between atoms: C_8  and  S_9
REMARK    4  A    between atoms: S_9  and  N_12
REMARK    5  A    between atoms: N_12  and  C_13
REMARK                            x       y       z     vdW  Elec       q    Type
REMARK                         _______ _______ _______ _____ _____    ______ ____
ROOT
ATOM      1  C   UNL     1       3.764   2.767  18.923  0.00  0.00    +0.000 A 
ATOM      2  C   UNL     1       2.584   2.015  19.016  0.00  0.00    +0.000 A 
ATOM      3  C   UNL     1       1.408   2.486  18.446  0.00  0.00    +0.000 A 
ATOM      4  N   UNL     1       1.309   3.663  17.800  0.00  0.00    +0.000 NA
ATOM      5  C   UNL     1       2.437   4.405  17.742  0.00  0.00    +0.000 A 
ATOM      6  C   UNL     1       3.658   4.006  18.274  0.00  0.00    +0.000 A 
ENDROOT
BRANCH   1   8
ATOM      7  C   UNL     1       4.850   1.591  20.807  0.00  0.00    +0.000 C 
ATOM      8  N   UNL     1       4.932   2.347  19.569  0.00  0.00    +0.000 N 
ATOM      9  H   UNL     1       5.649   1.981  18.930  0.00  0.00    +0.000 HD
ENDBRANCH   1   8
BRANCH   6  10
ATOM     10  S   UNL     1       4.997   5.128  18.074  0.00  0.00    +0.000 S 
ATOM     11  O   UNL     1       4.595   6.129  17.111  0.00  0.00    +0.000 OA
ATOM     12  O   UNL     1       5.536   5.489  19.371  0.00  0.00    +0.000 OA
BRANCH  10  13
ATOM     13  N   UNL     1       6.170   4.195  17.301  0.00  0.00    +0.000 NA
ATOM     14  C   UNL     1       7.572   4.552  17.493  0.00  0.00    +0.000 C 
ATOM     15  H   UNL     1       5.874   3.911  16.367  0.00  0.00    +0.000 HD
ENDBRANCH  10  13
ENDBRANCH   6  10
TORSDOF 3
ENDMDL
MODEL 8
REMARK VINA RESULT:      -5.4      2.613      4.354
REMARK  Name = 
REMARK  5 active torsions:
REMARK  status: ('A' for Active; 'I' for Inactive)
REMARK    1  A    between atoms: C_1  and  N_2
REMARK    2  A    between atoms: N_2  and  C_3
REMARK    3  A    between atoms: C_8  and  S_9
REMARK    4  A    between atoms: S_9  and  N_12
REMARK    5  A    between atoms: N_12  and  C_13
REMARK                            x       y       z     vdW  Elec       q    Type
REMARK                         _______ _______ _______ _____ _____    ______ ____
ROOT
ATOM      1  C   UNL     1       6.811   4.656  17.267  0.00  0.00    +0.000 A 
ATOM      2  C   UNL     1       7.484   4.771  16.041  0.00  0.00    +0.000 A 
ATOM      3  C   UNL     1       6.785   4.646  14.846  0.00  0.00    +0.000 A 
ATOM      4  N   UNL     1       5.464   4.398  14.774  0.00  0.00    +0.000 NA
ATOM      5  C   UNL     1       4.823   4.251  15.955  0.00  0.00    +0.000 A 
ATOM      6  C   UNL     1       5.440   4.371  17.195  0.00  0.00    +0.000 A 
ENDROOT
BRANCH   1   8
ATOM      7  C   UNL     1       7.907   5.962  19.057  0.00  0.00    +0.000 C 
ATOM      8  N   UNL     1       7.517   4.690  18.475  0.00  0.00    +0.000 N 
ATOM      9  H   UNL     1       7.164   4.026  19.177  0.00  0.00    +0.000 HD
ENDBRANCH   1   8
BRANCH   6  10
ATOM     10  S   UNL     1       4.408   4.147  18.601  0.00  0.00    +0.000 S 
ATOM     11  O   UNL     1       4.593   5.287  19.471  0.00  0.00    +0.000 OA
ATOM     12  O   UNL     1       3.090   3.712  18.181  0.00  0.00    +0.000 OA
BRANCH  10  13
ATOM     13  N   UNL     1       5.120   2.842  19.398  0.00  0.00    +0.000 NA
ATOM     14  C   UNL     1       4.359   2.179  20.452  0.00  0.00    +0.000 C 
ATOM     15  H   UNL     1       6.118   2.991  19.552  0.00  0.00    +0.000 HD
ENDBRANCH  10  13
ENDBRANCH   6  10
TORSDOF 3
ENDMDL
MODEL 9
REMARK VINA RESULT:      -5.4      1.924      3.621
REMARK  Name = 
REMARK  5 active torsions:
REMARK  status: ('A' for Active; 'I' for Inactive)
REMARK    1  A    between atoms: C_1  and  N_2
REMARK    2  A    between atoms: N_2  and  C_3
REMARK    3  A    between atoms: C_8  and  S_9
REMARK    4  A    between atoms: S_9  and  N_12
REMARK    5  A    between atoms: N_12  and  C_13
REMARK                            x       y       z     vdW  Elec       q    Type
REMARK                         _______ _______ _______ _____ _____    ______ ____
ROOT
ATOM      1  C   UNL     1       4.928   4.156  16.540  0.00  0.00    +0.000 A 
ATOM      2  C   UNL     1       5.325   4.141  15.195  0.00  0.00    +0.000 A 
ATOM      3  C   UNL     1       6.637   4.441  14.850  0.00  0.00    +0.000 A 
ATOM      4  N   UNL     1       7.588   4.773  15.743  0.00  0.00    +0.000 NA
ATOM      5  C   UNL     1       7.196   4.822  17.036  0.00  0.00    +0.000 A 
ATOM      6  C   UNL     1       5.909   4.527  17.470  0.00  0.00    +0.000 A 
ENDROOT
BRANCH   1   8
ATOM      7  C   UNL     1       3.125   2.608  17.224  0.00  0.00    +0.000 C 
ATOM      8  N   UNL     1       3.590   3.944  16.892  0.00  0.00    +0.000 N 
ATOM      9  H   UNL     1       3.211   4.662  17.523  0.00  0.00    +0.000 HD
ENDBRANCH   1   8
BRANCH   6  10
ATOM     10  S   UNL     1       5.626   4.650  19.201  0.00  0.00    +0.000 S 
ATOM     11  O   UNL     1       5.196   3.352  19.672  0.00  0.00    +0.000 OA
ATOM     12  O   UNL     1       6.717   5.368  19.830  0.00  0.00    +0.000 OA
BRANCH  10  13
ATOM     13  N   UNL     1       4.267   5.645  19.299  0.00  0.00    +0.000 NA
ATOM     14  C   UNL     1       3.115   5.166  20.057  0.00  0.00    +0.000 C 
ATOM     15  H   UNL     1       4.091   6.133  18.421  0.00  0.00    +0.000 HD
ENDBRANCH  10  13
ENDBRANCH   6  10
TORSDOF 3
ENDMDL
