MODEL 1
REMARK VINA RESULT:      -7.1      0.000      0.000
REMARK  Name = 
REMARK  8 active torsions:
REMARK  status: ('A' for Active; 'I' for Inactive)
REMARK    1  A    between atoms: C_1  and  O_2
REMARK    2  A    between atoms: O_2  and  C_3
REMARK    3  A    between atoms: C_6  and  O_7
REMARK    4  A    between atoms: O_7  and  C_8
REMARK    5  A    between atoms: C_12  and  C_13
REMARK    6  A    between atoms: C_18  and  C_19
REMARK    7  A    between atoms: C_20  and  C_21
REMARK    8  A    between atoms: N_23  and  C_24
REMARK                            x       y       z     vdW  Elec       q    Type
REMARK                         _______ _______ _______ _____ _____    ______ ____
ROOT
ATOM      1  C   UNL     1       4.495   5.289  16.931  0.00  0.00    +0.000 A 
ATOM      2  C   UNL     1       4.718   3.922  16.779  0.00  0.00    +0.000 A 
ATOM      3  C   UNL     1       4.148   3.012  17.669  0.00  0.00    +0.000 A 
ATOM      4  C   UNL     1       3.316   3.433  18.720  0.00  0.00    +0.000 A 
ATOM      5  C   UNL     1       3.081   4.827  18.876  0.00  0.00    +0.000 A 
ATOM      6  C   UNL     1       3.679   5.753  17.986  0.00  0.00    +0.000 A 
ATOM      7  C   UNL     1       3.234   7.042  18.382  0.00  0.00    +0.000 A 
ATOM      8  C   UNL     1       2.392   6.932  19.463  0.00  0.00    +0.000 A 
ATOM      9  N   UNL     1       2.266   5.577  19.724  0.00  0.00    +0.000 N 
ATOM     10  C   UNL     1       1.323   5.047  20.682  0.00  0.00    +0.000 C 
ENDROOT
BRANCH   8  11
ATOM     11  C   UNL     1       1.750   8.021  20.180  0.00  0.00    +0.000 C 
ATOM     12  O   UNL     1       1.831   8.133  21.400  0.00  0.00    +0.000 OA
ATOM     13  N   UNL     1       1.031   8.843  19.339  0.00  0.00    +0.000 N 
ATOM     14  C   UNL     1       0.283   9.931  19.695  0.00  0.00    +0.000 A 
ATOM     15  N   UNL     1      -0.645  10.402  18.896  0.00  0.00    +0.000 NA
ATOM     16  C   UNL     1      -1.312  11.449  19.517  0.00  0.00    +0.000 A 
ATOM     17  C   UNL     1      -2.503  12.030  18.844  0.00  0.00    +0.000 C 
ATOM     18  C   UNL     1      -0.788  11.818  20.746  0.00  0.00    +0.000 A 
ATOM     19  C   UNL     1      -1.215  12.881  21.692  0.00  0.00    +0.000 C 
ATOM     20  S   UNL     1       0.531  10.791  21.138  0.00  0.00    +0.000 S 
ATOM     21  H   UNL     1       0.841   8.523  18.401  0.00  0.00    +0.000 HD
ENDBRANCH   8  11
BRANCH   1  23
ATOM     22  C   UNL     1       5.792   5.342  14.917  0.00  0.00    +0.000 C 
ATOM     23  O   UNL     1       5.003   6.041  15.867  0.00  0.00    +0.000 OA
ENDBRANCH   1  23
BRANCH   4  24
ATOM     24  O   UNL     1       2.601   2.399  19.303  0.00  0.00    +0.000 OA
ATOM     25  C   UNL     1       1.355   2.058  18.714  0.00  0.00    +0.000 C 
ENDBRANCH   4  24
TORSDOF 3
ENDMDL
MODEL 2
REMARK VINA RESULT:      -7.0      1.364      1.470
REMARK  Name = 
REMARK  8 active torsions:
REMARK  status: ('A' for Active; 'I' for Inactive)
REMARK    1  A    between atoms: C_1  and  O_2
REMARK    2  A    between atoms: O_2  and  C_3
REMARK    3  A    between atoms: C_6  and  O_7
REMARK    4  A    between atoms: O_7  and  C_8
REMARK    5  A    between atoms: C_12  and  C_13
REMARK    6  A    between atoms: C_18  and  C_19
REMARK    7  A    between atoms: C_20  and  C_21
REMARK    8  A    between atoms: N_23  and  C_24
REMARK                            x       y       z     vdW  Elec       q    Type
REMARK                         _______ _______ _______ _____ _____    ______ ____
ROOT
ATOM      1  C   UNL     1       5.432   5.963  16.886  0.00  0.00    +0.000 A 
ATOM      2  C   UNL     1       5.748   4.760  16.259  0.00  0.00    +0.000 A 
ATOM      3  C   UNL     1       5.016   3.606  16.537  0.00  0.00    +0.000 A 
ATOM      4  C   UNL     1       3.928   3.622  17.427  0.00  0.00    +0.000 A 
ATOM      5  C   UNL     1       3.598   4.849  18.065  0.00  0.00    +0.000 A 
ATOM      6  C   UNL     1       4.357   6.015  17.800  0.00  0.00    +0.000 A 
ATOM      7  C   UNL     1       3.768   7.063  18.556  0.00  0.00    +0.000 A 
ATOM      8  C   UNL     1       2.688   6.581  19.257  0.00  0.00    +0.000 A 
ATOM      9  N   UNL     1       2.563   5.245  18.912  0.00  0.00    +0.000 N 
ATOM     10  C   UNL     1       1.435   4.434  19.310  0.00  0.00    +0.000 C 
ENDROOT
BRANCH   8  11
ATOM     11  C   UNL     1       1.837   7.330  20.167  0.00  0.00    +0.000 C 
ATOM     12  O   UNL     1       1.419   6.843  21.214  0.00  0.00    +0.000 OA
ATOM     13  N   UNL     1       1.541   8.587  19.685  0.00  0.00    +0.000 N 
ATOM     14  C   UNL     1       0.740   9.526  20.274  0.00  0.00    +0.000 A 
ATOM     15  N   UNL     1       0.229  10.509  19.575  0.00  0.00    +0.000 NA
ATOM     16  C   UNL     1      -0.607  11.273  20.379  0.00  0.00    +0.000 A 
ATOM     17  C   UNL     1      -1.408  12.353  19.747  0.00  0.00    +0.000 C 
ATOM     18  C   UNL     1      -0.618  10.901  21.714  0.00  0.00    +0.000 A 
ATOM     19  C   UNL     1      -1.366  11.473  22.864  0.00  0.00    +0.000 C 
ATOM     20  S   UNL     1       0.402   9.539  21.938  0.00  0.00    +0.000 S 
ATOM     21  H   UNL     1       1.740   8.789  18.717  0.00  0.00    +0.000 HD
ENDBRANCH   8  11
BRANCH   1  23
ATOM     22  C   UNL     1       7.227   7.524  17.172  0.00  0.00    +0.000 C 
ATOM     23  O   UNL     1       6.155   7.045  16.375  0.00  0.00    +0.000 OA
ENDBRANCH   1  23
BRANCH   4  24
ATOM     24  O   UNL     1       3.139   2.486  17.349  0.00  0.00    +0.000 OA
ATOM     25  C   UNL     1       3.395   1.451  18.287  0.00  0.00    +0.000 C 
ENDBRANCH   4  24
TORSDOF 3
ENDMDL
MODEL 3
REMARK VINA RESULT:      -6.9      0.983      1.055
REMARK  Name = 
REMARK  8 active torsions:
REMARK  status: ('A' for Active; 'I' for Inactive)
REMARK    1  A    between atoms: C_1  and  O_2
REMARK    2  A    between atoms: O_2  and  C_3
REMARK    3  A    between atoms: C_6  and  O_7
REMARK    4  A    between atoms: O_7  and  C_8
REMARK    5  A    between atoms: C_12  and  C_13
REMARK    6  A    between atoms: C_18  and  C_19
REMARK    7  A    between atoms: C_20  and  C_21
REMARK    8  A    between atoms: N_23  and  C_24
REMARK                            x       y       z     vdW  Elec       q    Type
REMARK                         _______ _______ _______ _____ _____    ______ ____
ROOT
ATOM      1  C   UNL     1       4.819   5.703  17.117  0.00  0.00    +0.000 A 
ATOM      2  C   UNL     1       5.300   4.404  17.268  0.00  0.00    +0.000 A 
ATOM      3  C   UNL     1       4.879   3.617  18.340  0.00  0.00    +0.000 A 
ATOM      4  C   UNL     1       3.945   4.090  19.278  0.00  0.00    +0.000 A 
ATOM      5  C   UNL     1       3.448   5.413  19.125  0.00  0.00    +0.000 A 
ATOM      6  C   UNL     1       3.893   6.221  18.050  0.00  0.00    +0.000 A 
ATOM      7  C   UNL     1       3.201   7.456  18.156  0.00  0.00    +0.000 A 
ATOM      8  C   UNL     1       2.356   7.424  19.239  0.00  0.00    +0.000 A 
ATOM      9  N   UNL     1       2.477   6.160  19.793  0.00  0.00    +0.000 N 
ATOM     10  C   UNL     1       1.616   5.680  20.849  0.00  0.00    +0.000 C 
ENDROOT
BRANCH   8  11
ATOM     11  C   UNL     1       1.495   8.500  19.704  0.00  0.00    +0.000 C 
ATOM     12  O   UNL     1       1.436   8.819  20.887  0.00  0.00    +0.000 OA
ATOM     13  N   UNL     1       0.756   9.051  18.679  0.00  0.00    +0.000 N 
ATOM     14  C   UNL     1      -0.171  10.051  18.781  0.00  0.00    +0.000 A 
ATOM     15  N   UNL     1      -1.070  10.234  17.844  0.00  0.00    +0.000 NA
ATOM     16  C   UNL     1      -1.939  11.250  18.219  0.00  0.00    +0.000 A 
ATOM     17  C   UNL     1      -3.126  11.519  17.366  0.00  0.00    +0.000 C 
ATOM     18  C   UNL     1      -1.601  11.890  19.400  0.00  0.00    +0.000 A 
ATOM     19  C   UNL     1      -2.269  13.011  20.110  0.00  0.00    +0.000 C 
ATOM     20  S   UNL     1      -0.197  11.161  20.066  0.00  0.00    +0.000 S 
ATOM     21  H   UNL     1       0.711   8.558  17.801  0.00  0.00    +0.000 HD
ENDBRANCH   8  11
BRANCH   1  23
ATOM     22  C   UNL     1       5.751   5.417  14.929  0.00  0.00    +0.000 C 
ATOM     23  O   UNL     1       5.216   6.289  15.911  0.00  0.00    +0.000 OA
ENDBRANCH   1  23
BRANCH   4  24
ATOM     24  O   UNL     1       3.417   3.090  20.079  0.00  0.00    +0.000 OA
ATOM     25  C   UNL     1       2.421   2.257  19.505  0.00  0.00    +0.000 C 
ENDBRANCH   4  24
TORSDOF 3
ENDMDL
MODEL 4
REMARK VINA RESULT:      -6.8      1.888      3.570
REMARK  Name = 
REMARK  8 active torsions:
REMARK  status: ('A' for Active; 'I' for Inactive)
REMARK    1  A    between atoms: C_1  and  O_2
REMARK    2  A    between atoms: O_2  and  C_3
REMARK    3  A    between atoms: C_6  and  O_7
REMARK    4  A    between atoms: O_7  and  C_8
REMARK    5  A    between atoms: C_12  and  C_13
REMARK    6  A    between atoms: C_18  and  C_19
REMARK    7  A    between atoms: C_20  and  C_21
REMARK    8  A    between atoms: N_23  and  C_24
REMARK                            x       y       z     vdW  Elec       q    Type
REMARK                         _______ _______ _______ _____ _____    ______ ____
ROOT
ATOM      1  C   UNL     1       2.867   3.818  20.520  0.00  0.00    +0.000 A 
ATOM      2  C   UNL     1       3.711   2.800  20.082  0.00  0.00    +0.000 A 
ATOM      3  C   UNL     1       4.496   2.976  18.942  0.00  0.00    +0.000 A 
ATOM      4  C   UNL     1       4.484   4.181  18.220  0.00  0.00    +0.000 A 
ATOM      5  C   UNL     1       3.629   5.225  18.666  0.00  0.00    +0.000 A 
ATOM      6  C   UNL     1       2.814   5.038  19.810  0.00  0.00    +0.000 A 
ATOM      7  C   UNL     1       2.109   6.254  20.010  0.00  0.00    +0.000 A 
ATOM      8  C   UNL     1       2.468   7.164  19.044  0.00  0.00    +0.000 A 
ATOM      9  N   UNL     1       3.429   6.545  18.261  0.00  0.00    +0.000 N 
ATOM     10  C   UNL     1       4.180   7.243  17.243  0.00  0.00    +0.000 C 
ENDROOT
BRANCH   8  11
ATOM     11  C   UNL     1       1.950   8.513  18.884  0.00  0.00    +0.000 C 
ATOM     12  O   UNL     1       2.249   9.214  17.922  0.00  0.00    +0.000 OA
ATOM     13  N   UNL     1       1.153   8.891  19.944  0.00  0.00    +0.000 N 
ATOM     14  C   UNL     1       0.544  10.103  20.123  0.00  0.00    +0.000 A 
ATOM     15  N   UNL     1       0.137  10.484  21.309  0.00  0.00    +0.000 NA
ATOM     16  C   UNL     1      -0.369  11.775  21.240  0.00  0.00    +0.000 A 
ATOM     17  C   UNL     1      -0.748  12.457  22.505  0.00  0.00    +0.000 C 
ATOM     18  C   UNL     1      -0.431  12.301  19.960  0.00  0.00    +0.000 A 
ATOM     19  C   UNL     1      -0.912  13.625  19.489  0.00  0.00    +0.000 C 
ATOM     20  S   UNL     1       0.206  11.165  18.842  0.00  0.00    +0.000 S 
ATOM     21  H   UNL     1       1.171   8.330  20.782  0.00  0.00    +0.000 HD
ENDBRANCH   8  11
BRANCH   1  23
ATOM     22  C   UNL     1       1.321   2.493  21.781  0.00  0.00    +0.000 C 
ATOM     23  O   UNL     1       2.279   3.538  21.757  0.00  0.00    +0.000 OA
ENDBRANCH   1  23
BRANCH   4  24
ATOM     24  O   UNL     1       5.532   4.291  17.319  0.00  0.00    +0.000 OA
ATOM     25  C   UNL     1       6.802   4.649  17.842  0.00  0.00    +0.000 C 
ENDBRANCH   4  24
TORSDOF 3
ENDMDL
MODEL 5
REMARK VINA RESULT:      -6.8      1.414      1.569
REMARK  Name = 
REMARK  8 active torsions:
REMARK  status: ('A' for Active; 'I' for Inactive)
REMARK    1  A    between atoms: C_1  and  O_2
REMARK    2  A    between atoms: O_2  and  C_3
REMARK    3  A    between atoms: C_6  and  O_7
REMARK    4  A    between atoms: O_7  and  C_8
REMARK    5  A    between atoms: C_12  and  C_13
REMARK    6  A    between atoms: C_18  and  C_19
REMARK    7  A    between atoms: C_20  and  C_21
REMARK    8  A    between atoms: N_23  and  C_24
REMARK                            x       y       z     vdW  Elec       q    Type
REMARK                         _______ _______ _______ _____ _____    ______ ____
ROOT
ATOM      1  C   UNL     1       5.917   5.899  16.804  0.00  0.00    +0.000 A 
ATOM      2  C   UNL     1       6.204   4.624  16.321  0.00  0.00    +0.000 A 
ATOM      3  C   UNL     1       5.330   3.565  16.564  0.00  0.00    +0.000 A 
ATOM      4  C   UNL     1       4.130   3.749  17.272  0.00  0.00    +0.000 A 
ATOM      5  C   UNL     1       3.829   5.049  17.761  0.00  0.00    +0.000 A 
ATOM      6  C   UNL     1       4.729   6.120  17.535  0.00  0.00    +0.000 A 
ATOM      7  C   UNL     1       4.140   7.275  18.114  0.00  0.00    +0.000 A 
ATOM      8  C   UNL     1       2.926   6.948  18.671  0.00  0.00    +0.000 A 
ATOM      9  N   UNL     1       2.725   5.604  18.408  0.00  0.00    +0.000 N 
ATOM     10  C   UNL     1       1.476   4.928  18.683  0.00  0.00    +0.000 C 
ENDROOT
BRANCH   8  11
ATOM     11  C   UNL     1       2.027   7.842  19.383  0.00  0.00    +0.000 C 
ATOM     12  O   UNL     1       1.839   7.746  20.592  0.00  0.00    +0.000 OA
ATOM     13  N   UNL     1       1.408   8.737  18.536  0.00  0.00    +0.000 N 
ATOM     14  C   UNL     1       0.482   9.684  18.877  0.00  0.00    +0.000 A 
ATOM     15  N   UNL     1      -0.307  10.210  17.972  0.00  0.00    +0.000 NA
ATOM     16  C   UNL     1      -1.206  11.077  18.579  0.00  0.00    +0.000 A 
ATOM     17  C   UNL     1      -2.290  11.668  17.752  0.00  0.00    +0.000 C 
ATOM     18  C   UNL     1      -0.995  11.267  19.935  0.00  0.00    +0.000 A 
ATOM     19  C   UNL     1      -1.731  12.113  20.911  0.00  0.00    +0.000 C 
ATOM     20  S   UNL     1       0.322  10.297  20.452  0.00  0.00    +0.000 S 
ATOM     21  H   UNL     1       1.456   8.570  17.543  0.00  0.00    +0.000 HD
ENDBRANCH   8  11
BRANCH   1  23
ATOM     22  C   UNL     1       7.596   7.531  17.313  0.00  0.00    +0.000 C 
ATOM     23  O   UNL     1       6.810   6.868  16.336  0.00  0.00    +0.000 OA
ENDBRANCH   1  23
BRANCH   4  24
ATOM     24  O   UNL     1       3.254   2.682  17.154  0.00  0.00    +0.000 OA
ATOM     25  C   UNL     1       3.267   1.713  18.191  0.00  0.00    +0.000 C 
ENDBRANCH   4  24
TORSDOF 3
ENDMDL
MODEL 6
REMARK VINA RESULT:      -6.8      1.044      3.081
REMARK  Name = 
REMARK  8 active torsions:
REMARK  status: ('A' for Active; 'I' for Inactive)
REMARK    1  A    between atoms: C_1  and  O_2
REMARK    2  A    between atoms: O_2  and  C_3
REMARK    3  A    between atoms: C_6  and  O_7
REMARK    4  A    between atoms: O_7  and  C_8
REMARK    5  A    between atoms: C_12  and  C_13
REMARK    6  A    between atoms: C_18  and  C_19
REMARK    7  A    between atoms: C_20  and  C_21
REMARK    8  A    between atoms: N_23  and  C_24
REMARK                            x       y       z     vdW  Elec       q    Type
REMARK                         _______ _______ _______ _____ _____    ______ ____
ROOT
ATOM      1  C   UNL     1       3.054   3.557  19.922  0.00  0.00    +0.000 A 
ATOM      2  C   UNL     1       3.756   2.897  18.916  0.00  0.00    +0.000 A 
ATOM      3  C   UNL     1       4.122   3.572  17.752  0.00  0.00    +0.000 A 
ATOM      4  C   UNL     1       3.825   4.934  17.567  0.00  0.00    +0.000 A 
ATOM      5  C   UNL     1       3.114   5.613  18.594  0.00  0.00    +0.000 A 
ATOM      6  C   UNL     1       2.721   4.921  19.766  0.00  0.00    +0.000 A 
ATOM      7  C   UNL     1       2.066   5.867  20.596  0.00  0.00    +0.000 A 
ATOM      8  C   UNL     1       2.053   7.096  19.980  0.00  0.00    +0.000 A 
ATOM      9  N   UNL     1       2.736   6.942  18.786  0.00  0.00    +0.000 N 
ATOM     10  C   UNL     1       3.087   8.055  17.933  0.00  0.00    +0.000 C 
ENDROOT
BRANCH   8  11
ATOM     11  C   UNL     1       1.452   8.319  20.490  0.00  0.00    +0.000 C 
ATOM     12  O   UNL     1       1.634   8.699  21.643  0.00  0.00    +0.000 OA
ATOM     13  N   UNL     1       0.650   8.932  19.552  0.00  0.00    +0.000 N 
ATOM     14  C   UNL     1      -0.086  10.073  19.720  0.00  0.00    +0.000 A 
ATOM     15  N   UNL     1      -1.085  10.354  18.920  0.00  0.00    +0.000 NA
ATOM     16  C   UNL     1      -1.718  11.514  19.347  0.00  0.00    +0.000 A 
ATOM     17  C   UNL     1      -2.972  11.930  18.667  0.00  0.00    +0.000 C 
ATOM     18  C   UNL     1      -1.100  12.147  20.414  0.00  0.00    +0.000 A 
ATOM     19  C   UNL     1      -1.466  13.394  21.133  0.00  0.00    +0.000 C 
ATOM     20  S   UNL     1       0.266  11.233  20.910  0.00  0.00    +0.000 S 
ATOM     21  H   UNL     1       0.388   8.411  18.729  0.00  0.00    +0.000 HD
ENDBRANCH   8  11
BRANCH   1  23
ATOM     22  C   UNL     1       1.589   2.610  21.564  0.00  0.00    +0.000 C 
ATOM     23  O   UNL     1       2.910   2.783  21.078  0.00  0.00    +0.000 OA
ENDBRANCH   1  23
BRANCH   4  24
ATOM     24  O   UNL     1       4.520   5.509  16.515  0.00  0.00    +0.000 OA
ATOM     25  C   UNL     1       5.311   4.648  15.711  0.00  0.00    +0.000 C 
ENDBRANCH   4  24
TORSDOF 3
ENDMDL
MODEL 7
REMARK VINA RESULT:      -6.7      1.727      2.027
REMARK  Name = 
REMARK  8 active torsions:
REMARK  status: ('A' for Active; 'I' for Inactive)
REMARK    1  A    between atoms: C_1  and  O_2
REMARK    2  A    between atoms: O_2  and  C_3
REMARK    3  A    between atoms: C_6  and  O_7
REMARK    4  A    between atoms: O_7  and  C_8
REMARK    5  A    between atoms: C_12  and  C_13
REMARK    6  A    between atoms: C_18  and  C_19
REMARK    7  A    between atoms: C_20  and  C_21
REMARK    8  A    between atoms: N_23  and  C_24
REMARK                            x       y       z     vdW  Elec       q    Type
REMARK                         _______ _______ _______ _____ _____    ______ ____
ROOT
ATOM      1  C   UNL     1       5.442   5.605  16.523  0.00  0.00    +0.000 A 
ATOM      2  C   UNL     1       5.937   4.388  16.988  0.00  0.00    +0.000 A 
ATOM      3  C   UNL     1       5.489   3.861  18.200  0.00  0.00    +0.000 A 
ATOM      4  C   UNL     1       4.514   4.517  18.971  0.00  0.00    +0.000 A 
ATOM      5  C   UNL     1       4.001   5.755  18.498  0.00  0.00    +0.000 A 
ATOM      6  C   UNL     1       4.474   6.302  17.279  0.00  0.00    +0.000 A 
ATOM      7  C   UNL     1       3.758   7.510  17.072  0.00  0.00    +0.000 A 
ATOM      8  C   UNL     1       2.874   7.711  18.105  0.00  0.00    +0.000 A 
ATOM      9  N   UNL     1       2.995   6.613  18.941  0.00  0.00    +0.000 N 
ATOM     10  C   UNL     1       2.103   6.371  20.053  0.00  0.00    +0.000 C 
ENDROOT
BRANCH   8  11
ATOM     11  C   UNL     1       1.980   8.844  18.278  0.00  0.00    +0.000 C 
ATOM     12  O   UNL     1       1.883   9.730  17.434  0.00  0.00    +0.000 OA
ATOM     13  N   UNL     1       1.324   8.807  19.490  0.00  0.00    +0.000 N 
ATOM     14  C   UNL     1       0.446   9.735  19.979  0.00  0.00    +0.000 A 
ATOM     15  N   UNL     1       0.182   9.803  21.261  0.00  0.00    +0.000 NA
ATOM     16  C   UNL     1      -0.669  10.872  21.509  0.00  0.00    +0.000 A 
ATOM     17  C   UNL     1      -0.977  11.221  22.920  0.00  0.00    +0.000 C 
ATOM     18  C   UNL     1      -1.117  11.527  20.373  0.00  0.00    +0.000 A 
ATOM     19  C   UNL     1      -2.029  12.692  20.233  0.00  0.00    +0.000 C 
ATOM     20  S   UNL     1      -0.411  10.810  18.982  0.00  0.00    +0.000 S 
ATOM     21  H   UNL     1       1.656   8.168  20.196  0.00  0.00    +0.000 HD
ENDBRANCH   8  11
BRANCH   1  23
ATOM     22  C   UNL     1       6.529   4.863  14.522  0.00  0.00    +0.000 C 
ATOM     23  O   UNL     1       5.873   5.904  15.227  0.00  0.00    +0.000 OA
ENDBRANCH   1  23
BRANCH   4  24
ATOM     24  O   UNL     1       3.973   3.718  19.965  0.00  0.00    +0.000 OA
ATOM     25  C   UNL     1       4.033   2.312  19.773  0.00  0.00    +0.000 C 
ENDBRANCH   4  24
TORSDOF 3
ENDMDL
MODEL 8
REMARK VINA RESULT:      -6.7      2.685      2.977
REMARK  Name = 
REMARK  8 active torsions:
REMARK  status: ('A' for Active; 'I' for Inactive)
REMARK    1  A    between atoms: C_1  and  O_2
REMARK    2  A    between atoms: O_2  and  C_3
REMARK    3  A    between atoms: C_6  and  O_7
REMARK    4  A    between atoms: O_7  and  C_8
REMARK    5  A    between atoms: C_12  and  C_13
REMARK    6  A    between atoms: C_18  and  C_19
REMARK    7  A    between atoms: C_20  and  C_21
REMARK    8  A    between atoms: N_23  and  C_24
REMARK                            x       y       z     vdW  Elec       q    Type
REMARK                         _______ _______ _______ _____ _____    ______ ____
ROOT
ATOM      1  C   UNL     1       4.256   5.857  17.370  0.00  0.00    +0.000 A 
ATOM      2  C   UNL     1       4.556   4.673  18.041  0.00  0.00    +0.000 A 
ATOM      3  C   UNL     1       4.032   4.429  19.310  0.00  0.00    +0.000 A 
ATOM      4  C   UNL     1       3.170   5.344  19.939  0.00  0.00    +0.000 A 
ATOM      5  C   UNL     1       2.856   6.551  19.256  0.00  0.00    +0.000 A 
ATOM      6  C   UNL     1       3.407   6.810  17.977  0.00  0.00    +0.000 A 
ATOM      7  C   UNL     1       2.888   8.062  17.556  0.00  0.00    +0.000 A 
ATOM      8  C   UNL     1       2.045   8.564  18.520  0.00  0.00    +0.000 A 
ATOM      9  N   UNL     1       1.994   7.614  19.527  0.00  0.00    +0.000 N 
ATOM     10  C   UNL     1       1.075   7.698  20.639  0.00  0.00    +0.000 C 
ENDROOT
BRANCH   8  11
ATOM     11  C   UNL     1       1.337   9.833  18.482  0.00  0.00    +0.000 C 
ATOM     12  O   UNL     1       0.132   9.898  18.260  0.00  0.00    +0.000 OA
ATOM     13  N   UNL     1       2.184  10.905  18.673  0.00  0.00    +0.000 N 
ATOM     14  C   UNL     1       1.847  12.230  18.658  0.00  0.00    +0.000 A 
ATOM     15  N   UNL     1       2.758  13.154  18.472  0.00  0.00    +0.000 NA
ATOM     16  C   UNL     1       2.156  14.404  18.418  0.00  0.00    +0.000 A 
ATOM     17  C   UNL     1       2.992  15.580  18.063  0.00  0.00    +0.000 C 
ATOM     18  C   UNL     1       0.795  14.398  18.678  0.00  0.00    +0.000 A 
ATOM     19  C   UNL     1      -0.179  15.520  18.720  0.00  0.00    +0.000 C 
ATOM     20  S   UNL     1       0.268  12.786  18.943  0.00  0.00    +0.000 S 
ATOM     21  H   UNL     1       3.178  10.748  18.608  0.00  0.00    +0.000 HD
ENDBRANCH   8  11
BRANCH   1  23
ATOM     22  C   UNL     1       6.075   5.465  15.862  0.00  0.00    +0.000 C 
ATOM     23  O   UNL     1       4.729   5.868  16.055  0.00  0.00    +0.000 OA
ENDBRANCH   1  23
BRANCH   4  24
ATOM     24  O   UNL     1       2.511   4.813  21.035  0.00  0.00    +0.000 OA
ATOM     25  C   UNL     1       1.392   3.979  20.779  0.00  0.00    +0.000 C 
ENDBRANCH   4  24
TORSDOF 3
ENDMDL
MODEL 9
REMARK VINA RESULT:      -6.7      1.771      3.451
REMARK  Name = 
REMARK  8 active torsions:
REMARK  status: ('A' for Active; 'I' for Inactive)
REMARK    1  A    between atoms: C_1  and  O_2
REMARK    2  A    between atoms: O_2  and  C_3
REMARK    3  A    between atoms: C_6  and  O_7
REMARK    4  A    between atoms: O_7  and  C_8
REMARK    5  A    between atoms: C_12  and  C_13
REMARK    6  A    between atoms: C_18  and  C_19
REMARK    7  A    between atoms: C_20  and  C_21
REMARK    8  A    between atoms: N_23  and  C_24
REMARK                            x       y       z     vdW  Elec       q    Type
REMARK                         _______ _______ _______ _____ _____    ______ ____
ROOT
ATOM      1  C   UNL     1       2.182   3.169  18.816  0.00  0.00    +0.000 A 
ATOM      2  C   UNL     1       3.052   2.170  18.384  0.00  0.00    +0.000 A 
ATOM      3  C   UNL     1       4.180   2.495  17.630  0.00  0.00    +0.000 A 
ATOM      4  C   UNL     1       4.490   3.827  17.307  0.00  0.00    +0.000 A 
ATOM      5  C   UNL     1       3.608   4.851  17.751  0.00  0.00    +0.000 A 
ATOM      6  C   UNL     1       2.450   4.518  18.497  0.00  0.00    +0.000 A 
ATOM      7  C   UNL     1       1.803   5.743  18.810  0.00  0.00    +0.000 A 
ATOM      8  C   UNL     1       2.522   6.794  18.292  0.00  0.00    +0.000 A 
ATOM      9  N   UNL     1       3.643   6.244  17.694  0.00  0.00    +0.000 N 
ATOM     10  C   UNL     1       4.735   7.044  17.187  0.00  0.00    +0.000 C 
ENDROOT
BRANCH   8  11
ATOM     11  C   UNL     1       2.180   8.205  18.372  0.00  0.00    +0.000 C 
ATOM     12  O   UNL     1       2.686   9.039  17.627  0.00  0.00    +0.000 OA
ATOM     13  N   UNL     1       1.285   8.465  19.387  0.00  0.00    +0.000 N 
ATOM     14  C   UNL     1       0.789   9.686  19.753  0.00  0.00    +0.000 A 
ATOM     15  N   UNL     1       0.260   9.870  20.938  0.00  0.00    +0.000 NA
ATOM     16  C   UNL     1      -0.090  11.205  21.094  0.00  0.00    +0.000 A 
ATOM     17  C   UNL     1      -0.571  11.662  22.424  0.00  0.00    +0.000 C 
ATOM     18  C   UNL     1       0.087  11.982  19.961  0.00  0.00    +0.000 A 
ATOM     19  C   UNL     1      -0.178  13.427  19.736  0.00  0.00    +0.000 C 
ATOM     20  S   UNL     1       0.753  11.021  18.704  0.00  0.00    +0.000 S 
ATOM     21  H   UNL     1       1.122   7.749  20.079  0.00  0.00    +0.000 HD
ENDBRANCH   8  11
BRANCH   1  23
ATOM     22  C   UNL     1       1.527   2.688  21.070  0.00  0.00    +0.000 C 
ATOM     23  O   UNL     1       1.201   2.690  19.690  0.00  0.00    +0.000 OA
ENDBRANCH   1  23
BRANCH   4  24
ATOM     24  O   UNL     1       5.781   3.990  16.831  0.00  0.00    +0.000 OA
ATOM     25  C   UNL     1       5.989   3.801  15.440  0.00  0.00    +0.000 C 
ENDBRANCH   4  24
TORSDOF 3
ENDMDL
