MODEL 1
REMARK VINA RESULT:      -9.1      0.000      0.000
REMARK  Name = 
REMARK  4 active torsions:
REMARK  status: ('A' for Active; 'I' for Inactive)
REMARK    1  A    between atoms: C_2  and  C_20
REMARK    2  A    between atoms: C_6  and  C_7
REMARK    3  A    between atoms: C_10  and  C_11
REMARK    4  A    between atoms: C_23  and  N_24
REMARK                            x       y       z     vdW  Elec       q    Type
REMARK                         _______ _______ _______ _____ _____    ______ ____
ROOT
ATOM      1  O   UNL     1       1.682   8.913  19.284  0.00  0.00    +0.000 OA
ATOM      2  C   UNL     1       1.341   8.567  20.408  0.00  0.00    +0.000 C 
ATOM      3  N   UNL     1       1.518   7.335  21.002  0.00  0.00    +0.000 N 
ATOM      4  C   UNL     1       2.159   6.324  20.353  0.00  0.00    +0.000 A 
ATOM      5  N   UNL     1       2.847   6.381  19.247  0.00  0.00    +0.000 NA
ATOM      6  C   UNL     1       3.265   5.116  18.889  0.00  0.00    +0.000 A 
ATOM      7  C   UNL     1       2.873   4.112  19.755  0.00  0.00    +0.000 A 
ATOM      8  S   UNL     1       2.014   4.791  21.082  0.00  0.00    +0.000 S 
ATOM      9  H   UNL     1       1.049   7.096  21.863  0.00  0.00    +0.000 HD
ENDROOT
BRANCH   6  10
ATOM     10  C   UNL     1       4.017   4.928  17.658  0.00  0.00    +0.000 A 
ATOM     11  C   UNL     1       4.358   3.623  17.262  0.00  0.00    +0.000 A 
ATOM     12  C   UNL     1       5.083   3.395  16.088  0.00  0.00    +0.000 A 
ATOM     13  C   UNL     1       5.474   4.473  15.286  0.00  0.00    +0.000 A 
ATOM     14  C   UNL     1       5.114   5.761  15.677  0.00  0.00    +0.000 A 
ATOM     15  F   UNL     1       5.462   6.809  14.918  0.00  0.00    +0.000 F 
ATOM     16  C   UNL     1       4.394   5.999  16.846  0.00  0.00    +0.000 A 
BRANCH  13  17
ATOM     17  C   UNL     1       6.263   4.282  14.028  0.00  0.00    +0.000 C 
ATOM     18  F   UNL     1       7.401   5.034  13.990  0.00  0.00    +0.000 F 
ATOM     19  F   UNL     1       6.670   2.996  13.847  0.00  0.00    +0.000 F 
ATOM     20  F   UNL     1       5.565   4.624  12.910  0.00  0.00    +0.000 F 
ENDBRANCH  13  17
ENDBRANCH   6  10
BRANCH   2  21
ATOM     21  C   UNL     1       0.574   9.528  21.235  0.00  0.00    +0.000 A 
ATOM     22  C   UNL     1       0.531  10.873  20.849  0.00  0.00    +0.000 A 
ATOM     23  C   UNL     1      -0.239  11.785  21.577  0.00  0.00    +0.000 A 
ATOM     24  C   UNL     1      -0.983  11.362  22.684  0.00  0.00    +0.000 A 
ATOM     25  C   UNL     1      -0.858  10.026  23.101  0.00  0.00    +0.000 A 
ATOM     26  C   UNL     1      -0.098   9.108  22.383  0.00  0.00    +0.000 A 
BRANCH  24  27
ATOM     27  N   UNL     1      -1.759  12.280  23.423  0.00  0.00    +0.000 N 
ATOM     28  C   UNL     1      -3.106  12.609  23.144  0.00  0.00    +0.000 A 
ATOM     29  C   UNL     1      -3.895  13.069  24.176  0.00  0.00    +0.000 A 
ATOM     30  C   UNL     1      -5.217  13.312  23.875  0.00  0.00    +0.000 A 
ATOM     31  N   UNL     1      -5.740  13.162  22.644  0.00  0.00    +0.000 NA
ATOM     32  C   UNL     1      -4.887  12.738  21.709  0.00  0.00    +0.000 A 
ATOM     33  N   UNL     1      -3.593  12.448  21.899  0.00  0.00    +0.000 NA
ATOM     34  H   UNL     1      -1.245  13.110  23.702  0.00  0.00    +0.000 HD
ENDBRANCH  24  27
ENDBRANCH   2  21
TORSDOF 4
ENDMDL
MODEL 2
REMARK VINA RESULT:      -9.0      0.298      1.096
REMARK  Name = 
REMARK  4 active torsions:
REMARK  status: ('A' for Active; 'I' for Inactive)
REMARK    1  A    between atoms: C_2  and  C_20
REMARK    2  A    between atoms: C_6  and  C_7
REMARK    3  A    between atoms: C_10  and  C_11
REMARK    4  A    between atoms: C_23  and  N_24
REMARK                            x       y       z     vdW  Elec       q    Type
REMARK                         _______ _______ _______ _____ _____    ______ ____
ROOT
ATOM      1  O   UNL     1       1.525   9.003  19.217  0.00  0.00    +0.000 OA
ATOM      2  C   UNL     1       1.169   8.660  20.337  0.00  0.00    +0.000 C 
ATOM      3  N   UNL     1       1.387   7.448  20.958  0.00  0.00    +0.000 N 
ATOM      4  C   UNL     1       2.098   6.460  20.347  0.00  0.00    +0.000 A 
ATOM      5  N   UNL     1       2.815   6.532  19.261  0.00  0.00    +0.000 NA
ATOM      6  C   UNL     1       3.306   5.284  18.939  0.00  0.00    +0.000 A 
ATOM      7  C   UNL     1       2.938   4.276  19.811  0.00  0.00    +0.000 A 
ATOM      8  S   UNL     1       2.006   4.934  21.100  0.00  0.00    +0.000 S 
ATOM      9  H   UNL     1       0.905   7.201  21.809  0.00  0.00    +0.000 HD
ENDROOT
BRANCH   6  10
ATOM     10  C   UNL     1       4.103   5.112  17.735  0.00  0.00    +0.000 A 
ATOM     11  C   UNL     1       4.596   3.833  17.421  0.00  0.00    +0.000 A 
ATOM     12  C   UNL     1       5.370   3.623  16.276  0.00  0.00    +0.000 A 
ATOM     13  C   UNL     1       5.658   4.692  15.420  0.00  0.00    +0.000 A 
ATOM     14  C   UNL     1       5.149   5.951  15.728  0.00  0.00    +0.000 A 
ATOM     15  F   UNL     1       5.396   6.987  14.916  0.00  0.00    +0.000 F 
ATOM     16  C   UNL     1       4.378   6.172  16.868  0.00  0.00    +0.000 A 
BRANCH  13  17
ATOM     17  C   UNL     1       6.493   4.520  14.189  0.00  0.00    +0.000 C 
ATOM     18  F   UNL     1       5.903   5.025  13.066  0.00  0.00    +0.000 F 
ATOM     19  F   UNL     1       7.701   5.141  14.275  0.00  0.00    +0.000 F 
ATOM     20  F   UNL     1       6.754   3.214  13.905  0.00  0.00    +0.000 F 
ENDBRANCH  13  17
ENDBRANCH   6  10
BRANCH   2  21
ATOM     21  C   UNL     1       0.330   9.595  21.123  0.00  0.00    +0.000 A 
ATOM     22  C   UNL     1      -0.145   9.192  22.376  0.00  0.00    +0.000 A 
ATOM     23  C   UNL     1      -0.884  10.080  23.164  0.00  0.00    +0.000 A 
ATOM     24  C   UNL     1      -1.140  11.382  22.715  0.00  0.00    +0.000 A 
ATOM     25  C   UNL     1      -0.725  11.735  21.421  0.00  0.00    +0.000 A 
ATOM     26  C   UNL     1       0.014  10.861  20.629  0.00  0.00    +0.000 A 
BRANCH  24  27
ATOM     27  N   UNL     1      -1.888  12.280  23.505  0.00  0.00    +0.000 N 
ATOM     28  C   UNL     1      -3.258  12.575  23.315  0.00  0.00    +0.000 A 
ATOM     29  C   UNL     1      -3.990  13.015  24.398  0.00  0.00    +0.000 A 
ATOM     30  C   UNL     1      -5.334  13.224  24.185  0.00  0.00    +0.000 A 
ATOM     31  N   UNL     1      -5.933  13.063  22.990  0.00  0.00    +0.000 NA
ATOM     32  C   UNL     1      -5.133  12.661  22.000  0.00  0.00    +0.000 A 
ATOM     33  N   UNL     1      -3.822  12.403  22.104  0.00  0.00    +0.000 NA
ATOM     34  H   UNL     1      -1.378  13.122  23.751  0.00  0.00    +0.000 HD
ENDBRANCH  24  27
ENDBRANCH   2  21
TORSDOF 4
ENDMDL
MODEL 3
REMARK VINA RESULT:      -8.9      0.559      1.243
REMARK  Name = 
REMARK  4 active torsions:
REMARK  status: ('A' for Active; 'I' for Inactive)
REMARK    1  A    between atoms: C_2  and  C_20
REMARK    2  A    between atoms: C_6  and  C_7
REMARK    3  A    between atoms: C_10  and  C_11
REMARK    4  A    between atoms: C_23  and  N_24
REMARK                            x       y       z     vdW  Elec       q    Type
REMARK                         _______ _______ _______ _____ _____    ______ ____
ROOT
ATOM      1  O   UNL     1       1.758   9.123  19.343  0.00  0.00    +0.000 OA
ATOM      2  C   UNL     1       1.328   8.730  20.419  0.00  0.00    +0.000 C 
ATOM      3  N   UNL     1       1.430   7.465  20.959  0.00  0.00    +0.000 N 
ATOM      4  C   UNL     1       2.094   6.470  20.305  0.00  0.00    +0.000 A 
ATOM      5  N   UNL     1       2.862   6.564  19.256  0.00  0.00    +0.000 NA
ATOM      6  C   UNL     1       3.275   5.309  18.863  0.00  0.00    +0.000 A 
ATOM      7  C   UNL     1       2.796   4.272  19.644  0.00  0.00    +0.000 A 
ATOM      8  S   UNL     1       1.858   4.907  20.941  0.00  0.00    +0.000 S 
ATOM      9  H   UNL     1       0.894   7.195  21.770  0.00  0.00    +0.000 HD
ENDROOT
BRANCH   6  10
ATOM     10  C   UNL     1       4.110   5.162  17.682  0.00  0.00    +0.000 A 
ATOM     11  C   UNL     1       4.466   6.309  16.952  0.00  0.00    +0.000 A 
ATOM     12  C   UNL     1       5.264   6.214  15.808  0.00  0.00    +0.000 A 
ATOM     13  C   UNL     1       5.727   4.965  15.379  0.00  0.00    +0.000 A 
ATOM     14  C   UNL     1       5.385   3.836  16.120  0.00  0.00    +0.000 A 
ATOM     15  F   UNL     1       5.830   2.631  15.740  0.00  0.00    +0.000 F 
ATOM     16  C   UNL     1       4.589   3.919  17.260  0.00  0.00    +0.000 A 
BRANCH  13  17
ATOM     17  C   UNL     1       6.573   4.810  14.153  0.00  0.00    +0.000 C 
ATOM     18  F   UNL     1       7.840   4.382  14.428  0.00  0.00    +0.000 F 
ATOM     19  F   UNL     1       6.067   3.906  13.270  0.00  0.00    +0.000 F 
ATOM     20  F   UNL     1       6.725   5.975  13.464  0.00  0.00    +0.000 F 
ENDBRANCH  13  17
ENDBRANCH   6  10
BRANCH   2  21
ATOM     21  C   UNL     1       0.525   9.669  21.238  0.00  0.00    +0.000 A 
ATOM     22  C   UNL     1       0.365  10.987  20.797  0.00  0.00    +0.000 A 
ATOM     23  C   UNL     1      -0.441  11.873  21.519  0.00  0.00    +0.000 A 
ATOM     24  C   UNL     1      -1.105  11.447  22.676  0.00  0.00    +0.000 A 
ATOM     25  C   UNL     1      -0.862  10.145  23.143  0.00  0.00    +0.000 A 
ATOM     26  C   UNL     1      -0.065   9.254  22.431  0.00  0.00    +0.000 A 
BRANCH  24  27
ATOM     27  N   UNL     1      -1.916  12.338  23.409  0.00  0.00    +0.000 N 
ATOM     28  C   UNL     1      -3.263  12.645  23.102  0.00  0.00    +0.000 A 
ATOM     29  C   UNL     1      -4.086  13.074  24.121  0.00  0.00    +0.000 A 
ATOM     30  C   UNL     1      -5.404  13.295  23.792  0.00  0.00    +0.000 A 
ATOM     31  N   UNL     1      -5.895  13.153  22.547  0.00  0.00    +0.000 NA
ATOM     32  C   UNL     1      -5.011  12.760  21.626  0.00  0.00    +0.000 A 
ATOM     33  N   UNL     1      -3.717  12.493  21.843  0.00  0.00    +0.000 NA
ATOM     34  H   UNL     1      -1.426  13.174  23.712  0.00  0.00    +0.000 HD
ENDBRANCH  24  27
ENDBRANCH   2  21
TORSDOF 4
ENDMDL
MODEL 4
REMARK VINA RESULT:      -8.9      0.591      1.518
REMARK  Name = 
REMARK  4 active torsions:
REMARK  status: ('A' for Active; 'I' for Inactive)
REMARK    1  A    between atoms: C_2  and  C_20
REMARK    2  A    between atoms: C_6  and  C_7
REMARK    3  A    between atoms: C_10  and  C_11
REMARK    4  A    between atoms: C_23  and  N_24
REMARK                            x       y       z     vdW  Elec       q    Type
REMARK                         _______ _______ _______ _____ _____    ______ ____
ROOT
ATOM      1  O   UNL     1       1.660   9.071  19.178  0.00  0.00    +0.000 OA
ATOM      2  C   UNL     1       1.253   8.695  20.270  0.00  0.00    +0.000 C 
ATOM      3  N   UNL     1       1.414   7.453  20.849  0.00  0.00    +0.000 N 
ATOM      4  C   UNL     1       2.119   6.469  20.224  0.00  0.00    +0.000 A 
ATOM      5  N   UNL     1       2.877   6.563  19.168  0.00  0.00    +0.000 NA
ATOM      6  C   UNL     1       3.344   5.315  18.813  0.00  0.00    +0.000 A 
ATOM      7  C   UNL     1       2.916   4.284  19.630  0.00  0.00    +0.000 A 
ATOM      8  S   UNL     1       1.957   4.918  20.911  0.00  0.00    +0.000 S 
ATOM      9  H   UNL     1       0.894   7.186  21.672  0.00  0.00    +0.000 HD
ENDROOT
BRANCH   6  10
ATOM     10  C   UNL     1       4.180   5.167  17.632  0.00  0.00    +0.000 A 
ATOM     11  C   UNL     1       4.519   6.312  16.890  0.00  0.00    +0.000 A 
ATOM     12  C   UNL     1       5.317   6.216  15.746  0.00  0.00    +0.000 A 
ATOM     13  C   UNL     1       5.796   4.969  15.328  0.00  0.00    +0.000 A 
ATOM     14  C   UNL     1       5.470   3.843  16.082  0.00  0.00    +0.000 A 
ATOM     15  F   UNL     1       5.930   2.640  15.713  0.00  0.00    +0.000 F 
ATOM     16  C   UNL     1       4.674   3.927  17.222  0.00  0.00    +0.000 A 
BRANCH  13  17
ATOM     17  C   UNL     1       6.642   4.813  14.103  0.00  0.00    +0.000 C 
ATOM     18  F   UNL     1       6.778   5.971  13.395  0.00  0.00    +0.000 F 
ATOM     19  F   UNL     1       7.911   4.406  14.383  0.00  0.00    +0.000 F 
ATOM     20  F   UNL     1       6.135   3.907  13.222  0.00  0.00    +0.000 F 
ENDBRANCH  13  17
ENDBRANCH   6  10
BRANCH   2  21
ATOM     21  C   UNL     1       0.412   9.622  21.063  0.00  0.00    +0.000 A 
ATOM     22  C   UNL     1      -0.086   9.198  22.300  0.00  0.00    +0.000 A 
ATOM     23  C   UNL     1      -0.826  10.078  23.095  0.00  0.00    +0.000 A 
ATOM     24  C   UNL     1      -1.062  11.391  22.671  0.00  0.00    +0.000 A 
ATOM     25  C   UNL     1      -0.624  11.767  21.390  0.00  0.00    +0.000 A 
ATOM     26  C   UNL     1       0.117  10.901  20.592  0.00  0.00    +0.000 A 
BRANCH  24  27
ATOM     27  N   UNL     1      -1.812  12.281  23.468  0.00  0.00    +0.000 N 
ATOM     28  C   UNL     1      -3.186  12.565  23.289  0.00  0.00    +0.000 A 
ATOM     29  C   UNL     1      -3.914  12.995  24.378  0.00  0.00    +0.000 A 
ATOM     30  C   UNL     1      -5.261  13.193  24.175  0.00  0.00    +0.000 A 
ATOM     31  N   UNL     1      -5.867  13.029  22.985  0.00  0.00    +0.000 NA
ATOM     32  C   UNL     1      -5.071  12.637  21.988  0.00  0.00    +0.000 A 
ATOM     33  N   UNL     1      -3.758  12.391  22.082  0.00  0.00    +0.000 NA
ATOM     34  H   UNL     1      -1.308  13.127  23.713  0.00  0.00    +0.000 HD
ENDBRANCH  24  27
ENDBRANCH   2  21
TORSDOF 4
ENDMDL
MODEL 5
REMARK VINA RESULT:      -8.7      1.221      1.760
REMARK  Name = 
REMARK  4 active torsions:
REMARK  status: ('A' for Active; 'I' for Inactive)
REMARK    1  A    between atoms: C_2  and  C_20
REMARK    2  A    between atoms: C_6  and  C_7
REMARK    3  A    between atoms: C_10  and  C_11
REMARK    4  A    between atoms: C_23  and  N_24
REMARK                            x       y       z     vdW  Elec       q    Type
REMARK                         _______ _______ _______ _____ _____    ______ ____
ROOT
ATOM      1  O   UNL     1       1.568   8.873  19.208  0.00  0.00    +0.000 OA
ATOM      2  C   UNL     1       1.243   8.526  20.336  0.00  0.00    +0.000 C 
ATOM      3  N   UNL     1       1.473   7.310  20.945  0.00  0.00    +0.000 N 
ATOM      4  C   UNL     1       2.161   6.321  20.309  0.00  0.00    +0.000 A 
ATOM      5  N   UNL     1       2.847   6.395  19.203  0.00  0.00    +0.000 NA
ATOM      6  C   UNL     1       3.322   5.147  18.861  0.00  0.00    +0.000 A 
ATOM      7  C   UNL     1       2.975   4.136  19.739  0.00  0.00    +0.000 A 
ATOM      8  S   UNL     1       2.084   4.792  21.057  0.00  0.00    +0.000 S 
ATOM      9  H   UNL     1       1.015   7.061  21.809  0.00  0.00    +0.000 HD
ENDROOT
BRANCH   6  10
ATOM     10  C   UNL     1       4.083   4.977  17.633  0.00  0.00    +0.000 A 
ATOM     11  C   UNL     1       4.472   3.683  17.246  0.00  0.00    +0.000 A 
ATOM     12  C   UNL     1       5.208   3.473  16.076  0.00  0.00    +0.000 A 
ATOM     13  C   UNL     1       5.561   4.559  15.267  0.00  0.00    +0.000 A 
ATOM     14  C   UNL     1       5.154   5.836  15.649  0.00  0.00    +0.000 A 
ATOM     15  F   UNL     1       5.465   6.890  14.883  0.00  0.00    +0.000 F 
ATOM     16  C   UNL     1       4.422   6.056  16.814  0.00  0.00    +0.000 A 
BRANCH  13  17
ATOM     17  C   UNL     1       6.359   4.388  14.012  0.00  0.00    +0.000 C 
ATOM     18  F   UNL     1       6.731   3.095  13.786  0.00  0.00    +0.000 F 
ATOM     19  F   UNL     1       5.682   4.773  12.896  0.00  0.00    +0.000 F 
ATOM     20  F   UNL     1       7.519   5.102  14.021  0.00  0.00    +0.000 F 
ENDBRANCH  13  17
ENDBRANCH   6  10
BRANCH   2  21
ATOM     21  C   UNL     1       0.432   9.462  21.151  0.00  0.00    +0.000 A 
ATOM     22  C   UNL     1      -0.117  10.594  20.538  0.00  0.00    +0.000 A 
ATOM     23  C   UNL     1      -0.939  11.456  21.270  0.00  0.00    +0.000 A 
ATOM     24  C   UNL     1      -1.232  11.188  22.613  0.00  0.00    +0.000 A 
ATOM     25  C   UNL     1      -0.602  10.092  23.227  0.00  0.00    +0.000 A 
ATOM     26  C   UNL     1       0.215   9.226  22.508  0.00  0.00    +0.000 A 
BRANCH  24  27
ATOM     27  N   UNL     1      -2.057  12.057  23.357  0.00  0.00    +0.000 N 
ATOM     28  C   UNL     1      -1.893  13.461  23.431  0.00  0.00    +0.000 A 
ATOM     29  C   UNL     1      -2.998  14.234  23.717  0.00  0.00    +0.000 A 
ATOM     30  C   UNL     1      -2.809  15.598  23.711  0.00  0.00    +0.000 A 
ATOM     31  N   UNL     1      -1.618  16.184  23.486  0.00  0.00    +0.000 NA
ATOM     32  C   UNL     1      -0.606  15.347  23.245  0.00  0.00    +0.000 A 
ATOM     33  N   UNL     1      -0.686  14.010  23.202  0.00  0.00    +0.000 NA
ATOM     34  H   UNL     1      -2.321  11.686  24.264  0.00  0.00    +0.000 HD
ENDBRANCH  24  27
ENDBRANCH   2  21
TORSDOF 4
ENDMDL
MODEL 6
REMARK VINA RESULT:      -8.5      1.324      1.919
REMARK  Name = 
REMARK  4 active torsions:
REMARK  status: ('A' for Active; 'I' for Inactive)
REMARK    1  A    between atoms: C_2  and  C_20
REMARK    2  A    between atoms: C_6  and  C_7
REMARK    3  A    between atoms: C_10  and  C_11
REMARK    4  A    between atoms: C_23  and  N_24
REMARK                            x       y       z     vdW  Elec       q    Type
REMARK                         _______ _______ _______ _____ _____    ______ ____
ROOT
ATOM      1  O   UNL     1       1.479   8.834  19.099  0.00  0.00    +0.000 OA
ATOM      2  C   UNL     1       1.192   8.524  20.248  0.00  0.00    +0.000 C 
ATOM      3  N   UNL     1       1.484   7.345  20.902  0.00  0.00    +0.000 N 
ATOM      4  C   UNL     1       2.195   6.356  20.293  0.00  0.00    +0.000 A 
ATOM      5  N   UNL     1       2.853   6.408  19.169  0.00  0.00    +0.000 NA
ATOM      6  C   UNL     1       3.368   5.165  18.869  0.00  0.00    +0.000 A 
ATOM      7  C   UNL     1       3.080   4.181  19.796  0.00  0.00    +0.000 A 
ATOM      8  S   UNL     1       2.194   4.859  21.107  0.00  0.00    +0.000 S 
ATOM      9  H   UNL     1       1.054   7.116  21.787  0.00  0.00    +0.000 HD
ENDROOT
BRANCH   6  10
ATOM     10  C   UNL     1       4.108   4.971  17.631  0.00  0.00    +0.000 A 
ATOM     11  C   UNL     1       4.464   3.666  17.248  0.00  0.00    +0.000 A 
ATOM     12  C   UNL     1       5.178   3.434  16.069  0.00  0.00    +0.000 A 
ATOM     13  C   UNL     1       5.544   4.507  15.248  0.00  0.00    +0.000 A 
ATOM     14  C   UNL     1       5.170   5.795  15.627  0.00  0.00    +0.000 A 
ATOM     15  F   UNL     1       5.493   6.837  14.851  0.00  0.00    +0.000 F 
ATOM     16  C   UNL     1       4.460   6.037  16.801  0.00  0.00    +0.000 A 
BRANCH  13  17
ATOM     17  C   UNL     1       6.321   4.311  13.983  0.00  0.00    +0.000 C 
ATOM     18  F   UNL     1       7.462   5.059  13.934  0.00  0.00    +0.000 F 
ATOM     19  F   UNL     1       6.721   3.023  13.800  0.00  0.00    +0.000 F 
ATOM     20  F   UNL     1       5.614   4.654  12.871  0.00  0.00    +0.000 F 
ENDBRANCH  13  17
ENDBRANCH   6  10
BRANCH   2  21
ATOM     21  C   UNL     1       0.364   9.462  21.041  0.00  0.00    +0.000 A 
ATOM     22  C   UNL     1       0.193   9.226  22.410  0.00  0.00    +0.000 A 
ATOM     23  C   UNL     1      -0.531  10.132  23.191  0.00  0.00    +0.000 A 
ATOM     24  C   UNL     1      -1.074  11.288  22.617  0.00  0.00    +0.000 A 
ATOM     25  C   UNL     1      -0.960  11.460  21.228  0.00  0.00    +0.000 A 
ATOM     26  C   UNL     1      -0.240  10.567  20.441  0.00  0.00    +0.000 A 
BRANCH  24  27
ATOM     27  N   UNL     1      -1.808  12.203  23.402  0.00  0.00    +0.000 N 
ATOM     28  C   UNL     1      -1.609  13.604  23.407  0.00  0.00    +0.000 A 
ATOM     29  C   UNL     1      -2.665  14.414  23.766  0.00  0.00    +0.000 A 
ATOM     30  C   UNL     1      -2.449  15.772  23.691  0.00  0.00    +0.000 A 
ATOM     31  N   UNL     1      -1.273  16.320  23.334  0.00  0.00    +0.000 NA
ATOM     32  C   UNL     1      -0.306  15.450  23.031  0.00  0.00    +0.000 A 
ATOM     33  N   UNL     1      -0.417  14.116  23.046  0.00  0.00    +0.000 NA
ATOM     34  H   UNL     1      -1.992  11.871  24.343  0.00  0.00    +0.000 HD
ENDBRANCH  24  27
ENDBRANCH   2  21
TORSDOF 4
ENDMDL
MODEL 7
REMARK VINA RESULT:      -8.5      7.657      8.405
REMARK  Name = 
REMARK  4 active torsions:
REMARK  status: ('A' for Active; 'I' for Inactive)
REMARK    1  A    between atoms: C_2  and  C_20
REMARK    2  A    between atoms: C_6  and  C_7
REMARK    3  A    between atoms: C_10  and  C_11
REMARK    4  A    between atoms: C_23  and  N_24
REMARK                            x       y       z     vdW  Elec       q    Type
REMARK                         _______ _______ _______ _____ _____    ______ ____
ROOT
ATOM      1  O   UNL     1       8.116   9.389  16.946  0.00  0.00    +0.000 OA
ATOM      2  C   UNL     1       8.530   9.232  18.087  0.00  0.00    +0.000 C 
ATOM      3  N   UNL     1       8.500   8.079  18.844  0.00  0.00    +0.000 N 
ATOM      4  C   UNL     1       7.996   6.918  18.342  0.00  0.00    +0.000 A 
ATOM      5  N   UNL     1       7.673   6.642  17.110  0.00  0.00    +0.000 NA
ATOM      6  C   UNL     1       7.125   5.379  17.040  0.00  0.00    +0.000 A 
ATOM      7  C   UNL     1       7.045   4.716  18.251  0.00  0.00    +0.000 A 
ATOM      8  S   UNL     1       7.738   5.686  19.492  0.00  0.00    +0.000 S 
ATOM      9  H   UNL     1       8.706   8.095  19.832  0.00  0.00    +0.000 HD
ENDROOT
BRANCH   6  10
ATOM     10  C   UNL     1       6.648   4.870  15.764  0.00  0.00    +0.000 A 
ATOM     11  C   UNL     1       5.394   4.236  15.708  0.00  0.00    +0.000 A 
ATOM     12  C   UNL     1       4.899   3.728  14.504  0.00  0.00    +0.000 A 
ATOM     13  C   UNL     1       5.649   3.853  13.329  0.00  0.00    +0.000 A 
ATOM     14  C   UNL     1       6.882   4.501  13.390  0.00  0.00    +0.000 A 
ATOM     15  F   UNL     1       7.612   4.648  12.277  0.00  0.00    +0.000 F 
ATOM     16  C   UNL     1       7.385   5.008  14.586  0.00  0.00    +0.000 A 
BRANCH  13  17
ATOM     17  C   UNL     1       5.168   3.315  12.018  0.00  0.00    +0.000 C 
ATOM     18  F   UNL     1       5.394   4.165  10.974  0.00  0.00    +0.000 F 
ATOM     19  F   UNL     1       5.770   2.145  11.671  0.00  0.00    +0.000 F 
ATOM     20  F   UNL     1       3.828   3.074  12.005  0.00  0.00    +0.000 F 
ENDBRANCH  13  17
ENDBRANCH   6  10
BRANCH   2  21
ATOM     21  C   UNL     1       9.060  10.412  18.810  0.00  0.00    +0.000 A 
ATOM     22  C   UNL     1       9.343  11.578  18.090  0.00  0.00    +0.000 A 
ATOM     23  C   UNL     1       9.782  12.724  18.760  0.00  0.00    +0.000 A 
ATOM     24  C   UNL     1       9.927  12.721  20.153  0.00  0.00    +0.000 A 
ATOM     25  C   UNL     1       9.716  11.516  20.842  0.00  0.00    +0.000 A 
ATOM     26  C   UNL     1       9.276  10.370  20.187  0.00  0.00    +0.000 A 
BRANCH  24  27
ATOM     27  N   UNL     1      10.373  13.875  20.832  0.00  0.00    +0.000 N 
ATOM     28  C   UNL     1       9.544  14.744  21.579  0.00  0.00    +0.000 A 
ATOM     29  C   UNL     1      10.116  15.485  22.591  0.00  0.00    +0.000 A 
ATOM     30  C   UNL     1       9.262  16.265  23.337  0.00  0.00    +0.000 A 
ATOM     31  N   UNL     1       7.940  16.360  23.099  0.00  0.00    +0.000 NA
ATOM     32  C   UNL     1       7.489  15.624  22.081  0.00  0.00    +0.000 A 
ATOM     33  N   UNL     1       8.226  14.814  21.310  0.00  0.00    +0.000 NA
ATOM     34  H   UNL     1      11.062  14.408  20.311  0.00  0.00    +0.000 HD
ENDBRANCH  24  27
ENDBRANCH   2  21
TORSDOF 4
ENDMDL
MODEL 8
REMARK VINA RESULT:      -8.5      1.367      2.178
REMARK  Name = 
REMARK  4 active torsions:
REMARK  status: ('A' for Active; 'I' for Inactive)
REMARK    1  A    between atoms: C_2  and  C_20
REMARK    2  A    between atoms: C_6  and  C_7
REMARK    3  A    between atoms: C_10  and  C_11
REMARK    4  A    between atoms: C_23  and  N_24
REMARK                            x       y       z     vdW  Elec       q    Type
REMARK                         _______ _______ _______ _____ _____    ______ ____
ROOT
ATOM      1  O   UNL     1       1.578   9.079  19.239  0.00  0.00    +0.000 OA
ATOM      2  C   UNL     1       1.180   8.708  20.335  0.00  0.00    +0.000 C 
ATOM      3  N   UNL     1       1.355   7.473  20.923  0.00  0.00    +0.000 N 
ATOM      4  C   UNL     1       2.063   6.489  20.302  0.00  0.00    +0.000 A 
ATOM      5  N   UNL     1       2.815   6.580  19.241  0.00  0.00    +0.000 NA
ATOM      6  C   UNL     1       3.289   5.333  18.893  0.00  0.00    +0.000 A 
ATOM      7  C   UNL     1       2.874   4.306  19.720  0.00  0.00    +0.000 A 
ATOM      8  S   UNL     1       1.917   4.942  21.002  0.00  0.00    +0.000 S 
ATOM      9  H   UNL     1       0.842   7.208  21.751  0.00  0.00    +0.000 HD
ENDROOT
BRANCH   6  10
ATOM     10  C   UNL     1       4.120   5.183  17.708  0.00  0.00    +0.000 A 
ATOM     11  C   UNL     1       4.490   6.330  16.985  0.00  0.00    +0.000 A 
ATOM     12  C   UNL     1       5.283   6.232  15.839  0.00  0.00    +0.000 A 
ATOM     13  C   UNL     1       5.727   4.979  15.399  0.00  0.00    +0.000 A 
ATOM     14  C   UNL     1       5.372   3.850  16.134  0.00  0.00    +0.000 A 
ATOM     15  F   UNL     1       5.798   2.641  15.744  0.00  0.00    +0.000 F 
ATOM     16  C   UNL     1       4.580   3.937  17.277  0.00  0.00    +0.000 A 
BRANCH  13  17
ATOM     17  C   UNL     1       6.568   4.821  14.171  0.00  0.00    +0.000 C 
ATOM     18  F   UNL     1       6.023   3.968  13.255  0.00  0.00    +0.000 F 
ATOM     19  F   UNL     1       6.762   5.992  13.506  0.00  0.00    +0.000 F 
ATOM     20  F   UNL     1       7.807   4.322  14.438  0.00  0.00    +0.000 F 
ENDBRANCH  13  17
ENDBRANCH   6  10
BRANCH   2  21
ATOM     21  C   UNL     1       0.337   9.636  21.126  0.00  0.00    +0.000 A 
ATOM     22  C   UNL     1      -0.284  10.708  20.477  0.00  0.00    +0.000 A 
ATOM     23  C   UNL     1      -1.136  11.559  21.188  0.00  0.00    +0.000 A 
ATOM     24  C   UNL     1      -1.386  11.337  22.548  0.00  0.00    +0.000 A 
ATOM     25  C   UNL     1      -0.686  10.305  23.195  0.00  0.00    +0.000 A 
ATOM     26  C   UNL     1       0.161   9.451  22.496  0.00  0.00    +0.000 A 
BRANCH  24  27
ATOM     27  N   UNL     1      -2.242  12.195  23.271  0.00  0.00    +0.000 N 
ATOM     28  C   UNL     1      -2.019  13.577  23.470  0.00  0.00    +0.000 A 
ATOM     29  C   UNL     1      -3.109  14.389  23.704  0.00  0.00    +0.000 A 
ATOM     30  C   UNL     1      -2.855  15.737  23.823  0.00  0.00    +0.000 A 
ATOM     31  N   UNL     1      -1.620  16.270  23.765  0.00  0.00    +0.000 NA
ATOM     32  C   UNL     1      -0.631  15.397  23.562  0.00  0.00    +0.000 A 
ATOM     33  N   UNL     1      -0.769  14.074  23.407  0.00  0.00    +0.000 NA
ATOM     34  H   UNL     1      -2.616  11.774  24.116  0.00  0.00    +0.000 HD
ENDBRANCH  24  27
ENDBRANCH   2  21
TORSDOF 4
ENDMDL
MODEL 9
REMARK VINA RESULT:      -8.4      1.824      2.427
REMARK  Name = 
REMARK  4 active torsions:
REMARK  status: ('A' for Active; 'I' for Inactive)
REMARK    1  A    between atoms: C_2  and  C_20
REMARK    2  A    between atoms: C_6  and  C_7
REMARK    3  A    between atoms: C_10  and  C_11
REMARK    4  A    between atoms: C_23  and  N_24
REMARK                            x       y       z     vdW  Elec       q    Type
REMARK                         _______ _______ _______ _____ _____    ______ ____
ROOT
ATOM      1  O   UNL     1       2.535   8.306  18.334  0.00  0.00    +0.000 OA
ATOM      2  C   UNL     1       2.249   7.836  19.427  0.00  0.00    +0.000 C 
ATOM      3  N   UNL     1       2.578   6.591  19.923  0.00  0.00    +0.000 N 
ATOM      4  C   UNL     1       3.331   5.719  19.196  0.00  0.00    +0.000 A 
ATOM      5  N   UNL     1       3.996   5.944  18.099  0.00  0.00    +0.000 NA
ATOM      6  C   UNL     1       4.560   4.771  17.642  0.00  0.00    +0.000 A 
ATOM      7  C   UNL     1       4.301   3.662  18.427  0.00  0.00    +0.000 A 
ATOM      8  S   UNL     1       3.378   4.127  19.804  0.00  0.00    +0.000 S 
ATOM      9  H   UNL     1       2.150   6.231  20.762  0.00  0.00    +0.000 HD
ENDROOT
BRANCH   6  10
ATOM     10  C   UNL     1       5.318   4.771  16.401  0.00  0.00    +0.000 A 
ATOM     11  C   UNL     1       6.634   5.264  16.406  0.00  0.00    +0.000 A 
ATOM     12  C   UNL     1       7.398   5.287  15.235  0.00  0.00    +0.000 A 
ATOM     13  C   UNL     1       6.856   4.807  14.037  0.00  0.00    +0.000 A 
ATOM     14  C   UNL     1       5.558   4.302  14.046  0.00  0.00    +0.000 A 
ATOM     15  F   UNL     1       5.023   3.822  12.916  0.00  0.00    +0.000 F 
ATOM     16  C   UNL     1       4.788   4.277  15.207  0.00  0.00    +0.000 A 
BRANCH  13  17
ATOM     17  C   UNL     1       7.629   4.822  12.754  0.00  0.00    +0.000 C 
ATOM     18  F   UNL     1       7.119   5.689  11.832  0.00  0.00    +0.000 F 
ATOM     19  F   UNL     1       8.928   5.191  12.921  0.00  0.00    +0.000 F 
ATOM     20  F   UNL     1       7.652   3.608  12.137  0.00  0.00    +0.000 F 
ENDBRANCH  13  17
ENDBRANCH   6  10
BRANCH   2  21
ATOM     21  C   UNL     1       1.379   8.630  20.327  0.00  0.00    +0.000 A 
ATOM     22  C   UNL     1       0.449   9.512  19.766  0.00  0.00    +0.000 A 
ATOM     23  C   UNL     1      -0.427  10.223  20.593  0.00  0.00    +0.000 A 
ATOM     24  C   UNL     1      -0.391  10.048  21.982  0.00  0.00    +0.000 A 
ATOM     25  C   UNL     1       0.606   9.221  22.525  0.00  0.00    +0.000 A 
ATOM     26  C   UNL     1       1.480   8.506  21.712  0.00  0.00    +0.000 A 
BRANCH  24  27
ATOM     27  N   UNL     1      -1.271  10.767  22.819  0.00  0.00    +0.000 N 
ATOM     28  C   UNL     1      -1.352  12.178  22.884  0.00  0.00    +0.000 A 
ATOM     29  C   UNL     1      -2.538  12.747  23.298  0.00  0.00    +0.000 A 
ATOM     30  C   UNL     1      -2.596  14.122  23.280  0.00  0.00    +0.000 A 
ATOM     31  N   UNL     1      -1.561  14.907  22.928  0.00  0.00    +0.000 NA
ATOM     32  C   UNL     1      -0.450  14.260  22.570  0.00  0.00    +0.000 A 
ATOM     33  N   UNL     1      -0.295  12.930  22.525  0.00  0.00    +0.000 NA
ATOM     34  H   UNL     1      -1.361  10.367  23.748  0.00  0.00    +0.000 HD
ENDBRANCH  24  27
ENDBRANCH   2  21
TORSDOF 4
ENDMDL
