MODEL 1
REMARK VINA RESULT:      -8.4      0.000      0.000
REMARK  Name = 
REMARK  9 active torsions:
REMARK  status: ('A' for Active; 'I' for Inactive)
REMARK    1  A    between atoms: C_1  and  C_2
REMARK    2  A    between atoms: C_2  and  O_3
REMARK    3  A    between atoms: O_3  and  C_4
REMARK    4  A    between atoms: C_4  and  O_5
REMARK    5  A    between atoms: C_4  and  C_8
REMARK    6  A    between atoms: O_5  and  C_6
REMARK    7  A    between atoms: C_6  and  C_7
REMARK    8  A    between atoms: N_10  and  C_11
REMARK    9  A    between atoms: C_11  and  C_12
REMARK                            x       y       z     vdW  Elec       q    Type
REMARK                         _______ _______ _______ _____ _____    ______ ____
ROOT
ATOM      1  C   UNL     1       6.447   5.402  16.489  0.00  0.00    +0.000 A 
ATOM      2  C   UNL     1       5.575   6.465  16.226  0.00  0.00    +0.000 A 
ATOM      3  C   UNL     1       4.389   6.601  16.952  0.00  0.00    +0.000 A 
ATOM      4  C   UNL     1       4.058   5.662  17.934  0.00  0.00    +0.000 A 
ATOM      5  C   UNL     1       4.938   4.625  18.231  0.00  0.00    +0.000 A 
ATOM      6  C   UNL     1       6.138   4.499  17.519  0.00  0.00    +0.000 A 
ATOM      7  C   UNL     1       4.597   3.618  19.253  0.00  0.00    +0.000 C 
ATOM      8  O   UNL     1       5.405   2.749  19.557  0.00  0.00    +0.000 OA
ATOM      9  C   UNL     1       3.260   3.660  19.878  0.00  0.00    +0.000 A 
ATOM     10  C   UNL     1       2.886   2.656  20.779  0.00  0.00    +0.000 A 
ATOM     11  C   UNL     1       1.608   2.665  21.339  0.00  0.00    +0.000 A 
ATOM     12  C   UNL     1       0.703   3.671  21.001  0.00  0.00    +0.000 A 
ATOM     13  C   UNL     1       1.078   4.679  20.111  0.00  0.00    +0.000 A 
ATOM     14  C   UNL     1       2.362   4.676  19.552  0.00  0.00    +0.000 A 
ATOM     15  C   UNL     1       2.754   5.748  18.618  0.00  0.00    +0.000 C 
ATOM     16  O   UNL     1       1.998   6.687  18.393  0.00  0.00    +0.000 OA
ENDROOT
BRANCH   1  17
ATOM     17  C   UNL     1       7.631   5.154  15.590  0.00  0.00    +0.000 C 
BRANCH  17  20
ATOM     18  C   UNL     1       6.218   3.904  12.536  0.00  0.00    +0.000 A 
ATOM     19  C   UNL     1       6.118   4.034  13.909  0.00  0.00    +0.000 A 
ATOM     20  N   UNL     1       7.176   4.820  14.254  0.00  0.00    +0.000 N 
ATOM     21  N   UNL     1       7.822   5.269  13.168  0.00  0.00    +0.000 NA
ATOM     22  N   UNL     1       7.253   4.710  12.109  0.00  0.00    +0.000 NA
BRANCH  18  23
ATOM     23  C   UNL     1       5.405   3.064  11.573  0.00  0.00    +0.000 C 
BRANCH  23  24
ATOM     24  O   UNL     1       5.549   1.675  11.915  0.00  0.00    +0.000 OA
BRANCH  24  26
ATOM     25  C   UNL     1       6.137  -0.534  11.258  0.00  0.00    +0.000 C 
ATOM     26  C   UNL     1       6.424   0.948  11.067  0.00  0.00    +0.000 C 
ENDBRANCH  24  26
ENDBRANCH  23  24
BRANCH  23  27
ATOM     27  O   UNL     1       4.005   3.423  11.563  0.00  0.00    +0.000 OA
BRANCH  27  28
ATOM     28  C   UNL     1       3.324   3.063  10.365  0.00  0.00    +0.000 C 
ATOM     29  C   UNL     1       2.915   4.301   9.594  0.00  0.00    +0.000 C 
ENDBRANCH  27  28
ENDBRANCH  23  27
ENDBRANCH  18  23
ENDBRANCH  17  20
ENDBRANCH   1  17
TORSDOF 7
ENDMDL
MODEL 2
REMARK VINA RESULT:      -8.1      2.240      3.954
REMARK  Name = 
REMARK  9 active torsions:
REMARK  status: ('A' for Active; 'I' for Inactive)
REMARK    1  A    between atoms: C_1  and  C_2
REMARK    2  A    between atoms: C_2  and  O_3
REMARK    3  A    between atoms: O_3  and  C_4
REMARK    4  A    between atoms: C_4  and  O_5
REMARK    5  A    between atoms: C_4  and  C_8
REMARK    6  A    between atoms: O_5  and  C_6
REMARK    7  A    between atoms: C_6  and  C_7
REMARK    8  A    between atoms: N_10  and  C_11
REMARK    9  A    between atoms: C_11  and  C_12
REMARK                            x       y       z     vdW  Elec       q    Type
REMARK                         _______ _______ _______ _____ _____    ______ ____
ROOT
ATOM      1  C   UNL     1       5.428   4.972  18.011  0.00  0.00    +0.000 A 
ATOM      2  C   UNL     1       4.944   4.300  19.141  0.00  0.00    +0.000 A 
ATOM      3  C   UNL     1       3.831   4.787  19.829  0.00  0.00    +0.000 A 
ATOM      4  C   UNL     1       3.204   5.963  19.403  0.00  0.00    +0.000 A 
ATOM      5  C   UNL     1       3.652   6.615  18.258  0.00  0.00    +0.000 A 
ATOM      6  C   UNL     1       4.755   6.116  17.554  0.00  0.00    +0.000 A 
ATOM      7  C   UNL     1       3.011   7.863  17.804  0.00  0.00    +0.000 C 
ATOM      8  O   UNL     1       3.366   8.395  16.759  0.00  0.00    +0.000 OA
ATOM      9  C   UNL     1       1.962   8.473  18.644  0.00  0.00    +0.000 A 
ATOM     10  C   UNL     1       1.411   9.707  18.276  0.00  0.00    +0.000 A 
ATOM     11  C   UNL     1       0.450  10.310  19.089  0.00  0.00    +0.000 A 
ATOM     12  C   UNL     1       0.040   9.687  20.267  0.00  0.00    +0.000 A 
ATOM     13  C   UNL     1       0.579   8.451  20.630  0.00  0.00    +0.000 A 
ATOM     14  C   UNL     1       1.539   7.841  19.813  0.00  0.00    +0.000 A 
ATOM     15  C   UNL     1       2.100   6.532  20.199  0.00  0.00    +0.000 C 
ATOM     16  O   UNL     1       1.672   5.934  21.180  0.00  0.00    +0.000 OA
ENDROOT
BRANCH   1  17
ATOM     17  C   UNL     1       6.729   4.549  17.379  0.00  0.00    +0.000 C 
BRANCH  17  20
ATOM     18  C   UNL     1       6.168   3.965  13.881  0.00  0.00    +0.000 A 
ATOM     19  C   UNL     1       5.814   3.689  15.189  0.00  0.00    +0.000 A 
ATOM     20  N   UNL     1       6.591   4.523  15.934  0.00  0.00    +0.000 N 
ATOM     21  N   UNL     1       7.289   5.363  15.156  0.00  0.00    +0.000 NA
ATOM     22  N   UNL     1       7.047   5.027  13.896  0.00  0.00    +0.000 NA
BRANCH  18  23
ATOM     23  C   UNL     1       5.741   3.294  12.592  0.00  0.00    +0.000 C 
BRANCH  23  24
ATOM     24  O   UNL     1       4.520   3.893  12.126  0.00  0.00    +0.000 OA
BRANCH  24  26
ATOM     25  C   UNL     1       3.262   4.002  10.109  0.00  0.00    +0.000 C 
ATOM     26  C   UNL     1       3.783   3.094  11.214  0.00  0.00    +0.000 C 
ENDBRANCH  24  26
ENDBRANCH  23  24
BRANCH  23  27
ATOM     27  O   UNL     1       6.751   3.373  11.561  0.00  0.00    +0.000 OA
BRANCH  27  28
ATOM     28  C   UNL     1       7.495   2.171  11.387  0.00  0.00    +0.000 C 
ATOM     29  C   UNL     1       6.577   1.031  10.997  0.00  0.00    +0.000 C 
ENDBRANCH  27  28
ENDBRANCH  23  27
ENDBRANCH  18  23
ENDBRANCH  17  20
ENDBRANCH   1  17
TORSDOF 7
ENDMDL
MODEL 3
REMARK VINA RESULT:      -8.0      5.048      7.186
REMARK  Name = 
REMARK  9 active torsions:
REMARK  status: ('A' for Active; 'I' for Inactive)
REMARK    1  A    between atoms: C_1  and  C_2
REMARK    2  A    between atoms: C_2  and  O_3
REMARK    3  A    between atoms: O_3  and  C_4
REMARK    4  A    between atoms: C_4  and  O_5
REMARK    5  A    between atoms: C_4  and  C_8
REMARK    6  A    between atoms: O_5  and  C_6
REMARK    7  A    between atoms: C_6  and  C_7
REMARK    8  A    between atoms: N_10  and  C_11
REMARK    9  A    between atoms: C_11  and  C_12
REMARK                            x       y       z     vdW  Elec       q    Type
REMARK                         _______ _______ _______ _____ _____    ______ ____
ROOT
ATOM      1  C   UNL     1       1.965   7.475  18.811  0.00  0.00    +0.000 A 
ATOM      2  C   UNL     1       2.121   8.440  17.807  0.00  0.00    +0.000 A 
ATOM      3  C   UNL     1       1.724   9.760  18.031  0.00  0.00    +0.000 A 
ATOM      4  C   UNL     1       1.150  10.122  19.255  0.00  0.00    +0.000 A 
ATOM      5  C   UNL     1       1.029   9.179  20.271  0.00  0.00    +0.000 A 
ATOM      6  C   UNL     1       1.445   7.860  20.057  0.00  0.00    +0.000 A 
ATOM      7  C   UNL     1       0.412   9.540  21.562  0.00  0.00    +0.000 C 
ATOM      8  O   UNL     1       0.370   8.725  22.475  0.00  0.00    +0.000 OA
ATOM      9  C   UNL     1      -0.177  10.884  21.720  0.00  0.00    +0.000 A 
ATOM     10  C   UNL     1      -0.850  11.210  22.904  0.00  0.00    +0.000 A 
ATOM     11  C   UNL     1      -1.448  12.463  23.042  0.00  0.00    +0.000 A 
ATOM     12  C   UNL     1      -1.377  13.391  22.003  0.00  0.00    +0.000 A 
ATOM     13  C   UNL     1      -0.697  13.072  20.826  0.00  0.00    +0.000 A 
ATOM     14  C   UNL     1      -0.092  11.817  20.687  0.00  0.00    +0.000 A 
ATOM     15  C   UNL     1       0.632  11.490  19.443  0.00  0.00    +0.000 C 
ATOM     16  O   UNL     1       0.781  12.334  18.567  0.00  0.00    +0.000 OA
ENDROOT
BRANCH   1  17
ATOM     17  C   UNL     1       2.224   6.022  18.509  0.00  0.00    +0.000 C 
BRANCH  17  20
ATOM     18  C   UNL     1       5.720   5.311  18.101  0.00  0.00    +0.000 A 
ATOM     19  C   UNL     1       4.554   5.821  17.559  0.00  0.00    +0.000 A 
ATOM     20  N   UNL     1       3.648   5.750  18.574  0.00  0.00    +0.000 N 
ATOM     21  N   UNL     1       4.227   5.352  19.716  0.00  0.00    +0.000 NA
ATOM     22  N   UNL     1       5.494   5.070  19.441  0.00  0.00    +0.000 NA
BRANCH  18  23
ATOM     23  C   UNL     1       7.056   5.021  17.448  0.00  0.00    +0.000 C 
BRANCH  23  24
ATOM     24  O   UNL     1       6.849   4.196  16.290  0.00  0.00    +0.000 OA
BRANCH  24  26
ATOM     25  C   UNL     1       6.316   4.031  13.977  0.00  0.00    +0.000 C 
ATOM     26  C   UNL     1       6.985   4.875  15.051  0.00  0.00    +0.000 C 
ENDBRANCH  24  26
ENDBRANCH  23  24
BRANCH  23  27
ATOM     27  O   UNL     1       7.765   6.223  17.074  0.00  0.00    +0.000 OA
BRANCH  27  28
ATOM     28  C   UNL     1       7.973   7.131  18.152  0.00  0.00    +0.000 C 
ATOM     29  C   UNL     1       7.884   8.563  17.664  0.00  0.00    +0.000 C 
ENDBRANCH  27  28
ENDBRANCH  23  27
ENDBRANCH  18  23
ENDBRANCH  17  20
ENDBRANCH   1  17
TORSDOF 7
ENDMDL
MODEL 4
REMARK VINA RESULT:      -8.0      5.150      7.376
REMARK  Name = 
REMARK  9 active torsions:
REMARK  status: ('A' for Active; 'I' for Inactive)
REMARK    1  A    between atoms: C_1  and  C_2
REMARK    2  A    between atoms: C_2  and  O_3
REMARK    3  A    between atoms: O_3  and  C_4
REMARK    4  A    between atoms: C_4  and  O_5
REMARK    5  A    between atoms: C_4  and  C_8
REMARK    6  A    between atoms: O_5  and  C_6
REMARK    7  A    between atoms: C_6  and  C_7
REMARK    8  A    between atoms: N_10  and  C_11
REMARK    9  A    between atoms: C_11  and  C_12
REMARK                            x       y       z     vdW  Elec       q    Type
REMARK                         _______ _______ _______ _____ _____    ______ ____
ROOT
ATOM      1  C   UNL     1       1.876   7.243  20.079  0.00  0.00    +0.000 A 
ATOM      2  C   UNL     1       2.017   7.938  18.871  0.00  0.00    +0.000 A 
ATOM      3  C   UNL     1       1.532   9.241  18.746  0.00  0.00    +0.000 A 
ATOM      4  C   UNL     1       0.884   9.854  19.824  0.00  0.00    +0.000 A 
ATOM      5  C   UNL     1       0.775   9.186  21.041  0.00  0.00    +0.000 A 
ATOM      6  C   UNL     1       1.280   7.887  21.175  0.00  0.00    +0.000 A 
ATOM      7  C   UNL     1       0.081   9.812  22.182  0.00  0.00    +0.000 C 
ATOM      8  O   UNL     1       0.049   9.248  23.269  0.00  0.00    +0.000 OA
ATOM      9  C   UNL     1      -0.595  11.109  21.983  0.00  0.00    +0.000 A 
ATOM     10  C   UNL     1      -1.337  11.670  23.029  0.00  0.00    +0.000 A 
ATOM     11  C   UNL     1      -2.015  12.874  22.833  0.00  0.00    +0.000 A 
ATOM     12  C   UNL     1      -1.955  13.517  21.597  0.00  0.00    +0.000 A 
ATOM     13  C   UNL     1      -1.206  12.965  20.556  0.00  0.00    +0.000 A 
ATOM     14  C   UNL     1      -0.520  11.760  20.752  0.00  0.00    +0.000 A 
ATOM     15  C   UNL     1       0.276  11.186  19.651  0.00  0.00    +0.000 C 
ATOM     16  O   UNL     1       0.412  11.796  18.596  0.00  0.00    +0.000 OA
ENDROOT
BRANCH   1  17
ATOM     17  C   UNL     1       2.236   5.782  20.158  0.00  0.00    +0.000 C 
BRANCH  17  20
ATOM     18  C   UNL     1       5.046   5.332  17.968  0.00  0.00    +0.000 A 
ATOM     19  C   UNL     1       4.581   5.630  19.236  0.00  0.00    +0.000 A 
ATOM     20  N   UNL     1       3.232   5.463  19.152  0.00  0.00    +0.000 N 
ATOM     21  N   UNL     1       2.877   4.965  17.959  0.00  0.00    +0.000 NA
ATOM     22  N   UNL     1       3.976   4.888  17.219  0.00  0.00    +0.000 NA
BRANCH  18  23
ATOM     23  C   UNL     1       6.442   5.437  17.390  0.00  0.00    +0.000 C 
BRANCH  23  24
ATOM     24  O   UNL     1       6.663   4.348  16.480  0.00  0.00    +0.000 OA
BRANCH  24  26
ATOM     25  C   UNL     1       5.906   4.117  14.236  0.00  0.00    +0.000 C 
ATOM     26  C   UNL     1       6.952   4.742  15.148  0.00  0.00    +0.000 C 
ENDBRANCH  24  26
ENDBRANCH  23  24
BRANCH  23  27
ATOM     27  O   UNL     1       6.672   6.694  16.715  0.00  0.00    +0.000 OA
BRANCH  27  28
ATOM     28  C   UNL     1       7.563   7.566  17.405  0.00  0.00    +0.000 C 
ATOM     29  C   UNL     1       8.113   6.890  18.645  0.00  0.00    +0.000 C 
ENDBRANCH  27  28
ENDBRANCH  23  27
ENDBRANCH  18  23
ENDBRANCH  17  20
ENDBRANCH   1  17
TORSDOF 7
ENDMDL
MODEL 5
REMARK VINA RESULT:      -7.8      3.960      6.452
REMARK  Name = 
REMARK  9 active torsions:
REMARK  status: ('A' for Active; 'I' for Inactive)
REMARK    1  A    between atoms: C_1  and  C_2
REMARK    2  A    between atoms: C_2  and  O_3
REMARK    3  A    between atoms: O_3  and  C_4
REMARK    4  A    between atoms: C_4  and  O_5
REMARK    5  A    between atoms: C_4  and  C_8
REMARK    6  A    between atoms: O_5  and  C_6
REMARK    7  A    between atoms: C_6  and  C_7
REMARK    8  A    between atoms: N_10  and  C_11
REMARK    9  A    between atoms: C_11  and  C_12
REMARK                            x       y       z     vdW  Elec       q    Type
REMARK                         _______ _______ _______ _____ _____    ______ ____
ROOT
ATOM      1  C   UNL     1       2.272   5.333  19.373  0.00  0.00    +0.000 A 
ATOM      2  C   UNL     1       1.732   5.372  20.666  0.00  0.00    +0.000 A 
ATOM      3  C   UNL     1       1.260   6.574  21.196  0.00  0.00    +0.000 A 
ATOM      4  C   UNL     1       1.342   7.752  20.445  0.00  0.00    +0.000 A 
ATOM      5  C   UNL     1       1.839   7.715  19.146  0.00  0.00    +0.000 A 
ATOM      6  C   UNL     1       2.293   6.507  18.604  0.00  0.00    +0.000 A 
ATOM      7  C   UNL     1       1.945   8.950  18.346  0.00  0.00    +0.000 C 
ATOM      8  O   UNL     1       2.320   8.900  17.181  0.00  0.00    +0.000 OA
ATOM      9  C   UNL     1       1.624  10.242  18.983  0.00  0.00    +0.000 A 
ATOM     10  C   UNL     1       1.811  11.431  18.268  0.00  0.00    +0.000 A 
ATOM     11  C   UNL     1       1.551  12.659  18.879  0.00  0.00    +0.000 A 
ATOM     12  C   UNL     1       1.107  12.703  20.200  0.00  0.00    +0.000 A 
ATOM     13  C   UNL     1       0.909  11.518  20.911  0.00  0.00    +0.000 A 
ATOM     14  C   UNL     1       1.163  10.284  20.299  0.00  0.00    +0.000 A 
ATOM     15  C   UNL     1       0.944   9.036  21.053  0.00  0.00    +0.000 C 
ATOM     16  O   UNL     1       0.461   9.064  22.180  0.00  0.00    +0.000 OA
ENDROOT
BRANCH   1  17
ATOM     17  C   UNL     1       2.942   4.081  18.871  0.00  0.00    +0.000 C 
BRANCH  17  20
ATOM     18  C   UNL     1       6.248   4.702  17.616  0.00  0.00    +0.000 A 
ATOM     19  C   UNL     1       4.883   4.754  17.404  0.00  0.00    +0.000 A 
ATOM     20  N   UNL     1       4.340   4.348  18.585  0.00  0.00    +0.000 N 
ATOM     21  N   UNL     1       5.284   4.180  19.523  0.00  0.00    +0.000 NA
ATOM     22  N   UNL     1       6.459   4.384  18.942  0.00  0.00    +0.000 NA
BRANCH  18  23
ATOM     23  C   UNL     1       7.395   4.926  16.652  0.00  0.00    +0.000 C 
BRANCH  23  24
ATOM     24  O   UNL     1       7.199   4.116  15.482  0.00  0.00    +0.000 OA
BRANCH  24  26
ATOM     25  C   UNL     1       6.214   3.861  13.332  0.00  0.00    +0.000 C 
ATOM     26  C   UNL     1       6.831   4.840  14.319  0.00  0.00    +0.000 C 
ENDBRANCH  24  26
ENDBRANCH  23  24
BRANCH  23  27
ATOM     27  O   UNL     1       7.539   6.313  16.270  0.00  0.00    +0.000 OA
BRANCH  27  28
ATOM     28  C   UNL     1       6.963   7.230  17.195  0.00  0.00    +0.000 C 
ATOM     29  C   UNL     1       7.996   8.238  17.655  0.00  0.00    +0.000 C 
ENDBRANCH  27  28
ENDBRANCH  23  27
ENDBRANCH  18  23
ENDBRANCH  17  20
ENDBRANCH   1  17
TORSDOF 7
ENDMDL
MODEL 6
REMARK VINA RESULT:      -7.8      1.937      3.191
REMARK  Name = 
REMARK  9 active torsions:
REMARK  status: ('A' for Active; 'I' for Inactive)
REMARK    1  A    between atoms: C_1  and  C_2
REMARK    2  A    between atoms: C_2  and  O_3
REMARK    3  A    between atoms: O_3  and  C_4
REMARK    4  A    between atoms: C_4  and  O_5
REMARK    5  A    between atoms: C_4  and  C_8
REMARK    6  A    between atoms: O_5  and  C_6
REMARK    7  A    between atoms: C_6  and  C_7
REMARK    8  A    between atoms: N_10  and  C_11
REMARK    9  A    between atoms: C_11  and  C_12
REMARK                            x       y       z     vdW  Elec       q    Type
REMARK                         _______ _______ _______ _____ _____    ______ ____
ROOT
ATOM      1  C   UNL     1       5.763   4.742  17.642  0.00  0.00    +0.000 A 
ATOM      2  C   UNL     1       5.374   3.924  18.711  0.00  0.00    +0.000 A 
ATOM      3  C   UNL     1       4.290   4.282  19.515  0.00  0.00    +0.000 A 
ATOM      4  C   UNL     1       3.597   5.472  19.268  0.00  0.00    +0.000 A 
ATOM      5  C   UNL     1       3.950   6.271  18.184  0.00  0.00    +0.000 A 
ATOM      6  C   UNL     1       5.023   5.903  17.363  0.00  0.00    +0.000 A 
ATOM      7  C   UNL     1       3.240   7.536  17.918  0.00  0.00    +0.000 C 
ATOM      8  O   UNL     1       3.510   8.199  16.925  0.00  0.00    +0.000 OA
ATOM      9  C   UNL     1       2.224   8.000  18.884  0.00  0.00    +0.000 A 
ATOM     10  C   UNL     1       1.609   9.244  18.697  0.00  0.00    +0.000 A 
ATOM     11  C   UNL     1       0.681   9.708  19.629  0.00  0.00    +0.000 A 
ATOM     12  C   UNL     1       0.366   8.936  20.748  0.00  0.00    +0.000 A 
ATOM     13  C   UNL     1       0.970   7.690  20.930  0.00  0.00    +0.000 A 
ATOM     14  C   UNL     1       1.898   7.219  19.993  0.00  0.00    +0.000 A 
ATOM     15  C   UNL     1       2.526   5.899  20.187  0.00  0.00    +0.000 C 
ATOM     16  O   UNL     1       2.181   5.174  21.114  0.00  0.00    +0.000 OA
ENDROOT
BRANCH   1  17
ATOM     17  C   UNL     1       7.035   4.451  16.890  0.00  0.00    +0.000 C 
BRANCH  17  20
ATOM     18  C   UNL     1       6.166   4.001  13.435  0.00  0.00    +0.000 A 
ATOM     19  C   UNL     1       5.903   3.706  14.760  0.00  0.00    +0.000 A 
ATOM     20  N   UNL     1       6.782   4.475  15.461  0.00  0.00    +0.000 N 
ATOM     21  N   UNL     1       7.462   5.298  14.650  0.00  0.00    +0.000 NA
ATOM     22  N   UNL     1       7.103   5.013  13.405  0.00  0.00    +0.000 NA
BRANCH  18  23
ATOM     23  C   UNL     1       5.601   3.393  12.168  0.00  0.00    +0.000 C 
BRANCH  23  24
ATOM     24  O   UNL     1       5.785   1.968  12.202  0.00  0.00    +0.000 OA
BRANCH  24  26
ATOM     25  C   UNL     1       7.743   1.767  10.866  0.00  0.00    +0.000 C 
ATOM     26  C   UNL     1       6.269   1.408  10.992  0.00  0.00    +0.000 C 
ENDBRANCH  24  26
ENDBRANCH  23  24
BRANCH  23  27
ATOM     27  O   UNL     1       4.203   3.703  11.977  0.00  0.00    +0.000 OA
BRANCH  27  28
ATOM     28  C   UNL     1       3.622   3.073  10.839  0.00  0.00    +0.000 C 
ATOM     29  C   UNL     1       3.130   4.112   9.851  0.00  0.00    +0.000 C 
ENDBRANCH  27  28
ENDBRANCH  23  27
ENDBRANCH  18  23
ENDBRANCH  17  20
ENDBRANCH   1  17
TORSDOF 7
ENDMDL
MODEL 7
REMARK VINA RESULT:      -7.7      4.884      7.262
REMARK  Name = 
REMARK  9 active torsions:
REMARK  status: ('A' for Active; 'I' for Inactive)
REMARK    1  A    between atoms: C_1  and  C_2
REMARK    2  A    between atoms: C_2  and  O_3
REMARK    3  A    between atoms: O_3  and  C_4
REMARK    4  A    between atoms: C_4  and  O_5
REMARK    5  A    between atoms: C_4  and  C_8
REMARK    6  A    between atoms: O_5  and  C_6
REMARK    7  A    between atoms: C_6  and  C_7
REMARK    8  A    between atoms: N_10  and  C_11
REMARK    9  A    between atoms: C_11  and  C_12
REMARK                            x       y       z     vdW  Elec       q    Type
REMARK                         _______ _______ _______ _____ _____    ______ ____
ROOT
ATOM      1  C   UNL     1       2.283   6.803  19.639  0.00  0.00    +0.000 A 
ATOM      2  C   UNL     1       2.337   7.476  18.411  0.00  0.00    +0.000 A 
ATOM      3  C   UNL     1       1.829   8.772  18.295  0.00  0.00    +0.000 A 
ATOM      4  C   UNL     1       1.245   9.398  19.402  0.00  0.00    +0.000 A 
ATOM      5  C   UNL     1       1.224   8.752  20.635  0.00  0.00    +0.000 A 
ATOM      6  C   UNL     1       1.752   7.461  20.759  0.00  0.00    +0.000 A 
ATOM      7  C   UNL     1       0.599   9.392  21.808  0.00  0.00    +0.000 C 
ATOM      8  O   UNL     1       0.643   8.848  22.904  0.00  0.00    +0.000 OA
ATOM      9  C   UNL     1      -0.104  10.678  21.629  0.00  0.00    +0.000 A 
ATOM     10  C   UNL     1      -0.784  11.251  22.711  0.00  0.00    +0.000 A 
ATOM     11  C   UNL     1      -1.487  12.443  22.538  0.00  0.00    +0.000 A 
ATOM     12  C   UNL     1      -1.516  13.064  21.289  0.00  0.00    +0.000 A 
ATOM     13  C   UNL     1      -0.829  12.500  20.212  0.00  0.00    +0.000 A 
ATOM     14  C   UNL     1      -0.118  11.306  20.384  0.00  0.00    +0.000 A 
ATOM     15  C   UNL     1       0.612  10.720  19.244  0.00  0.00    +0.000 C 
ATOM     16  O   UNL     1       0.672  11.311  18.171  0.00  0.00    +0.000 OA
ENDROOT
BRANCH   1  17
ATOM     17  C   UNL     1       2.665   5.348  19.720  0.00  0.00    +0.000 C 
BRANCH  17  20
ATOM     18  C   UNL     1       6.037   5.417  18.490  0.00  0.00    +0.000 A 
ATOM     19  C   UNL     1       4.898   6.121  18.834  0.00  0.00    +0.000 A 
ATOM     20  N   UNL     1       4.055   5.179  19.339  0.00  0.00    +0.000 N 
ATOM     21  N   UNL     1       4.660   3.986  19.437  0.00  0.00    +0.000 NA
ATOM     22  N   UNL     1       5.872   4.114  18.912  0.00  0.00    +0.000 NA
BRANCH  18  23
ATOM     23  C   UNL     1       7.292   5.877  17.778  0.00  0.00    +0.000 C 
BRANCH  23  24
ATOM     24  O   UNL     1       6.988   6.140  16.399  0.00  0.00    +0.000 OA
BRANCH  24  26
ATOM     25  C   UNL     1       5.681   4.899  14.845  0.00  0.00    +0.000 C 
ATOM     26  C   UNL     1       7.021   4.996  15.560  0.00  0.00    +0.000 C 
ENDBRANCH  24  26
ENDBRANCH  23  24
BRANCH  23  27
ATOM     27  O   UNL     1       7.878   7.051  18.384  0.00  0.00    +0.000 OA
BRANCH  27  28
ATOM     28  C   UNL     1       7.796   8.220  17.574  0.00  0.00    +0.000 C 
ATOM     29  C   UNL     1       8.470   9.390  18.261  0.00  0.00    +0.000 C 
ENDBRANCH  27  28
ENDBRANCH  23  27
ENDBRANCH  18  23
ENDBRANCH  17  20
ENDBRANCH   1  17
TORSDOF 7
ENDMDL
MODEL 8
REMARK VINA RESULT:      -7.5      6.536      9.473
REMARK  Name = 
REMARK  9 active torsions:
REMARK  status: ('A' for Active; 'I' for Inactive)
REMARK    1  A    between atoms: C_1  and  C_2
REMARK    2  A    between atoms: C_2  and  O_3
REMARK    3  A    between atoms: O_3  and  C_4
REMARK    4  A    between atoms: C_4  and  O_5
REMARK    5  A    between atoms: C_4  and  C_8
REMARK    6  A    between atoms: O_5  and  C_6
REMARK    7  A    between atoms: C_6  and  C_7
REMARK    8  A    between atoms: N_10  and  C_11
REMARK    9  A    between atoms: C_11  and  C_12
REMARK                            x       y       z     vdW  Elec       q    Type
REMARK                         _______ _______ _______ _____ _____    ______ ____
ROOT
ATOM      1  C   UNL     1       1.273   9.726  19.668  0.00  0.00    +0.000 A 
ATOM      2  C   UNL     1       0.823   9.068  20.820  0.00  0.00    +0.000 A 
ATOM      3  C   UNL     1       1.144   7.726  21.036  0.00  0.00    +0.000 A 
ATOM      4  C   UNL     1       1.902   7.026  20.091  0.00  0.00    +0.000 A 
ATOM      5  C   UNL     1       2.387   7.683  18.964  0.00  0.00    +0.000 A 
ATOM      6  C   UNL     1       2.085   9.034  18.756  0.00  0.00    +0.000 A 
ATOM      7  C   UNL     1       3.175   6.955  17.951  0.00  0.00    +0.000 C 
ATOM      8  O   UNL     1       3.657   7.554  16.997  0.00  0.00    +0.000 OA
ATOM      9  C   UNL     1       3.346   5.496  18.093  0.00  0.00    +0.000 A 
ATOM     10  C   UNL     1       4.010   4.777  17.091  0.00  0.00    +0.000 A 
ATOM     11  C   UNL     1       4.135   3.391  17.197  0.00  0.00    +0.000 A 
ATOM     12  C   UNL     1       3.600   2.722  18.298  0.00  0.00    +0.000 A 
ATOM     13  C   UNL     1       2.948   3.438  19.303  0.00  0.00    +0.000 A 
ATOM     14  C   UNL     1       2.825   4.830  19.202  0.00  0.00    +0.000 A 
ATOM     15  C   UNL     1       2.142   5.582  20.271  0.00  0.00    +0.000 C 
ATOM     16  O   UNL     1       1.757   5.012  21.287  0.00  0.00    +0.000 OA
ENDROOT
BRANCH   1  17
ATOM     17  C   UNL     1       0.779  11.113  19.348  0.00  0.00    +0.000 C 
BRANCH  17  20
ATOM     18  C   UNL     1      -2.596  10.775  18.173  0.00  0.00    +0.000 A 
ATOM     19  C   UNL     1      -1.294  10.311  18.152  0.00  0.00    +0.000 A 
ATOM     20  N   UNL     1      -0.644  11.080  19.070  0.00  0.00    +0.000 N 
ATOM     21  N   UNL     1      -1.497  11.882  19.724  0.00  0.00    +0.000 NA
ATOM     22  N   UNL     1      -2.695  11.713  19.180  0.00  0.00    +0.000 NA
BRANCH  18  23
ATOM     23  C   UNL     1      -3.779  10.404  17.303  0.00  0.00    +0.000 C 
BRANCH  23  24
ATOM     24  O   UNL     1      -4.520  11.592  16.976  0.00  0.00    +0.000 OA
BRANCH  24  26
ATOM     25  C   UNL     1      -6.455  12.968  17.126  0.00  0.00    +0.000 C 
ATOM     26  C   UNL     1      -5.796  11.678  17.592  0.00  0.00    +0.000 C 
ENDBRANCH  24  26
ENDBRANCH  23  24
BRANCH  23  27
ATOM     27  O   UNL     1      -3.387   9.722  16.090  0.00  0.00    +0.000 OA
BRANCH  27  28
ATOM     28  C   UNL     1      -3.172  10.591  14.982  0.00  0.00    +0.000 C 
ATOM     29  C   UNL     1      -3.703   9.968  13.708  0.00  0.00    +0.000 C 
ENDBRANCH  27  28
ENDBRANCH  23  27
ENDBRANCH  18  23
ENDBRANCH  17  20
ENDBRANCH   1  17
TORSDOF 7
ENDMDL
MODEL 9
REMARK VINA RESULT:      -7.5      3.931      6.508
REMARK  Name = 
REMARK  9 active torsions:
REMARK  status: ('A' for Active; 'I' for Inactive)
REMARK    1  A    between atoms: C_1  and  C_2
REMARK    2  A    between atoms: C_2  and  O_3
REMARK    3  A    between atoms: O_3  and  C_4
REMARK    4  A    between atoms: C_4  and  O_5
REMARK    5  A    between atoms: C_4  and  C_8
REMARK    6  A    between atoms: O_5  and  C_6
REMARK    7  A    between atoms: C_6  and  C_7
REMARK    8  A    between atoms: N_10  and  C_11
REMARK    9  A    between atoms: C_11  and  C_12
REMARK                            x       y       z     vdW  Elec       q    Type
REMARK                         _______ _______ _______ _____ _____    ______ ____
ROOT
ATOM      1  C   UNL     1       2.459   5.292  19.529  0.00  0.00    +0.000 A 
ATOM      2  C   UNL     1       1.838   5.310  20.785  0.00  0.00    +0.000 A 
ATOM      3  C   UNL     1       1.249   6.482  21.263  0.00  0.00    +0.000 A 
ATOM      4  C   UNL     1       1.293   7.652  20.497  0.00  0.00    +0.000 A 
ATOM      5  C   UNL     1       1.871   7.633  19.231  0.00  0.00    +0.000 A 
ATOM      6  C   UNL     1       2.444   6.453  18.740  0.00  0.00    +0.000 A 
ATOM      7  C   UNL     1       1.939   8.861  18.417  0.00  0.00    +0.000 C 
ATOM      8  O   UNL     1       2.388   8.822  17.278  0.00  0.00    +0.000 OA
ATOM      9  C   UNL     1       1.486  10.135  19.009  0.00  0.00    +0.000 A 
ATOM     10  C   UNL     1       1.632  11.325  18.285  0.00  0.00    +0.000 A 
ATOM     11  C   UNL     1       1.248  12.539  18.856  0.00  0.00    +0.000 A 
ATOM     12  C   UNL     1       0.720  12.568  20.147  0.00  0.00    +0.000 A 
ATOM     13  C   UNL     1       0.564  11.382  20.866  0.00  0.00    +0.000 A 
ATOM     14  C   UNL     1       0.943  10.162  20.293  0.00  0.00    +0.000 A 
ATOM     15  C   UNL     1       0.768   8.912  21.056  0.00  0.00    +0.000 C 
ATOM     16  O   UNL     1       0.215   8.920  22.150  0.00  0.00    +0.000 OA
ENDROOT
BRANCH   1  17
ATOM     17  C   UNL     1       3.247   4.084  19.092  0.00  0.00    +0.000 C 
BRANCH  17  20
ATOM     18  C   UNL     1       6.077   5.230  17.203  0.00  0.00    +0.000 A 
ATOM     19  C   UNL     1       4.711   5.267  17.409  0.00  0.00    +0.000 A 
ATOM     20  N   UNL     1       4.513   4.501  18.518  0.00  0.00    +0.000 N 
ATOM     21  N   UNL     1       5.679   4.117  19.058  0.00  0.00    +0.000 NA
ATOM     22  N   UNL     1       6.646   4.547  18.259  0.00  0.00    +0.000 NA
BRANCH  18  23
ATOM     23  C   UNL     1       6.910   5.792  16.069  0.00  0.00    +0.000 C 
BRANCH  23  24
ATOM     24  O   UNL     1       7.892   6.694  16.603  0.00  0.00    +0.000 OA
BRANCH  24  26
ATOM     25  C   UNL     1       8.338   8.195  18.394  0.00  0.00    +0.000 C 
ATOM     26  C   UNL     1       7.354   7.806  17.300  0.00  0.00    +0.000 C 
ENDBRANCH  24  26
ENDBRANCH  23  24
BRANCH  23  27
ATOM     27  O   UNL     1       7.561   4.762  15.292  0.00  0.00    +0.000 OA
BRANCH  27  28
ATOM     28  C   UNL     1       7.151   4.721  13.928  0.00  0.00    +0.000 C 
ATOM     29  C   UNL     1       5.907   3.870  13.773  0.00  0.00    +0.000 C 
ENDBRANCH  27  28
ENDBRANCH  23  27
ENDBRANCH  18  23
ENDBRANCH  17  20
ENDBRANCH   1  17
TORSDOF 7
ENDMDL
