MODEL 1
REMARK VINA RESULT:      -7.5      0.000      0.000
REMARK  Name = 
REMARK  5 active torsions:
REMARK  status: ('A' for Active; 'I' for Inactive)
REMARK    1  A    between atoms: C_1  and  N_2
REMARK    2  A    between atoms: C_6  and  S_7
REMARK    3  A    between atoms: S_7  and  C_8
REMARK    4  A    between atoms: C_8  and  C_9
REMARK    5  A    between atoms: C_12  and  C_13
REMARK                            x       y       z     vdW  Elec       q    Type
REMARK                         _______ _______ _______ _____ _____    ______ ____
ROOT
ATOM      1  C   UNL     1       2.981   7.149  18.185  0.00  0.00    +0.000 A 
ATOM      2  C   UNL     1       2.669   6.629  19.450  0.00  0.00    +0.000 A 
ATOM      3  C   UNL     1       1.818   7.320  20.315  0.00  0.00    +0.000 A 
ATOM      4  C   UNL     1       1.265   8.548  19.938  0.00  0.00    +0.000 A 
ATOM      5  C   UNL     1       1.579   9.090  18.688  0.00  0.00    +0.000 A 
ATOM      6  C   UNL     1       2.436   8.392  17.820  0.00  0.00    +0.000 A 
ENDROOT
BRANCH   4   7
ATOM      7  C   UNL     1       0.403   9.248  20.933  0.00  0.00    +0.000 C 
ATOM      8  O   UNL     1      -0.416   8.570  21.545  0.00  0.00    +0.000 OA
ATOM      9  N   UNL     1       0.565  10.615  21.011  0.00  0.00    +0.000 N 
ATOM     10  C   UNL     1      -0.229  11.374  21.832  0.00  0.00    +0.000 A 
ATOM     11  N   UNL     1      -1.045  10.994  22.781  0.00  0.00    +0.000 NA
ATOM     12  C   UNL     1      -1.692  12.093  23.307  0.00  0.00    +0.000 A 
ATOM     13  C   UNL     1      -1.351  13.304  22.744  0.00  0.00    +0.000 A 
ATOM     14  S   UNL     1      -0.138  13.059  21.551  0.00  0.00    +0.000 S 
ATOM     15  H   UNL     1       1.146  11.112  20.355  0.00  0.00    +0.000 HD
ENDBRANCH   4   7
BRANCH   1  16
ATOM     16  C   UNL     1       3.931   6.404  17.266  0.00  0.00    +0.000 C 
BRANCH  16  17
ATOM     17  S   UNL     1       4.174   4.669  17.780  0.00  0.00    +0.000 S 
BRANCH  17  23
ATOM     18  C   UNL     1       6.220   4.097  15.275  0.00  0.00    +0.000 C 
ATOM     19  N   UNL     1       6.636   4.317  16.632  0.00  0.00    +0.000 N 
ATOM     20  N   UNL     1       7.942   4.294  16.954  0.00  0.00    +0.000 NA
ATOM     21  N   UNL     1       7.981   4.520  18.259  0.00  0.00    +0.000 NA
ATOM     22  N   UNL     1       6.716   4.684  18.773  0.00  0.00    +0.000 NA
ATOM     23  C   UNL     1       5.897   4.557  17.755  0.00  0.00    +0.000 A 
ENDBRANCH  17  23
ENDBRANCH  16  17
ENDBRANCH   1  16
TORSDOF 4
ENDMDL
MODEL 2
REMARK VINA RESULT:      -7.5      1.354      1.591
REMARK  Name = 
REMARK  5 active torsions:
REMARK  status: ('A' for Active; 'I' for Inactive)
REMARK    1  A    between atoms: C_1  and  N_2
REMARK    2  A    between atoms: C_6  and  S_7
REMARK    3  A    between atoms: S_7  and  C_8
REMARK    4  A    between atoms: C_8  and  C_9
REMARK    5  A    between atoms: C_12  and  C_13
REMARK                            x       y       z     vdW  Elec       q    Type
REMARK                         _______ _______ _______ _____ _____    ______ ____
ROOT
ATOM      1  C   UNL     1       2.774   5.103  18.966  0.00  0.00    +0.000 A 
ATOM      2  C   UNL     1       2.198   5.090  20.245  0.00  0.00    +0.000 A 
ATOM      3  C   UNL     1       1.721   6.267  20.825  0.00  0.00    +0.000 A 
ATOM      4  C   UNL     1       1.812   7.484  20.142  0.00  0.00    +0.000 A 
ATOM      5  C   UNL     1       2.399   7.519  18.873  0.00  0.00    +0.000 A 
ATOM      6  C   UNL     1       2.879   6.333  18.293  0.00  0.00    +0.000 A 
ENDROOT
BRANCH   4   7
ATOM      7  C   UNL     1       1.323   8.705  20.844  0.00  0.00    +0.000 C 
ATOM      8  O   UNL     1       1.341   8.695  22.071  0.00  0.00    +0.000 OA
ATOM      9  N   UNL     1       0.825   9.704  20.034  0.00  0.00    +0.000 N 
ATOM     10  C   UNL     1       0.274  10.839  20.572  0.00  0.00    +0.000 A 
ATOM     11  N   UNL     1       0.313  11.278  21.804  0.00  0.00    +0.000 NA
ATOM     12  C   UNL     1      -0.435  12.432  21.911  0.00  0.00    +0.000 A 
ATOM     13  C   UNL     1      -1.036  12.857  20.745  0.00  0.00    +0.000 A 
ATOM     14  S   UNL     1      -0.602  11.800  19.460  0.00  0.00    +0.000 S 
ATOM     15  H   UNL     1       0.698   9.562  19.045  0.00  0.00    +0.000 HD
ENDBRANCH   4   7
BRANCH   1  16
ATOM     16  C   UNL     1       3.317   3.823  18.359  0.00  0.00    +0.000 C 
BRANCH  16  17
ATOM     17  S   UNL     1       4.127   4.110  16.748  0.00  0.00    +0.000 S 
BRANCH  17  23
ATOM     18  C   UNL     1       6.838   4.500  14.936  0.00  0.00    +0.000 C 
ATOM     19  N   UNL     1       6.818   4.456  16.372  0.00  0.00    +0.000 N 
ATOM     20  N   UNL     1       7.961   4.575  17.071  0.00  0.00    +0.000 NA
ATOM     21  N   UNL     1       7.600   4.487  18.342  0.00  0.00    +0.000 NA
ATOM     22  N   UNL     1       6.241   4.311  18.463  0.00  0.00    +0.000 NA
ATOM     23  C   UNL     1       5.773   4.295  17.236  0.00  0.00    +0.000 A 
ENDBRANCH  17  23
ENDBRANCH  16  17
ENDBRANCH   1  16
TORSDOF 4
ENDMDL
MODEL 3
REMARK VINA RESULT:      -7.5      1.368      1.826
REMARK  Name = 
REMARK  5 active torsions:
REMARK  status: ('A' for Active; 'I' for Inactive)
REMARK    1  A    between atoms: C_1  and  N_2
REMARK    2  A    between atoms: C_6  and  S_7
REMARK    3  A    between atoms: S_7  and  C_8
REMARK    4  A    between atoms: C_8  and  C_9
REMARK    5  A    between atoms: C_12  and  C_13
REMARK                            x       y       z     vdW  Elec       q    Type
REMARK                         _______ _______ _______ _____ _____    ______ ____
ROOT
ATOM      1  C   UNL     1       2.813   5.555  19.060  0.00  0.00    +0.000 A 
ATOM      2  C   UNL     1       2.858   6.612  18.139  0.00  0.00    +0.000 A 
ATOM      3  C   UNL     1       2.290   7.851  18.446  0.00  0.00    +0.000 A 
ATOM      4  C   UNL     1       1.661   8.059  19.678  0.00  0.00    +0.000 A 
ATOM      5  C   UNL     1       1.592   7.011  20.602  0.00  0.00    +0.000 A 
ATOM      6  C   UNL     1       2.163   5.766  20.289  0.00  0.00    +0.000 A 
ENDROOT
BRANCH   4   7
ATOM      7  C   UNL     1       1.039   9.393  19.916  0.00  0.00    +0.000 C 
ATOM      8  O   UNL     1       1.319  10.293  19.131  0.00  0.00    +0.000 OA
ATOM      9  N   UNL     1       0.261   9.499  21.050  0.00  0.00    +0.000 N 
ATOM     10  C   UNL     1      -0.296  10.698  21.413  0.00  0.00    +0.000 A 
ATOM     11  N   UNL     1      -0.402  11.807  20.726  0.00  0.00    +0.000 NA
ATOM     12  C   UNL     1      -0.976  12.786  21.509  0.00  0.00    +0.000 A 
ATOM     13  C   UNL     1      -1.303  12.401  22.792  0.00  0.00    +0.000 A 
ATOM     14  S   UNL     1      -0.925  10.737  23.003  0.00  0.00    +0.000 S 
ATOM     15  H   UNL     1       0.216   8.754  21.726  0.00  0.00    +0.000 HD
ENDBRANCH   4   7
BRANCH   1  16
ATOM     16  C   UNL     1       3.405   4.205  18.704  0.00  0.00    +0.000 C 
BRANCH  16  17
ATOM     17  S   UNL     1       4.094   4.176  17.013  0.00  0.00    +0.000 S 
BRANCH  17  23
ATOM     18  C   UNL     1       6.641   4.358  14.948  0.00  0.00    +0.000 C 
ATOM     19  N   UNL     1       6.749   4.406  16.380  0.00  0.00    +0.000 N 
ATOM     20  N   UNL     1       7.952   4.530  16.967  0.00  0.00    +0.000 NA
ATOM     21  N   UNL     1       7.705   4.535  18.267  0.00  0.00    +0.000 NA
ATOM     22  N   UNL     1       6.358   4.413  18.518  0.00  0.00    +0.000 NA
ATOM     23  C   UNL     1       5.781   4.336  17.341  0.00  0.00    +0.000 A 
ENDBRANCH  17  23
ENDBRANCH  16  17
ENDBRANCH   1  16
TORSDOF 4
ENDMDL
MODEL 4
REMARK VINA RESULT:      -7.5      1.312      1.501
REMARK  Name = 
REMARK  5 active torsions:
REMARK  status: ('A' for Active; 'I' for Inactive)
REMARK    1  A    between atoms: C_1  and  N_2
REMARK    2  A    between atoms: C_6  and  S_7
REMARK    3  A    between atoms: S_7  and  C_8
REMARK    4  A    between atoms: C_8  and  C_9
REMARK    5  A    between atoms: C_12  and  C_13
REMARK                            x       y       z     vdW  Elec       q    Type
REMARK                         _______ _______ _______ _____ _____    ______ ____
ROOT
ATOM      1  C   UNL     1       2.814   5.908  19.103  0.00  0.00    +0.000 A 
ATOM      2  C   UNL     1       2.116   6.179  20.290  0.00  0.00    +0.000 A 
ATOM      3  C   UNL     1       1.518   7.424  20.496  0.00  0.00    +0.000 A 
ATOM      4  C   UNL     1       1.608   8.426  19.524  0.00  0.00    +0.000 A 
ATOM      5  C   UNL     1       2.315   8.178  18.343  0.00  0.00    +0.000 A 
ATOM      6  C   UNL     1       2.916   6.925  18.139  0.00  0.00    +0.000 A 
ENDROOT
BRANCH   4   7
ATOM      7  C   UNL     1       0.983   9.744  19.835  0.00  0.00    +0.000 C 
ATOM      8  O   UNL     1       1.274  10.690  19.110  0.00  0.00    +0.000 OA
ATOM      9  N   UNL     1       0.191   9.781  20.963  0.00  0.00    +0.000 N 
ATOM     10  C   UNL     1      -0.371  10.956  21.392  0.00  0.00    +0.000 A 
ATOM     11  N   UNL     1      -0.467  12.105  20.773  0.00  0.00    +0.000 NA
ATOM     12  C   UNL     1      -1.051  13.035  21.608  0.00  0.00    +0.000 A 
ATOM     13  C   UNL     1      -1.395  12.573  22.860  0.00  0.00    +0.000 A 
ATOM     14  S   UNL     1      -1.020  10.899  22.973  0.00  0.00    +0.000 S 
ATOM     15  H   UNL     1       0.137   8.996  21.592  0.00  0.00    +0.000 HD
ENDBRANCH   4   7
BRANCH   1  16
ATOM     16  C   UNL     1       3.486   4.562  18.904  0.00  0.00    +0.000 C 
BRANCH  16  17
ATOM     17  S   UNL     1       4.072   4.328  17.190  0.00  0.00    +0.000 S 
BRANCH  17  23
ATOM     18  C   UNL     1       6.498   4.280  14.977  0.00  0.00    +0.000 C 
ATOM     19  N   UNL     1       6.693   4.376  16.397  0.00  0.00    +0.000 N 
ATOM     20  N   UNL     1       7.935   4.450  16.908  0.00  0.00    +0.000 NA
ATOM     21  N   UNL     1       7.766   4.518  18.220  0.00  0.00    +0.000 NA
ATOM     22  N   UNL     1       6.432   4.486  18.552  0.00  0.00    +0.000 NA
ATOM     23  C   UNL     1       5.783   4.399  17.415  0.00  0.00    +0.000 A 
ENDBRANCH  17  23
ENDBRANCH  16  17
ENDBRANCH   1  16
TORSDOF 4
ENDMDL
MODEL 5
REMARK VINA RESULT:      -7.4      1.411      1.960
REMARK  Name = 
REMARK  5 active torsions:
REMARK  status: ('A' for Active; 'I' for Inactive)
REMARK    1  A    between atoms: C_1  and  N_2
REMARK    2  A    between atoms: C_6  and  S_7
REMARK    3  A    between atoms: S_7  and  C_8
REMARK    4  A    between atoms: C_8  and  C_9
REMARK    5  A    between atoms: C_12  and  C_13
REMARK                            x       y       z     vdW  Elec       q    Type
REMARK                         _______ _______ _______ _____ _____    ______ ____
ROOT
ATOM      1  C   UNL     1       2.817   5.022  19.040  0.00  0.00    +0.000 A 
ATOM      2  C   UNL     1       2.957   6.281  18.438  0.00  0.00    +0.000 A 
ATOM      3  C   UNL     1       2.480   7.431  19.071  0.00  0.00    +0.000 A 
ATOM      4  C   UNL     1       1.850   7.348  20.316  0.00  0.00    +0.000 A 
ATOM      5  C   UNL     1       1.687   6.099  20.923  0.00  0.00    +0.000 A 
ATOM      6  C   UNL     1       2.166   4.944  20.283  0.00  0.00    +0.000 A 
ENDROOT
BRANCH   4   7
ATOM      7  C   UNL     1       1.327   8.613  20.908  0.00  0.00    +0.000 C 
ATOM      8  O   UNL     1       1.215   8.659  22.129  0.00  0.00    +0.000 OA
ATOM      9  N   UNL     1       0.950   9.586  20.007  0.00  0.00    +0.000 N 
ATOM     10  C   UNL     1       0.381  10.759  20.433  0.00  0.00    +0.000 A 
ATOM     11  N   UNL     1       0.303  11.253  21.642  0.00  0.00    +0.000 NA
ATOM     12  C   UNL     1      -0.416  12.430  21.618  0.00  0.00    +0.000 A 
ATOM     13  C   UNL     1      -0.876  12.817  20.377  0.00  0.00    +0.000 A 
ATOM     14  S   UNL     1      -0.341  11.690  19.193  0.00  0.00    +0.000 S 
ATOM     15  H   UNL     1       0.924   9.402  19.017  0.00  0.00    +0.000 HD
ENDBRANCH   4   7
BRANCH   1  16
ATOM     16  C   UNL     1       3.310   3.776  18.329  0.00  0.00    +0.000 C 
BRANCH  16  17
ATOM     17  S   UNL     1       4.094   4.158  16.725  0.00  0.00    +0.000 S 
BRANCH  17  23
ATOM     18  C   UNL     1       6.800   4.422  14.883  0.00  0.00    +0.000 C 
ATOM     19  N   UNL     1       6.790   4.423  16.319  0.00  0.00    +0.000 N 
ATOM     20  N   UNL     1       7.941   4.533  17.006  0.00  0.00    +0.000 NA
ATOM     21  N   UNL     1       7.588   4.492  18.282  0.00  0.00    +0.000 NA
ATOM     22  N   UNL     1       6.226   4.356  18.417  0.00  0.00    +0.000 NA
ATOM     23  C   UNL     1       5.748   4.315  17.195  0.00  0.00    +0.000 A 
ENDBRANCH  17  23
ENDBRANCH  16  17
ENDBRANCH   1  16
TORSDOF 4
ENDMDL
MODEL 6
REMARK VINA RESULT:      -7.4      1.230      1.280
REMARK  Name = 
REMARK  5 active torsions:
REMARK  status: ('A' for Active; 'I' for Inactive)
REMARK    1  A    between atoms: C_1  and  N_2
REMARK    2  A    between atoms: C_6  and  S_7
REMARK    3  A    between atoms: S_7  and  C_8
REMARK    4  A    between atoms: C_8  and  C_9
REMARK    5  A    between atoms: C_12  and  C_13
REMARK                            x       y       z     vdW  Elec       q    Type
REMARK                         _______ _______ _______ _____ _____    ______ ____
ROOT
ATOM      1  C   UNL     1       2.744   6.164  18.542  0.00  0.00    +0.000 A 
ATOM      2  C   UNL     1       2.335   5.853  19.848  0.00  0.00    +0.000 A 
ATOM      3  C   UNL     1       1.751   6.826  20.662  0.00  0.00    +0.000 A 
ATOM      4  C   UNL     1       1.566   8.130  20.192  0.00  0.00    +0.000 A 
ATOM      5  C   UNL     1       1.984   8.461  18.899  0.00  0.00    +0.000 A 
ATOM      6  C   UNL     1       2.572   7.481  18.083  0.00  0.00    +0.000 A 
ENDROOT
BRANCH   4   7
ATOM      7  C   UNL     1       0.978   9.124  21.135  0.00  0.00    +0.000 C 
ATOM      8  O   UNL     1       1.124   8.917  22.335  0.00  0.00    +0.000 OA
ATOM      9  N   UNL     1       0.258  10.148  20.556  0.00  0.00    +0.000 N 
ATOM     10  C   UNL     1      -0.395  11.075  21.326  0.00  0.00    +0.000 A 
ATOM     11  N   UNL     1      -0.294  11.307  22.610  0.00  0.00    +0.000 NA
ATOM     12  C   UNL     1      -1.189  12.291  22.977  0.00  0.00    +0.000 A 
ATOM     13  C   UNL     1      -1.962  12.798  21.954  0.00  0.00    +0.000 A 
ATOM     14  S   UNL     1      -1.512  12.049  20.473  0.00  0.00    +0.000 S 
ATOM     15  H   UNL     1       0.052  10.151  19.569  0.00  0.00    +0.000 HD
ENDBRANCH   4   7
BRANCH   1  16
ATOM     16  C   UNL     1       3.405   5.107  17.678  0.00  0.00    +0.000 C 
BRANCH  16  17
ATOM     17  S   UNL     1       4.976   4.510  18.393  0.00  0.00    +0.000 S 
BRANCH  17  23
ATOM     18  C   UNL     1       6.106   3.815  15.389  0.00  0.00    +0.000 C 
ATOM     19  N   UNL     1       6.508   4.955  16.166  0.00  0.00    +0.000 N 
ATOM     20  N   UNL     1       7.408   5.826  15.679  0.00  0.00    +0.000 NA
ATOM     21  N   UNL     1       7.560   6.736  16.629  0.00  0.00    +0.000 NA
ATOM     22  N   UNL     1       6.768   6.455  17.718  0.00  0.00    +0.000 NA
ATOM     23  C   UNL     1       6.124   5.351  17.415  0.00  0.00    +0.000 A 
ENDBRANCH  17  23
ENDBRANCH  16  17
ENDBRANCH   1  16
TORSDOF 4
ENDMDL
MODEL 7
REMARK VINA RESULT:      -7.4      1.792      2.310
REMARK  Name = 
REMARK  5 active torsions:
REMARK  status: ('A' for Active; 'I' for Inactive)
REMARK    1  A    between atoms: C_1  and  N_2
REMARK    2  A    between atoms: C_6  and  S_7
REMARK    3  A    between atoms: S_7  and  C_8
REMARK    4  A    between atoms: C_8  and  C_9
REMARK    5  A    between atoms: C_12  and  C_13
REMARK                            x       y       z     vdW  Elec       q    Type
REMARK                         _______ _______ _______ _____ _____    ______ ____
ROOT
ATOM      1  C   UNL     1       4.014   5.672  18.396  0.00  0.00    +0.000 A 
ATOM      2  C   UNL     1       3.267   5.633  19.583  0.00  0.00    +0.000 A 
ATOM      3  C   UNL     1       2.391   6.671  19.908  0.00  0.00    +0.000 A 
ATOM      4  C   UNL     1       2.244   7.771  19.058  0.00  0.00    +0.000 A 
ATOM      5  C   UNL     1       2.994   7.835  17.878  0.00  0.00    +0.000 A 
ATOM      6  C   UNL     1       3.875   6.790  17.555  0.00  0.00    +0.000 A 
ENDROOT
BRANCH   4   7
ATOM      7  C   UNL     1       1.325   8.861  19.494  0.00  0.00    +0.000 C 
ATOM      8  O   UNL     1       1.136   9.786  18.712  0.00  0.00    +0.000 OA
ATOM      9  N   UNL     1       0.832   8.752  20.778  0.00  0.00    +0.000 N 
ATOM     10  C   UNL     1       0.041   9.735  21.316  0.00  0.00    +0.000 A 
ATOM     11  N   UNL     1      -0.544  10.745  20.726  0.00  0.00    +0.000 NA
ATOM     12  C   UNL     1      -1.189  11.522  21.665  0.00  0.00    +0.000 A 
ATOM     13  C   UNL     1      -1.083  11.084  22.968  0.00  0.00    +0.000 A 
ATOM     14  S   UNL     1      -0.189   9.616  23.006  0.00  0.00    +0.000 S 
ATOM     15  H   UNL     1       1.167   8.042  21.409  0.00  0.00    +0.000 HD
ENDBRANCH   4   7
BRANCH   1  16
ATOM     16  C   UNL     1       4.986   4.554  18.068  0.00  0.00    +0.000 C 
BRANCH  16  17
ATOM     17  S   UNL     1       4.795   3.951  16.355  0.00  0.00    +0.000 S 
BRANCH  17  23
ATOM     18  C   UNL     1       5.922   3.651  13.285  0.00  0.00    +0.000 C 
ATOM     19  N   UNL     1       6.505   4.499  14.287  0.00  0.00    +0.000 N 
ATOM     20  N   UNL     1       7.590   5.240  14.001  0.00  0.00    +0.000 NA
ATOM     21  N   UNL     1       7.872   5.887  15.122  0.00  0.00    +0.000 NA
ATOM     22  N   UNL     1       6.982   5.567  16.119  0.00  0.00    +0.000 NA
ATOM     23  C   UNL     1       6.143   4.709  15.587  0.00  0.00    +0.000 A 
ENDBRANCH  17  23
ENDBRANCH  16  17
ENDBRANCH   1  16
TORSDOF 4
ENDMDL
MODEL 8
REMARK VINA RESULT:      -7.4      2.272      2.487
REMARK  Name = 
REMARK  5 active torsions:
REMARK  status: ('A' for Active; 'I' for Inactive)
REMARK    1  A    between atoms: C_1  and  N_2
REMARK    2  A    between atoms: C_6  and  S_7
REMARK    3  A    between atoms: S_7  and  C_8
REMARK    4  A    between atoms: C_8  and  C_9
REMARK    5  A    between atoms: C_12  and  C_13
REMARK                            x       y       z     vdW  Elec       q    Type
REMARK                         _______ _______ _______ _____ _____    ______ ____
ROOT
ATOM      1  C   UNL     1       2.916   6.556  19.089  0.00  0.00    +0.000 A 
ATOM      2  C   UNL     1       2.164   7.103  20.140  0.00  0.00    +0.000 A 
ATOM      3  C   UNL     1       1.492   8.316  19.979  0.00  0.00    +0.000 A 
ATOM      4  C   UNL     1       1.559   9.011  18.767  0.00  0.00    +0.000 A 
ATOM      5  C   UNL     1       2.318   8.489  17.715  0.00  0.00    +0.000 A 
ATOM      6  C   UNL     1       2.994   7.269  17.881  0.00  0.00    +0.000 A 
ENDROOT
BRANCH   4   7
ATOM      7  C   UNL     1       0.852  10.322  18.685  0.00  0.00    +0.000 C 
ATOM      8  O   UNL     1      -0.265  10.328  18.178  0.00  0.00    +0.000 OA
ATOM      9  N   UNL     1       1.565  11.417  19.126  0.00  0.00    +0.000 N 
ATOM     10  C   UNL     1       1.047  12.683  19.025  0.00  0.00    +0.000 A 
ATOM     11  N   UNL     1      -0.174  13.060  18.748  0.00  0.00    +0.000 NA
ATOM     12  C   UNL     1      -0.232  14.437  18.686  0.00  0.00    +0.000 A 
ATOM     13  C   UNL     1       0.959  15.091  18.920  0.00  0.00    +0.000 A 
ATOM     14  S   UNL     1       2.181  13.937  19.284  0.00  0.00    +0.000 S 
ATOM     15  H   UNL     1       2.538  11.342  19.376  0.00  0.00    +0.000 HD
ENDBRANCH   4   7
BRANCH   1  16
ATOM     16  C   UNL     1       3.668   5.253  19.286  0.00  0.00    +0.000 C 
BRANCH  16  17
ATOM     17  S   UNL     1       4.049   4.427  17.703  0.00  0.00    +0.000 S 
BRANCH  17  23
ATOM     18  C   UNL     1       6.192   4.134  15.233  0.00  0.00    +0.000 C 
ATOM     19  N   UNL     1       6.558   4.335  16.607  0.00  0.00    +0.000 N 
ATOM     20  N   UNL     1       7.853   4.413  16.961  0.00  0.00    +0.000 NA
ATOM     21  N   UNL     1       7.843   4.590  18.274  0.00  0.00    +0.000 NA
ATOM     22  N   UNL     1       6.557   4.623  18.762  0.00  0.00    +0.000 NA
ATOM     23  C   UNL     1       5.775   4.466  17.719  0.00  0.00    +0.000 A 
ENDBRANCH  17  23
ENDBRANCH  16  17
ENDBRANCH   1  16
TORSDOF 4
ENDMDL
MODEL 9
REMARK VINA RESULT:      -7.3      2.017      3.169
REMARK  Name = 
REMARK  5 active torsions:
REMARK  status: ('A' for Active; 'I' for Inactive)
REMARK    1  A    between atoms: C_1  and  N_2
REMARK    2  A    between atoms: C_6  and  S_7
REMARK    3  A    between atoms: S_7  and  C_8
REMARK    4  A    between atoms: C_8  and  C_9
REMARK    5  A    between atoms: C_12  and  C_13
REMARK                            x       y       z     vdW  Elec       q    Type
REMARK                         _______ _______ _______ _____ _____    ______ ____
ROOT
ATOM      1  C   UNL     1       4.520   4.687  17.230  0.00  0.00    +0.000 A 
ATOM      2  C   UNL     1       4.123   6.021  17.054  0.00  0.00    +0.000 A 
ATOM      3  C   UNL     1       3.336   6.664  18.012  0.00  0.00    +0.000 A 
ATOM      4  C   UNL     1       2.925   5.987  19.165  0.00  0.00    +0.000 A 
ATOM      5  C   UNL     1       3.298   4.652  19.349  0.00  0.00    +0.000 A 
ATOM      6  C   UNL     1       4.088   4.008  18.383  0.00  0.00    +0.000 A 
ENDROOT
BRANCH   4   7
ATOM      7  C   UNL     1       2.049   6.724  20.120  0.00  0.00    +0.000 C 
ATOM      8  O   UNL     1       1.480   6.066  20.986  0.00  0.00    +0.000 OA
ATOM      9  N   UNL     1       1.908   8.076  19.884  0.00  0.00    +0.000 N 
ATOM     10  C   UNL     1       1.065   8.841  20.649  0.00  0.00    +0.000 A 
ATOM     11  N   UNL     1       0.470   8.547  21.776  0.00  0.00    +0.000 NA
ATOM     12  C   UNL     1      -0.341   9.594  22.161  0.00  0.00    +0.000 A 
ATOM     13  C   UNL     1      -0.349  10.679  21.310  0.00  0.00    +0.000 A 
ATOM     14  S   UNL     1       0.742  10.395  20.012  0.00  0.00    +0.000 S 
ATOM     15  H   UNL     1       2.283   8.505  19.054  0.00  0.00    +0.000 HD
ENDBRANCH   4   7
BRANCH   1  16
ATOM     16  C   UNL     1       5.349   3.990  16.168  0.00  0.00    +0.000 C 
BRANCH  16  17
ATOM     17  S   UNL     1       6.906   4.874  15.814  0.00  0.00    +0.000 S 
BRANCH  17  23
ATOM     18  C   UNL     1       7.353   7.768  17.300  0.00  0.00    +0.000 C 
ATOM     19  N   UNL     1       7.593   6.492  17.914  0.00  0.00    +0.000 N 
ATOM     20  N   UNL     1       8.034   6.421  19.182  0.00  0.00    +0.000 NA
ATOM     21  N   UNL     1       8.158   5.127  19.435  0.00  0.00    +0.000 NA
ATOM     22  N   UNL     1       7.802   4.371  18.342  0.00  0.00    +0.000 NA
ATOM     23  C   UNL     1       7.454   5.230  17.412  0.00  0.00    +0.000 A 
ENDBRANCH  17  23
ENDBRANCH  16  17
ENDBRANCH   1  16
TORSDOF 4
ENDMDL
