MODEL 1
REMARK VINA RESULT:      -7.6      0.000      0.000
REMARK  Name = 
REMARK  4 active torsions:
REMARK  status: ('A' for Active; 'I' for Inactive)
REMARK    1  A    between atoms: C_4  and  C_5
REMARK    2  A    between atoms: C_5  and  N_6
REMARK    3  A    between atoms: N_13  and  C_14
REMARK    4  A    between atoms: C_14  and  C_15
REMARK                            x       y       z     vdW  Elec       q    Type
REMARK                         _______ _______ _______ _____ _____    ______ ____
ROOT
ATOM      1  N   UNL     1       4.957   5.495  18.603  0.00  0.00    +0.000 NA
ATOM      2  C   UNL     1       6.327   5.379  19.106  0.00  0.00    +0.000 C 
ATOM      3  C   UNL     1       7.381   5.687  18.031  0.00  0.00    +0.000 C 
ATOM      4  C   UNL     1       7.152   7.085  17.473  0.00  0.00    +0.000 C 
ATOM      5  C   UNL     1       5.762   7.081  16.857  0.00  0.00    +0.000 C 
ATOM      6  C   UNL     1       4.702   6.759  17.926  0.00  0.00    +0.000 C 
ATOM      7  C   UNL     1       5.750   6.123  15.654  0.00  0.00    +0.000 C 
ATOM      8  N   UNL     1       6.481   4.845  15.728  0.00  0.00    +0.000 NA
ATOM      9  C   UNL     1       7.400   4.666  16.872  0.00  0.00    +0.000 C 
ENDROOT
BRANCH   1  10
ATOM     10  C   UNL     1       3.944   5.185  19.617  0.00  0.00    +0.000 C 
BRANCH  10  14
ATOM     11  C   UNL     1       1.440   1.922  18.325  0.00  0.00    +0.000 A 
ATOM     12  C   UNL     1       0.953   2.835  19.259  0.00  0.00    +0.000 A 
ATOM     13  C   UNL     1       1.748   3.909  19.672  0.00  0.00    +0.000 A 
ATOM     14  C   UNL     1       3.039   4.064  19.150  0.00  0.00    +0.000 A 
ATOM     15  C   UNL     1       3.515   3.139  18.214  0.00  0.00    +0.000 A 
ATOM     16  C   UNL     1       2.722   2.071  17.802  0.00  0.00    +0.000 A 
ENDBRANCH  10  14
ENDBRANCH   1  10
BRANCH   8  17
ATOM     17  C   UNL     1       7.204   4.575  14.460  0.00  0.00    +0.000 C 
BRANCH  17  18
ATOM     18  C   UNL     1       6.399   3.918  13.356  0.00  0.00    +0.000 A 
ATOM     19  C   UNL     1       7.045   3.163  12.359  0.00  0.00    +0.000 A 
ATOM     20  C   UNL     1       6.317   2.521  11.354  0.00  0.00    +0.000 A 
ATOM     21  C   UNL     1       4.926   2.613  11.339  0.00  0.00    +0.000 A 
ATOM     22  C   UNL     1       4.271   3.356  12.319  0.00  0.00    +0.000 A 
ATOM     23  C   UNL     1       4.998   4.011  13.321  0.00  0.00    +0.000 A 
ENDBRANCH  17  18
ENDBRANCH   8  17
TORSDOF 4
ENDMDL
MODEL 2
REMARK VINA RESULT:      -7.6      1.088      1.804
REMARK  Name = 
REMARK  4 active torsions:
REMARK  status: ('A' for Active; 'I' for Inactive)
REMARK    1  A    between atoms: C_4  and  C_5
REMARK    2  A    between atoms: C_5  and  N_6
REMARK    3  A    between atoms: N_13  and  C_14
REMARK    4  A    between atoms: C_14  and  C_15
REMARK                            x       y       z     vdW  Elec       q    Type
REMARK                         _______ _______ _______ _____ _____    ______ ____
ROOT
ATOM      1  N   UNL     1       3.863   5.860  17.714  0.00  0.00    +0.000 NA
ATOM      2  C   UNL     1       4.707   4.942  18.482  0.00  0.00    +0.000 C 
ATOM      3  C   UNL     1       6.073   4.700  17.821  0.00  0.00    +0.000 C 
ATOM      4  C   UNL     1       6.794   6.028  17.632  0.00  0.00    +0.000 C 
ATOM      5  C   UNL     1       5.914   6.870  16.722  0.00  0.00    +0.000 C 
ATOM      6  C   UNL     1       4.538   7.104  17.371  0.00  0.00    +0.000 C 
ATOM      7  C   UNL     1       5.848   6.207  15.335  0.00  0.00    +0.000 C 
ATOM      8  N   UNL     1       5.755   4.740  15.229  0.00  0.00    +0.000 NA
ATOM      9  C   UNL     1       5.984   3.964  16.467  0.00  0.00    +0.000 C 
ENDROOT
BRANCH   1  10
ATOM     10  C   UNL     1       2.550   6.083  18.328  0.00  0.00    +0.000 C 
BRANCH  10  14
ATOM     11  C   UNL     1       0.867   2.461  19.949  0.00  0.00    +0.000 A 
ATOM     12  C   UNL     1       1.082   2.565  18.576  0.00  0.00    +0.000 A 
ATOM     13  C   UNL     1       1.646   3.726  18.040  0.00  0.00    +0.000 A 
ATOM     14  C   UNL     1       1.989   4.791  18.884  0.00  0.00    +0.000 A 
ATOM     15  C   UNL     1       1.765   4.672  20.261  0.00  0.00    +0.000 A 
ATOM     16  C   UNL     1       1.206   3.515  20.794  0.00  0.00    +0.000 A 
ENDBRANCH  10  14
ENDBRANCH   1  10
BRANCH   8  17
ATOM     17  C   UNL     1       6.637   4.230  14.150  0.00  0.00    +0.000 C 
BRANCH  17  18
ATOM     18  C   UNL     1       5.947   3.539  12.989  0.00  0.00    +0.000 A 
ATOM     19  C   UNL     1       4.654   3.931  12.597  0.00  0.00    +0.000 A 
ATOM     20  C   UNL     1       4.017   3.331  11.509  0.00  0.00    +0.000 A 
ATOM     21  C   UNL     1       4.670   2.334  10.786  0.00  0.00    +0.000 A 
ATOM     22  C   UNL     1       5.952   1.935  11.161  0.00  0.00    +0.000 A 
ATOM     23  C   UNL     1       6.590   2.526  12.259  0.00  0.00    +0.000 A 
ENDBRANCH  17  18
ENDBRANCH   8  17
TORSDOF 4
ENDMDL
MODEL 3
REMARK VINA RESULT:      -7.5      1.263      6.599
REMARK  Name = 
REMARK  4 active torsions:
REMARK  status: ('A' for Active; 'I' for Inactive)
REMARK    1  A    between atoms: C_4  and  C_5
REMARK    2  A    between atoms: C_5  and  N_6
REMARK    3  A    between atoms: N_13  and  C_14
REMARK    4  A    between atoms: C_14  and  C_15
REMARK                            x       y       z     vdW  Elec       q    Type
REMARK                         _______ _______ _______ _____ _____    ______ ____
ROOT
ATOM      1  N   UNL     1       6.517   5.414  16.349  0.00  0.00    +0.000 NA
ATOM      2  C   UNL     1       6.368   6.700  17.032  0.00  0.00    +0.000 C 
ATOM      3  C   UNL     1       5.304   6.663  18.140  0.00  0.00    +0.000 C 
ATOM      4  C   UNL     1       5.652   5.579  19.150  0.00  0.00    +0.000 C 
ATOM      5  C   UNL     1       5.659   4.264  18.387  0.00  0.00    +0.000 C 
ATOM      6  C   UNL     1       6.713   4.300  17.265  0.00  0.00    +0.000 C 
ATOM      7  C   UNL     1       4.233   3.962  17.896  0.00  0.00    +0.000 C 
ATOM      8  N   UNL     1       3.386   5.057  17.388  0.00  0.00    +0.000 NA
ATOM      9  C   UNL     1       3.870   6.436  17.614  0.00  0.00    +0.000 C 
ENDROOT
BRANCH   1  10
ATOM     10  C   UNL     1       7.518   5.445  15.278  0.00  0.00    +0.000 C 
BRANCH  10  14
ATOM     11  C   UNL     1       6.103   3.482  11.710  0.00  0.00    +0.000 A 
ATOM     12  C   UNL     1       5.372   3.371  12.892  0.00  0.00    +0.000 A 
ATOM     13  C   UNL     1       5.810   4.019  14.051  0.00  0.00    +0.000 A 
ATOM     14  C   UNL     1       6.989   4.776  14.026  0.00  0.00    +0.000 A 
ATOM     15  C   UNL     1       7.713   4.876  12.832  0.00  0.00    +0.000 A 
ATOM     16  C   UNL     1       7.275   4.233  11.678  0.00  0.00    +0.000 A 
ENDBRANCH  10  14
ENDBRANCH   1  10
BRANCH   8  17
ATOM     17  C   UNL     1       1.996   4.927  17.891  0.00  0.00    +0.000 C 
BRANCH  17  18
ATOM     18  C   UNL     1       1.824   4.186  19.204  0.00  0.00    +0.000 A 
ATOM     19  C   UNL     1       1.224   2.913  19.228  0.00  0.00    +0.000 A 
ATOM     20  C   UNL     1       1.089   2.201  20.422  0.00  0.00    +0.000 A 
ATOM     21  C   UNL     1       1.566   2.747  21.612  0.00  0.00    +0.000 A 
ATOM     22  C   UNL     1       2.164   4.006  21.606  0.00  0.00    +0.000 A 
ATOM     23  C   UNL     1       2.290   4.729  20.413  0.00  0.00    +0.000 A 
ENDBRANCH  17  18
ENDBRANCH   8  17
TORSDOF 4
ENDMDL
MODEL 4
REMARK VINA RESULT:      -7.5      1.225      6.621
REMARK  Name = 
REMARK  4 active torsions:
REMARK  status: ('A' for Active; 'I' for Inactive)
REMARK    1  A    between atoms: C_4  and  C_5
REMARK    2  A    between atoms: C_5  and  N_6
REMARK    3  A    between atoms: N_13  and  C_14
REMARK    4  A    between atoms: C_14  and  C_15
REMARK                            x       y       z     vdW  Elec       q    Type
REMARK                         _______ _______ _______ _____ _____    ______ ____
ROOT
ATOM      1  N   UNL     1       6.446   5.358  16.254  0.00  0.00    +0.000 NA
ATOM      2  C   UNL     1       6.395   6.653  16.934  0.00  0.00    +0.000 C 
ATOM      3  C   UNL     1       5.383   6.675  18.091  0.00  0.00    +0.000 C 
ATOM      4  C   UNL     1       5.723   5.579  19.091  0.00  0.00    +0.000 C 
ATOM      5  C   UNL     1       5.629   4.262  18.338  0.00  0.00    +0.000 C 
ATOM      6  C   UNL     1       6.630   4.240  17.168  0.00  0.00    +0.000 C 
ATOM      7  C   UNL     1       4.168   4.030  17.916  0.00  0.00    +0.000 C 
ATOM      8  N   UNL     1       3.354   5.163  17.440  0.00  0.00    +0.000 NA
ATOM      9  C   UNL     1       3.916   6.518  17.633  0.00  0.00    +0.000 C 
ENDROOT
BRANCH   1  10
ATOM     10  C   UNL     1       7.397   5.333  15.137  0.00  0.00    +0.000 C 
BRANCH  10  14
ATOM     11  C   UNL     1       5.667   3.286  11.760  0.00  0.00    +0.000 A 
ATOM     12  C   UNL     1       6.970   3.774  11.675  0.00  0.00    +0.000 A 
ATOM     13  C   UNL     1       7.550   4.422  12.770  0.00  0.00    +0.000 A 
ATOM     14  C   UNL     1       6.817   4.588  13.953  0.00  0.00    +0.000 A 
ATOM     15  C   UNL     1       5.509   4.094  14.022  0.00  0.00    +0.000 A 
ATOM     16  C   UNL     1       4.933   3.447  12.933  0.00  0.00    +0.000 A 
ENDBRANCH  10  14
ENDBRANCH   1  10
BRANCH   8  17
ATOM     17  C   UNL     1       1.984   5.106  18.009  0.00  0.00    +0.000 C 
BRANCH  17  18
ATOM     18  C   UNL     1       1.817   4.288  19.275  0.00  0.00    +0.000 A 
ATOM     19  C   UNL     1       1.168   3.040  19.234  0.00  0.00    +0.000 A 
ATOM     20  C   UNL     1       1.036   2.257  20.383  0.00  0.00    +0.000 A 
ATOM     21  C   UNL     1       1.564   2.706  21.592  0.00  0.00    +0.000 A 
ATOM     22  C   UNL     1       2.211   3.940  21.650  0.00  0.00    +0.000 A 
ATOM     23  C   UNL     1       2.335   4.733  20.503  0.00  0.00    +0.000 A 
ENDBRANCH  17  18
ENDBRANCH   8  17
TORSDOF 4
ENDMDL
MODEL 5
REMARK VINA RESULT:      -7.5      1.181      6.530
REMARK  Name = 
REMARK  4 active torsions:
REMARK  status: ('A' for Active; 'I' for Inactive)
REMARK    1  A    between atoms: C_4  and  C_5
REMARK    2  A    between atoms: C_5  and  N_6
REMARK    3  A    between atoms: N_13  and  C_14
REMARK    4  A    between atoms: C_14  and  C_15
REMARK                            x       y       z     vdW  Elec       q    Type
REMARK                         _______ _______ _______ _____ _____    ______ ____
ROOT
ATOM      1  N   UNL     1       6.495   5.284  16.064  0.00  0.00    +0.000 NA
ATOM      2  C   UNL     1       6.562   6.578  16.745  0.00  0.00    +0.000 C 
ATOM      3  C   UNL     1       5.615   6.663  17.953  0.00  0.00    +0.000 C 
ATOM      4  C   UNL     1       5.936   5.545  18.935  0.00  0.00    +0.000 C 
ATOM      5  C   UNL     1       5.717   4.239  18.189  0.00  0.00    +0.000 C 
ATOM      6  C   UNL     1       6.653   4.154  16.969  0.00  0.00    +0.000 C 
ATOM      7  C   UNL     1       4.225   4.103  17.844  0.00  0.00    +0.000 C 
ATOM      8  N   UNL     1       3.462   5.287  17.410  0.00  0.00    +0.000 NA
ATOM      9  C   UNL     1       4.120   6.602  17.572  0.00  0.00    +0.000 C 
ENDROOT
BRANCH   1  10
ATOM     10  C   UNL     1       7.383   5.201  14.899  0.00  0.00    +0.000 C 
BRANCH  10  14
ATOM     11  C   UNL     1       5.513   3.076  11.647  0.00  0.00    +0.000 A 
ATOM     12  C   UNL     1       4.766   3.395  12.781  0.00  0.00    +0.000 A 
ATOM     13  C   UNL     1       5.355   4.100  13.834  0.00  0.00    +0.000 A 
ATOM     14  C   UNL     1       6.701   4.483  13.753  0.00  0.00    +0.000 A 
ATOM     15  C   UNL     1       7.438   4.155  12.609  0.00  0.00    +0.000 A 
ATOM     16  C   UNL     1       6.850   3.454  11.560  0.00  0.00    +0.000 A 
ENDBRANCH  10  14
ENDBRANCH   1  10
BRANCH   8  17
ATOM     17  C   UNL     1       2.123   5.317  18.048  0.00  0.00    +0.000 C 
BRANCH  17  18
ATOM     18  C   UNL     1       1.926   4.396  19.238  0.00  0.00    +0.000 A 
ATOM     19  C   UNL     1       2.430   4.753  20.503  0.00  0.00    +0.000 A 
ATOM     20  C   UNL     1       2.228   3.936  21.617  0.00  0.00    +0.000 A 
ATOM     21  C   UNL     1       1.506   2.751  21.486  0.00  0.00    +0.000 A 
ATOM     22  C   UNL     1       0.999   2.383  20.240  0.00  0.00    +0.000 A 
ATOM     23  C   UNL     1       1.210   3.194  19.118  0.00  0.00    +0.000 A 
ENDBRANCH  17  18
ENDBRANCH   8  17
TORSDOF 4
ENDMDL
MODEL 6
REMARK VINA RESULT:      -7.5      0.805      1.357
REMARK  Name = 
REMARK  4 active torsions:
REMARK  status: ('A' for Active; 'I' for Inactive)
REMARK    1  A    between atoms: C_4  and  C_5
REMARK    2  A    between atoms: C_5  and  N_6
REMARK    3  A    between atoms: N_13  and  C_14
REMARK    4  A    between atoms: C_14  and  C_15
REMARK                            x       y       z     vdW  Elec       q    Type
REMARK                         _______ _______ _______ _____ _____    ______ ____
ROOT
ATOM      1  N   UNL     1       5.334   4.473  18.480  0.00  0.00    +0.000 NA
ATOM      2  C   UNL     1       6.696   4.949  18.726  0.00  0.00    +0.000 C 
ATOM      3  C   UNL     1       7.267   5.750  17.544  0.00  0.00    +0.000 C 
ATOM      4  C   UNL     1       6.355   6.930  17.236  0.00  0.00    +0.000 C 
ATOM      5  C   UNL     1       5.002   6.344  16.867  0.00  0.00    +0.000 C 
ATOM      6  C   UNL     1       4.431   5.528  18.041  0.00  0.00    +0.000 C 
ATOM      7  C   UNL     1       5.141   5.546  15.559  0.00  0.00    +0.000 C 
ATOM      8  N   UNL     1       6.341   4.723  15.328  0.00  0.00    +0.000 NA
ATOM      9  C   UNL     1       7.470   4.907  16.266  0.00  0.00    +0.000 C 
ENDROOT
BRANCH   1  10
ATOM     10  C   UNL     1       4.788   3.693  19.595  0.00  0.00    +0.000 C 
BRANCH  10  14
ATOM     11  C   UNL     1       0.582   2.895  19.085  0.00  0.00    +0.000 A 
ATOM     12  C   UNL     1       0.995   3.836  20.027  0.00  0.00    +0.000 A 
ATOM     13  C   UNL     1       2.354   4.119  20.188  0.00  0.00    +0.000 A 
ATOM     14  C   UNL     1       3.305   3.449  19.406  0.00  0.00    +0.000 A 
ATOM     15  C   UNL     1       2.875   2.506  18.466  0.00  0.00    +0.000 A 
ATOM     16  C   UNL     1       1.521   2.227  18.304  0.00  0.00    +0.000 A 
ENDBRANCH  10  14
ENDBRANCH   1  10
BRANCH   8  17
ATOM     17  C   UNL     1       6.824   4.870  13.932  0.00  0.00    +0.000 C 
BRANCH  17  18
ATOM     18  C   UNL     1       6.277   3.875  12.925  0.00  0.00    +0.000 A 
ATOM     19  C   UNL     1       4.915   3.899  12.572  0.00  0.00    +0.000 A 
ATOM     20  C   UNL     1       4.400   3.014  11.622  0.00  0.00    +0.000 A 
ATOM     21  C   UNL     1       5.246   2.099  10.998  0.00  0.00    +0.000 A 
ATOM     22  C   UNL     1       6.598   2.063  11.335  0.00  0.00    +0.000 A 
ATOM     23  C   UNL     1       7.115   2.940  12.297  0.00  0.00    +0.000 A 
ENDBRANCH  17  18
ENDBRANCH   8  17
TORSDOF 4
ENDMDL
MODEL 7
REMARK VINA RESULT:      -7.5      0.338      1.050
REMARK  Name = 
REMARK  4 active torsions:
REMARK  status: ('A' for Active; 'I' for Inactive)
REMARK    1  A    between atoms: C_4  and  C_5
REMARK    2  A    between atoms: C_5  and  N_6
REMARK    3  A    between atoms: N_13  and  C_14
REMARK    4  A    between atoms: C_14  and  C_15
REMARK                            x       y       z     vdW  Elec       q    Type
REMARK                         _______ _______ _______ _____ _____    ______ ____
ROOT
ATOM      1  N   UNL     1       4.702   5.690  18.369  0.00  0.00    +0.000 NA
ATOM      2  C   UNL     1       5.984   5.307  18.963  0.00  0.00    +0.000 C 
ATOM      3  C   UNL     1       7.155   5.428  17.975  0.00  0.00    +0.000 C 
ATOM      4  C   UNL     1       7.236   6.854  17.448  0.00  0.00    +0.000 C 
ATOM      5  C   UNL     1       5.921   7.125  16.736  0.00  0.00    +0.000 C 
ATOM      6  C   UNL     1       4.742   6.992  17.716  0.00  0.00    +0.000 C 
ATOM      7  C   UNL     1       5.819   6.209  15.505  0.00  0.00    +0.000 C 
ATOM      8  N   UNL     1       6.288   4.814  15.589  0.00  0.00    +0.000 NA
ATOM      9  C   UNL     1       7.069   4.443  16.789  0.00  0.00    +0.000 C 
ENDROOT
BRANCH   1  10
ATOM     10  C   UNL     1       3.576   5.561  19.299  0.00  0.00    +0.000 C 
BRANCH  10  14
ATOM     11  C   UNL     1       1.247   2.025  18.488  0.00  0.00    +0.000 A 
ATOM     12  C   UNL     1       2.350   2.321  17.689  0.00  0.00    +0.000 A 
ATOM     13  C   UNL     1       3.125   3.454  17.953  0.00  0.00    +0.000 A 
ATOM     14  C   UNL     1       2.789   4.297  19.020  0.00  0.00    +0.000 A 
ATOM     15  C   UNL     1       1.677   3.988  19.813  0.00  0.00    +0.000 A 
ATOM     16  C   UNL     1       0.908   2.859  19.551  0.00  0.00    +0.000 A 
ENDBRANCH  10  14
ENDBRANCH   1  10
BRANCH   8  17
ATOM     17  C   UNL     1       7.041   4.435  14.367  0.00  0.00    +0.000 C 
BRANCH  17  18
ATOM     18  C   UNL     1       6.231   3.804  13.250  0.00  0.00    +0.000 A 
ATOM     19  C   UNL     1       6.840   2.907  12.352  0.00  0.00    +0.000 A 
ATOM     20  C   UNL     1       6.103   2.289  11.339  0.00  0.00    +0.000 A 
ATOM     21  C   UNL     1       4.739   2.549  11.216  0.00  0.00    +0.000 A 
ATOM     22  C   UNL     1       4.121   3.434  12.099  0.00  0.00    +0.000 A 
ATOM     23  C   UNL     1       4.859   4.065  13.108  0.00  0.00    +0.000 A 
ENDBRANCH  17  18
ENDBRANCH   8  17
TORSDOF 4
ENDMDL
MODEL 8
REMARK VINA RESULT:      -7.5      1.252      6.589
REMARK  Name = 
REMARK  4 active torsions:
REMARK  status: ('A' for Active; 'I' for Inactive)
REMARK    1  A    between atoms: C_4  and  C_5
REMARK    2  A    between atoms: C_5  and  N_6
REMARK    3  A    between atoms: N_13  and  C_14
REMARK    4  A    between atoms: C_14  and  C_15
REMARK                            x       y       z     vdW  Elec       q    Type
REMARK                         _______ _______ _______ _____ _____    ______ ____
ROOT
ATOM      1  N   UNL     1       6.317   5.027  15.419  0.00  0.00    +0.000 NA
ATOM      2  C   UNL     1       6.910   5.921  16.415  0.00  0.00    +0.000 C 
ATOM      3  C   UNL     1       6.140   5.920  17.745  0.00  0.00    +0.000 C 
ATOM      4  C   UNL     1       6.071   4.503  18.298  0.00  0.00    +0.000 C 
ATOM      5  C   UNL     1       5.330   3.672  17.263  0.00  0.00    +0.000 C 
ATOM      6  C   UNL     1       6.089   3.680  15.924  0.00  0.00    +0.000 C 
ATOM      7  C   UNL     1       3.879   4.173  17.164  0.00  0.00    +0.000 C 
ATOM      8  N   UNL     1       3.598   5.618  17.226  0.00  0.00    +0.000 NA
ATOM      9  C   UNL     1       4.713   6.500  17.634  0.00  0.00    +0.000 C 
ENDROOT
BRANCH   1  10
ATOM     10  C   UNL     1       7.035   5.035  14.140  0.00  0.00    +0.000 C 
BRANCH  10  14
ATOM     11  C   UNL     1       5.158   2.413  11.278  0.00  0.00    +0.000 A 
ATOM     12  C   UNL     1       6.540   2.365  11.452  0.00  0.00    +0.000 A 
ATOM     13  C   UNL     1       7.159   3.196  12.391  0.00  0.00    +0.000 A 
ATOM     14  C   UNL     1       6.389   4.083  13.154  0.00  0.00    +0.000 A 
ATOM     15  C   UNL     1       5.002   4.121  12.967  0.00  0.00    +0.000 A 
ATOM     16  C   UNL     1       4.386   3.292  12.034  0.00  0.00    +0.000 A 
ENDBRANCH  10  14
ENDBRANCH   1  10
BRANCH   8  17
ATOM     17  C   UNL     1       2.411   5.890  18.074  0.00  0.00    +0.000 C 
BRANCH  17  18
ATOM     18  C   UNL     1       2.048   4.818  19.084  0.00  0.00    +0.000 A 
ATOM     19  C   UNL     1       2.490   4.919  20.417  0.00  0.00    +0.000 A 
ATOM     20  C   UNL     1       2.137   3.960  21.369  0.00  0.00    +0.000 A 
ATOM     21  C   UNL     1       1.323   2.889  21.005  0.00  0.00    +0.000 A 
ATOM     22  C   UNL     1       0.876   2.775  19.689  0.00  0.00    +0.000 A 
ATOM     23  C   UNL     1       1.237   3.727  18.729  0.00  0.00    +0.000 A 
ENDBRANCH  17  18
ENDBRANCH   8  17
TORSDOF 4
ENDMDL
MODEL 9
REMARK VINA RESULT:      -7.5      1.249      6.504
REMARK  Name = 
REMARK  4 active torsions:
REMARK  status: ('A' for Active; 'I' for Inactive)
REMARK    1  A    between atoms: C_4  and  C_5
REMARK    2  A    between atoms: C_5  and  N_6
REMARK    3  A    between atoms: N_13  and  C_14
REMARK    4  A    between atoms: C_14  and  C_15
REMARK                            x       y       z     vdW  Elec       q    Type
REMARK                         _______ _______ _______ _____ _____    ______ ____
ROOT
ATOM      1  N   UNL     1       6.361   5.055  15.510  0.00  0.00    +0.000 NA
ATOM      2  C   UNL     1       6.940   5.924  16.536  0.00  0.00    +0.000 C 
ATOM      3  C   UNL     1       6.132   5.916  17.844  0.00  0.00    +0.000 C 
ATOM      4  C   UNL     1       6.025   4.492  18.372  0.00  0.00    +0.000 C 
ATOM      5  C   UNL     1       5.300   3.689  17.304  0.00  0.00    +0.000 C 
ATOM      6  C   UNL     1       6.096   3.705  15.987  0.00  0.00    +0.000 C 
ATOM      7  C   UNL     1       3.861   4.216  17.172  0.00  0.00    +0.000 C 
ATOM      8  N   UNL     1       3.602   5.665  17.248  0.00  0.00    +0.000 NA
ATOM      9  C   UNL     1       4.719   6.521  17.701  0.00  0.00    +0.000 C 
ENDROOT
BRANCH   1  10
ATOM     10  C   UNL     1       7.115   5.070  14.252  0.00  0.00    +0.000 C 
BRANCH  10  14
ATOM     11  C   UNL     1       5.273   2.463  11.354  0.00  0.00    +0.000 A 
ATOM     12  C   UNL     1       4.473   3.279  12.152  0.00  0.00    +0.000 A 
ATOM     13  C   UNL     1       5.059   4.143  13.082  0.00  0.00    +0.000 A 
ATOM     14  C   UNL     1       6.453   4.185  13.216  0.00  0.00    +0.000 A 
ATOM     15  C   UNL     1       7.243   3.358  12.409  0.00  0.00    +0.000 A 
ATOM     16  C   UNL     1       6.659   2.500  11.482  0.00  0.00    +0.000 A 
ENDBRANCH  10  14
ENDBRANCH   1  10
BRANCH   8  17
ATOM     17  C   UNL     1       2.395   5.944  18.067  0.00  0.00    +0.000 C 
BRANCH  17  18
ATOM     18  C   UNL     1       2.033   4.899  19.106  0.00  0.00    +0.000 A 
ATOM     19  C   UNL     1       1.216   3.807  18.759  0.00  0.00    +0.000 A 
ATOM     20  C   UNL     1       0.901   2.817  19.693  0.00  0.00    +0.000 A 
ATOM     21  C   UNL     1       1.411   2.898  20.988  0.00  0.00    +0.000 A 
ATOM     22  C   UNL     1       2.223   3.973  21.347  0.00  0.00    +0.000 A 
ATOM     23  C   UNL     1       2.531   4.974  20.417  0.00  0.00    +0.000 A 
ENDBRANCH  17  18
ENDBRANCH   8  17
TORSDOF 4
ENDMDL
