MODEL 1
REMARK VINA RESULT:      -7.5      0.000      0.000
REMARK  Name = 
REMARK  9 active torsions:
REMARK  status: ('A' for Active; 'I' for Inactive)
REMARK    1  A    between atoms: C_2  and  C_3
REMARK    2  A    between atoms: C_3  and  C_4
REMARK    3  A    between atoms: C_4  and  C_5
REMARK    4  A    between atoms: N_11  and  C_12
REMARK    5  A    between atoms: C_13  and  C_14
REMARK    6  A    between atoms: C_14  and  O_15
REMARK    7  A    between atoms: C_17  and  N_18
REMARK    8  A    between atoms: N_23  and  C_24
REMARK    9  A    between atoms: C_33  and  O_34
REMARK                            x       y       z     vdW  Elec       q    Type
REMARK                         _______ _______ _______ _____ _____    ______ ____
ROOT
ATOM      1  C   UNL     1      -0.992  12.551  20.406  0.00  0.00    +0.000 C 
ATOM      2  C   UNL     1      -1.343  12.563  21.888  0.00  0.00    +0.000 C 
ATOM      3  O   UNL     1      -0.709  11.359  22.388  0.00  0.00    +0.000 OA
ATOM      4  C   UNL     1       0.546  11.204  21.646  0.00  0.00    +0.000 C 
ATOM      5  C   UNL     1       0.508  12.275  20.531  0.00  0.00    +0.000 C 
ENDROOT
BRANCH   4   6
ATOM      6  N   UNL     1       0.727   9.865  21.079  0.00  0.00    +0.000 N 
ATOM      7  C   UNL     1       0.644   8.723  21.848  0.00  0.00    +0.000 A 
ATOM      8  N   UNL     1       1.201   7.687  21.255  0.00  0.00    +0.000 NA
ATOM      9  C   UNL     1       1.570   8.155  20.009  0.00  0.00    +0.000 A 
ATOM     10  C   UNL     1       2.307   7.568  18.955  0.00  0.00    +0.000 A 
ATOM     11  N   UNL     1       2.886   6.319  19.063  0.00  0.00    +0.000 N 
ATOM     12  N   UNL     1       2.446   8.289  17.812  0.00  0.00    +0.000 NA
ATOM     13  C   UNL     1       1.885   9.511  17.744  0.00  0.00    +0.000 A 
ATOM     14  N   UNL     1       1.319  10.221  18.737  0.00  0.00    +0.000 NA
ATOM     15  C   UNL     1       1.183   9.480  19.848  0.00  0.00    +0.000 A 
ATOM     16  H   UNL     1       2.547   5.714  19.801  0.00  0.00    +0.000 HD
BRANCH  11  17
ATOM     17  C   UNL     1       4.094   5.998  18.332  0.00  0.00    +0.000 C 
ATOM     18  C   UNL     1       5.118   5.298  19.228  0.00  0.00    +0.000 C 
ATOM     19  C   UNL     1       5.998   4.523  18.258  0.00  0.00    +0.000 C 
ATOM     20  C   UNL     1       5.108   4.187  17.065  0.00  0.00    +0.000 C 
ATOM     21  C   UNL     1       3.812   4.969  17.247  0.00  0.00    +0.000 C 
ENDBRANCH  11  17
ENDBRANCH   4   6
BRANCH   1  24
ATOM     22  O   UNL     1      -1.506  12.234  17.615  0.00  0.00    +0.000 OA
ATOM     23  C   UNL     1      -1.940  11.384  18.386  0.00  0.00    +0.000 C 
ATOM     24  N   UNL     1      -1.705  11.445  19.731  0.00  0.00    +0.000 N 
ATOM     25  H   UNL     1      -2.080  10.706  20.320  0.00  0.00    +0.000 HD
BRANCH  23  26
ATOM     26  C   UNL     1      -2.690  10.161  17.879  0.00  0.00    +0.000 C 
BRANCH  26  27
ATOM     27  C   UNL     1      -3.834  10.425  16.893  0.00  0.00    +0.000 C 
BRANCH  27  28
ATOM     28  C   UNL     1      -5.057  11.120  17.448  0.00  0.00    +0.000 A 
ATOM     29  C   UNL     1      -5.801  10.589  18.509  0.00  0.00    +0.000 A 
ATOM     30  C   UNL     1      -6.960  11.225  18.955  0.00  0.00    +0.000 A 
ATOM     31  C   UNL     1      -7.374  12.417  18.369  0.00  0.00    +0.000 A 
ATOM     32  C   UNL     1      -6.611  12.992  17.357  0.00  0.00    +0.000 A 
ATOM     33  C   UNL     1      -5.453  12.354  16.906  0.00  0.00    +0.000 A 
ENDBRANCH  27  28
ENDBRANCH  26  27
ENDBRANCH  23  26
ENDBRANCH   1  24
BRANCH   5  34
ATOM     34  O   UNL     1       1.245  13.449  20.921  0.00  0.00    +0.000 OA
ATOM     35  H   UNL     1       2.031  13.565  20.356  0.00  0.00    +0.000 HD
ENDBRANCH   5  34
BRANCH   2  36
ATOM     36  C   UNL     1      -2.837  12.697  22.167  0.00  0.00    +0.000 C 
BRANCH  36  37
ATOM     37  O   UNL     1      -3.467  13.428  21.114  0.00  0.00    +0.000 OA
ATOM     38  H   UNL     1      -3.158  13.053  20.267  0.00  0.00    +0.000 HD
ENDBRANCH  36  37
ENDBRANCH   2  36
TORSDOF 9
ENDMDL
MODEL 2
REMARK VINA RESULT:      -7.0      7.128     11.676
REMARK  Name = 
REMARK  9 active torsions:
REMARK  status: ('A' for Active; 'I' for Inactive)
REMARK    1  A    between atoms: C_2  and  C_3
REMARK    2  A    between atoms: C_3  and  C_4
REMARK    3  A    between atoms: C_4  and  C_5
REMARK    4  A    between atoms: N_11  and  C_12
REMARK    5  A    between atoms: C_13  and  C_14
REMARK    6  A    between atoms: C_14  and  O_15
REMARK    7  A    between atoms: C_17  and  N_18
REMARK    8  A    between atoms: N_23  and  C_24
REMARK    9  A    between atoms: C_33  and  O_34
REMARK                            x       y       z     vdW  Elec       q    Type
REMARK                         _______ _______ _______ _____ _____    ______ ____
ROOT
ATOM      1  C   UNL     1       9.957  13.155  19.463  0.00  0.00    +0.000 C 
ATOM      2  C   UNL     1      10.620  14.049  18.425  0.00  0.00    +0.000 C 
ATOM      3  O   UNL     1       9.542  14.921  18.000  0.00  0.00    +0.000 OA
ATOM      4  C   UNL     1       8.720  15.183  19.186  0.00  0.00    +0.000 C 
ATOM      5  C   UNL     1       9.262  14.241  20.288  0.00  0.00    +0.000 C 
ENDROOT
BRANCH   4   6
ATOM      6  N   UNL     1       7.289  14.960  18.966  0.00  0.00    +0.000 N 
ATOM      7  C   UNL     1       6.810  14.300  17.852  0.00  0.00    +0.000 A 
ATOM      8  N   UNL     1       5.530  14.536  17.651  0.00  0.00    +0.000 NA
ATOM      9  C   UNL     1       5.141  15.298  18.736  0.00  0.00    +0.000 A 
ATOM     10  C   UNL     1       3.931  15.959  19.047  0.00  0.00    +0.000 A 
ATOM     11  N   UNL     1       2.861  15.992  18.174  0.00  0.00    +0.000 N 
ATOM     12  N   UNL     1       3.851  16.586  20.248  0.00  0.00    +0.000 NA
ATOM     13  C   UNL     1       4.917  16.551  21.071  0.00  0.00    +0.000 A 
ATOM     14  N   UNL     1       6.158  16.104  20.802  0.00  0.00    +0.000 NA
ATOM     15  C   UNL     1       6.202  15.478  19.616  0.00  0.00    +0.000 A 
ATOM     16  H   UNL     1       2.852  15.309  17.426  0.00  0.00    +0.000 HD
BRANCH  11  17
ATOM     17  C   UNL     1       1.944  17.112  18.169  0.00  0.00    +0.000 C 
ATOM     18  C   UNL     1       1.826  17.731  16.775  0.00  0.00    +0.000 C 
ATOM     19  C   UNL     1       0.473  18.428  16.786  0.00  0.00    +0.000 C 
ATOM     20  C   UNL     1      -0.396  17.635  17.759  0.00  0.00    +0.000 C 
ATOM     21  C   UNL     1       0.526  16.651  18.472  0.00  0.00    +0.000 C 
ENDBRANCH  11  17
ENDBRANCH   4   6
BRANCH   1  24
ATOM     22  O   UNL     1       9.968  10.300  19.400  0.00  0.00    +0.000 OA
ATOM     23  C   UNL     1       9.082  10.892  18.790  0.00  0.00    +0.000 C 
ATOM     24  N   UNL     1       8.986  12.255  18.803  0.00  0.00    +0.000 N 
ATOM     25  H   UNL     1       8.225  12.690  18.289  0.00  0.00    +0.000 HD
BRANCH  23  26
ATOM     26  C   UNL     1       7.982  10.137  18.058  0.00  0.00    +0.000 C 
BRANCH  26  27
ATOM     27  C   UNL     1       8.381   8.801  17.422  0.00  0.00    +0.000 C 
BRANCH  27  28
ATOM     28  C   UNL     1       7.595   7.584  17.854  0.00  0.00    +0.000 A 
ATOM     29  C   UNL     1       6.342   7.273  17.311  0.00  0.00    +0.000 A 
ATOM     30  C   UNL     1       5.616   6.176  17.777  0.00  0.00    +0.000 A 
ATOM     31  C   UNL     1       6.145   5.357  18.769  0.00  0.00    +0.000 A 
ATOM     32  C   UNL     1       7.417   5.614  19.273  0.00  0.00    +0.000 A 
ATOM     33  C   UNL     1       8.143   6.714  18.811  0.00  0.00    +0.000 A 
ENDBRANCH  27  28
ENDBRANCH  26  27
ENDBRANCH  23  26
ENDBRANCH   1  24
BRANCH   5  34
ATOM     34  O   UNL     1      10.181  14.937  21.152  0.00  0.00    +0.000 OA
ATOM     35  H   UNL     1      10.128  15.899  21.005  0.00  0.00    +0.000 HD
ENDBRANCH   5  34
BRANCH   2  36
ATOM     36  C   UNL     1      11.336  13.283  17.316  0.00  0.00    +0.000 C 
BRANCH  36  37
ATOM     37  O   UNL     1      11.534  14.134  16.185  0.00  0.00    +0.000 OA
ATOM     38  H   UNL     1      10.721  14.105  15.646  0.00  0.00    +0.000 HD
ENDBRANCH  36  37
ENDBRANCH   2  36
TORSDOF 9
ENDMDL
MODEL 3
REMARK VINA RESULT:      -6.9      3.839      7.244
REMARK  Name = 
REMARK  9 active torsions:
REMARK  status: ('A' for Active; 'I' for Inactive)
REMARK    1  A    between atoms: C_2  and  C_3
REMARK    2  A    between atoms: C_3  and  C_4
REMARK    3  A    between atoms: C_4  and  C_5
REMARK    4  A    between atoms: N_11  and  C_12
REMARK    5  A    between atoms: C_13  and  C_14
REMARK    6  A    between atoms: C_14  and  O_15
REMARK    7  A    between atoms: C_17  and  N_18
REMARK    8  A    between atoms: N_23  and  C_24
REMARK    9  A    between atoms: C_33  and  O_34
REMARK                            x       y       z     vdW  Elec       q    Type
REMARK                         _______ _______ _______ _____ _____    ______ ____
ROOT
ATOM      1  C   UNL     1      -6.291  12.864  18.896  0.00  0.00    +0.000 C 
ATOM      2  C   UNL     1      -6.936  12.107  20.049  0.00  0.00    +0.000 C 
ATOM      3  O   UNL     1      -6.297  12.677  21.219  0.00  0.00    +0.000 OA
ATOM      4  C   UNL     1      -6.087  14.100  20.934  0.00  0.00    +0.000 C 
ATOM      5  C   UNL     1      -6.451  14.285  19.441  0.00  0.00    +0.000 C 
ENDROOT
BRANCH   4   6
ATOM      6  N   UNL     1      -4.719  14.553  21.198  0.00  0.00    +0.000 N 
ATOM      7  C   UNL     1      -4.255  15.781  20.771  0.00  0.00    +0.000 A 
ATOM      8  N   UNL     1      -2.940  15.836  20.766  0.00  0.00    +0.000 NA
ATOM      9  C   UNL     1      -2.537  14.630  21.307  0.00  0.00    +0.000 A 
ATOM     10  C   UNL     1      -1.263  14.039  21.464  0.00  0.00    +0.000 A 
ATOM     11  N   UNL     1      -0.110  14.626  20.981  0.00  0.00    +0.000 N 
ATOM     12  N   UNL     1      -1.203  12.843  22.105  0.00  0.00    +0.000 NA
ATOM     13  C   UNL     1      -2.346  12.286  22.548  0.00  0.00    +0.000 A 
ATOM     14  N   UNL     1      -3.610  12.678  22.300  0.00  0.00    +0.000 NA
ATOM     15  C   UNL     1      -3.638  13.867  21.679  0.00  0.00    +0.000 A 
ATOM     16  H   UNL     1      -0.152  15.613  20.757  0.00  0.00    +0.000 HD
BRANCH  11  17
ATOM     17  C   UNL     1       1.016  13.816  20.567  0.00  0.00    +0.000 C 
ATOM     18  C   UNL     1       0.865  13.352  19.117  0.00  0.00    +0.000 C 
ATOM     19  C   UNL     1       2.291  13.070  18.662  0.00  0.00    +0.000 C 
ATOM     20  C   UNL     1       3.180  14.009  19.472  0.00  0.00    +0.000 C 
ATOM     21  C   UNL     1       2.295  14.641  20.543  0.00  0.00    +0.000 C 
ENDBRANCH  11  17
ENDBRANCH   4   6
BRANCH   1  24
ATOM     22  O   UNL     1      -5.029  11.473  16.746  0.00  0.00    +0.000 OA
ATOM     23  C   UNL     1      -4.348  11.775  17.721  0.00  0.00    +0.000 C 
ATOM     24  N   UNL     1      -4.869  12.474  18.774  0.00  0.00    +0.000 N 
ATOM     25  H   UNL     1      -4.255  12.706  19.550  0.00  0.00    +0.000 HD
BRANCH  23  26
ATOM     26  C   UNL     1      -2.859  11.470  17.775  0.00  0.00    +0.000 C 
BRANCH  26  27
ATOM     27  C   UNL     1      -2.317  10.965  19.118  0.00  0.00    +0.000 C 
BRANCH  27  28
ATOM     28  C   UNL     1      -0.952  10.316  19.095  0.00  0.00    +0.000 A 
ATOM     29  C   UNL     1      -0.260  10.074  17.902  0.00  0.00    +0.000 A 
ATOM     30  C   UNL     1       0.972   9.417  17.913  0.00  0.00    +0.000 A 
ATOM     31  C   UNL     1       1.543   9.022  19.118  0.00  0.00    +0.000 A 
ATOM     32  C   UNL     1       0.899   9.312  20.318  0.00  0.00    +0.000 A 
ATOM     33  C   UNL     1      -0.336   9.965  20.308  0.00  0.00    +0.000 A 
ENDBRANCH  27  28
ENDBRANCH  26  27
ENDBRANCH  23  26
ENDBRANCH   1  24
BRANCH   5  34
ATOM     34  O   UNL     1      -7.798  14.774  19.298  0.00  0.00    +0.000 OA
ATOM     35  H   UNL     1      -7.954  15.529  19.893  0.00  0.00    +0.000 HD
ENDBRANCH   5  34
BRANCH   2  36
ATOM     36  C   UNL     1      -6.853  10.589  19.915  0.00  0.00    +0.000 C 
BRANCH  36  37
ATOM     37  O   UNL     1      -7.181  10.198  18.581  0.00  0.00    +0.000 OA
ATOM     38  H   UNL     1      -6.351   9.949  18.132  0.00  0.00    +0.000 HD
ENDBRANCH  36  37
ENDBRANCH   2  36
TORSDOF 9
ENDMDL
MODEL 4
REMARK VINA RESULT:      -6.9      4.434      8.104
REMARK  Name = 
REMARK  9 active torsions:
REMARK  status: ('A' for Active; 'I' for Inactive)
REMARK    1  A    between atoms: C_2  and  C_3
REMARK    2  A    between atoms: C_3  and  C_4
REMARK    3  A    between atoms: C_4  and  C_5
REMARK    4  A    between atoms: N_11  and  C_12
REMARK    5  A    between atoms: C_13  and  C_14
REMARK    6  A    between atoms: C_14  and  O_15
REMARK    7  A    between atoms: C_17  and  N_18
REMARK    8  A    between atoms: N_23  and  C_24
REMARK    9  A    between atoms: C_33  and  O_34
REMARK                            x       y       z     vdW  Elec       q    Type
REMARK                         _______ _______ _______ _____ _____    ______ ____
ROOT
ATOM      1  C   UNL     1      -5.720  13.945  23.984  0.00  0.00    +0.000 C 
ATOM      2  C   UNL     1      -6.244  15.314  23.573  0.00  0.00    +0.000 C 
ATOM      3  O   UNL     1      -6.981  15.035  22.356  0.00  0.00    +0.000 OA
ATOM      4  C   UNL     1      -7.610  13.722  22.536  0.00  0.00    +0.000 C 
ATOM      5  C   UNL     1      -7.023  13.154  23.850  0.00  0.00    +0.000 C 
ENDROOT
BRANCH   4   6
ATOM      6  N   UNL     1      -7.375  12.805  21.419  0.00  0.00    +0.000 N 
ATOM      7  C   UNL     1      -7.344  11.435  21.586  0.00  0.00    +0.000 A 
ATOM      8  N   UNL     1      -6.755  10.828  20.577  0.00  0.00    +0.000 NA
ATOM      9  C   UNL     1      -6.482  11.836  19.673  0.00  0.00    +0.000 A 
ATOM     10  C   UNL     1      -5.767  11.851  18.454  0.00  0.00    +0.000 A 
ATOM     11  N   UNL     1      -5.105  10.740  17.971  0.00  0.00    +0.000 N 
ATOM     12  N   UNL     1      -5.735  13.019  17.762  0.00  0.00    +0.000 NA
ATOM     13  C   UNL     1      -6.374  14.091  18.267  0.00  0.00    +0.000 A 
ATOM     14  N   UNL     1      -6.931  14.227  19.485  0.00  0.00    +0.000 NA
ATOM     15  C   UNL     1      -6.961  13.056  20.139  0.00  0.00    +0.000 A 
ATOM     16  H   UNL     1      -5.365   9.841  18.360  0.00  0.00    +0.000 HD
BRANCH  11  17
ATOM     17  C   UNL     1      -3.919  10.882  17.153  0.00  0.00    +0.000 C 
ATOM     18  C   UNL     1      -2.898   9.783  17.455  0.00  0.00    +0.000 C 
ATOM     19  C   UNL     1      -2.056   9.694  16.190  0.00  0.00    +0.000 C 
ATOM     20  C   UNL     1      -2.976  10.112  15.047  0.00  0.00    +0.000 C 
ATOM     21  C   UNL     1      -4.248  10.663  15.683  0.00  0.00    +0.000 C 
ENDBRANCH  11  17
ENDBRANCH   4   6
BRANCH   1  24
ATOM     22  O   UNL     1      -2.967  13.376  24.485  0.00  0.00    +0.000 OA
ATOM     23  C   UNL     1      -3.382  13.272  23.334  0.00  0.00    +0.000 C 
ATOM     24  N   UNL     1      -4.694  13.491  23.020  0.00  0.00    +0.000 N 
ATOM     25  H   UNL     1      -4.983  13.379  22.052  0.00  0.00    +0.000 HD
BRANCH  23  26
ATOM     26  C   UNL     1      -2.478  12.804  22.204  0.00  0.00    +0.000 C 
BRANCH  26  27
ATOM     27  C   UNL     1      -1.046  12.420  22.593  0.00  0.00    +0.000 C 
BRANCH  27  28
ATOM     28  C   UNL     1      -0.467  11.196  21.919  0.00  0.00    +0.000 A 
ATOM     29  C   UNL     1      -0.019  11.216  20.592  0.00  0.00    +0.000 A 
ATOM     30  C   UNL     1       0.452  10.052  19.982  0.00  0.00    +0.000 A 
ATOM     31  C   UNL     1       0.513   8.862  20.699  0.00  0.00    +0.000 A 
ATOM     32  C   UNL     1       0.134   8.840  22.038  0.00  0.00    +0.000 A 
ATOM     33  C   UNL     1      -0.344  10.002  22.649  0.00  0.00    +0.000 A 
ENDBRANCH  27  28
ENDBRANCH  26  27
ENDBRANCH  23  26
ENDBRANCH   1  24
BRANCH   5  34
ATOM     34  O   UNL     1      -7.917  13.388  24.955  0.00  0.00    +0.000 OA
ATOM     35  H   UNL     1      -7.927  14.333  25.193  0.00  0.00    +0.000 HD
ENDBRANCH   5  34
BRANCH   2  36
ATOM     36  C   UNL     1      -5.161  16.384  23.467  0.00  0.00    +0.000 C 
BRANCH  36  37
ATOM     37  O   UNL     1      -5.332  17.133  22.262  0.00  0.00    +0.000 OA
ATOM     38  H   UNL     1      -5.166  16.530  21.512  0.00  0.00    +0.000 HD
ENDBRANCH  36  37
ENDBRANCH   2  36
TORSDOF 9
ENDMDL
MODEL 5
REMARK VINA RESULT:      -6.9      4.816      8.241
REMARK  Name = 
REMARK  9 active torsions:
REMARK  status: ('A' for Active; 'I' for Inactive)
REMARK    1  A    between atoms: C_2  and  C_3
REMARK    2  A    between atoms: C_3  and  C_4
REMARK    3  A    between atoms: C_4  and  C_5
REMARK    4  A    between atoms: N_11  and  C_12
REMARK    5  A    between atoms: C_13  and  C_14
REMARK    6  A    between atoms: C_14  and  O_15
REMARK    7  A    between atoms: C_17  and  N_18
REMARK    8  A    between atoms: N_23  and  C_24
REMARK    9  A    between atoms: C_33  and  O_34
REMARK                            x       y       z     vdW  Elec       q    Type
REMARK                         _______ _______ _______ _____ _____    ______ ____
ROOT
ATOM      1  C   UNL     1      -5.816  14.339  23.882  0.00  0.00    +0.000 C 
ATOM      2  C   UNL     1      -6.435  15.676  23.495  0.00  0.00    +0.000 C 
ATOM      3  O   UNL     1      -7.232  15.347  22.329  0.00  0.00    +0.000 OA
ATOM      4  C   UNL     1      -7.779  14.005  22.557  0.00  0.00    +0.000 C 
ATOM      5  C   UNL     1      -7.083  13.481  23.835  0.00  0.00    +0.000 C 
ENDROOT
BRANCH   4   6
ATOM      6  N   UNL     1      -7.566  13.090  21.433  0.00  0.00    +0.000 N 
ATOM      7  C   UNL     1      -7.428  11.728  21.610  0.00  0.00    +0.000 A 
ATOM      8  N   UNL     1      -6.877  11.148  20.564  0.00  0.00    +0.000 NA
ATOM      9  C   UNL     1      -6.745  12.160  19.633  0.00  0.00    +0.000 A 
ATOM     10  C   UNL     1      -6.127  12.206  18.363  0.00  0.00    +0.000 A 
ATOM     11  N   UNL     1      -5.428  11.135  17.840  0.00  0.00    +0.000 N 
ATOM     12  N   UNL     1      -6.229  13.363  17.659  0.00  0.00    +0.000 NA
ATOM     13  C   UNL     1      -6.901  14.396  18.202  0.00  0.00    +0.000 A 
ATOM     14  N   UNL     1      -7.371  14.511  19.458  0.00  0.00    +0.000 NA
ATOM     15  C   UNL     1      -7.270  13.350  20.123  0.00  0.00    +0.000 A 
ATOM     16  H   UNL     1      -5.595  10.227  18.256  0.00  0.00    +0.000 HD
BRANCH  11  17
ATOM     17  C   UNL     1      -4.321  11.346  16.932  0.00  0.00    +0.000 C 
ATOM     18  C   UNL     1      -2.980  11.295  17.665  0.00  0.00    +0.000 C 
ATOM     19  C   UNL     1      -1.973  10.932  16.582  0.00  0.00    +0.000 C 
ATOM     20  C   UNL     1      -2.744  10.105  15.557  0.00  0.00    +0.000 C 
ATOM     21  C   UNL     1      -4.220  10.205  15.929  0.00  0.00    +0.000 C 
ENDBRANCH  11  17
ENDBRANCH   4   6
BRANCH   1  24
ATOM     22  O   UNL     1      -4.106  12.053  23.906  0.00  0.00    +0.000 OA
ATOM     23  C   UNL     1      -4.021  12.832  22.961  0.00  0.00    +0.000 C 
ATOM     24  N   UNL     1      -4.830  13.929  22.859  0.00  0.00    +0.000 N 
ATOM     25  H   UNL     1      -4.722  14.534  22.049  0.00  0.00    +0.000 HD
BRANCH  23  26
ATOM     26  C   UNL     1      -3.071  12.574  21.801  0.00  0.00    +0.000 C 
BRANCH  26  27
ATOM     27  C   UNL     1      -1.573  12.638  22.122  0.00  0.00    +0.000 C 
BRANCH  27  28
ATOM     28  C   UNL     1      -0.626  12.255  21.008  0.00  0.00    +0.000 A 
ATOM     29  C   UNL     1       0.202  13.192  20.377  0.00  0.00    +0.000 A 
ATOM     30  C   UNL     1       1.019  12.816  19.310  0.00  0.00    +0.000 A 
ATOM     31  C   UNL     1       1.045  11.493  18.880  0.00  0.00    +0.000 A 
ATOM     32  C   UNL     1       0.278  10.537  19.539  0.00  0.00    +0.000 A 
ATOM     33  C   UNL     1      -0.545  10.912  20.604  0.00  0.00    +0.000 A 
ENDBRANCH  27  28
ENDBRANCH  26  27
ENDBRANCH  23  26
ENDBRANCH   1  24
BRANCH   5  34
ATOM     34  O   UNL     1      -7.916  13.680  24.993  0.00  0.00    +0.000 OA
ATOM     35  H   UNL     1      -8.850  13.502  24.777  0.00  0.00    +0.000 HD
ENDBRANCH   5  34
BRANCH   2  36
ATOM     36  C   UNL     1      -5.418  16.798  23.314  0.00  0.00    +0.000 C 
BRANCH  36  37
ATOM     37  O   UNL     1      -5.697  17.861  24.227  0.00  0.00    +0.000 OA
ATOM     38  H   UNL     1      -6.554  17.669  24.654  0.00  0.00    +0.000 HD
ENDBRANCH  36  37
ENDBRANCH   2  36
TORSDOF 9
ENDMDL
MODEL 6
REMARK VINA RESULT:      -6.8      2.924      5.423
REMARK  Name = 
REMARK  9 active torsions:
REMARK  status: ('A' for Active; 'I' for Inactive)
REMARK    1  A    between atoms: C_2  and  C_3
REMARK    2  A    between atoms: C_3  and  C_4
REMARK    3  A    between atoms: C_4  and  C_5
REMARK    4  A    between atoms: N_11  and  C_12
REMARK    5  A    between atoms: C_13  and  C_14
REMARK    6  A    between atoms: C_14  and  O_15
REMARK    7  A    between atoms: C_17  and  N_18
REMARK    8  A    between atoms: N_23  and  C_24
REMARK    9  A    between atoms: C_33  and  O_34
REMARK                            x       y       z     vdW  Elec       q    Type
REMARK                         _______ _______ _______ _____ _____    ______ ____
ROOT
ATOM      1  C   UNL     1      -0.210  11.464  20.348  0.00  0.00    +0.000 C 
ATOM      2  C   UNL     1      -1.352  11.165  19.387  0.00  0.00    +0.000 C 
ATOM      3  O   UNL     1      -0.826  10.086  18.573  0.00  0.00    +0.000 OA
ATOM      4  C   UNL     1      -0.002   9.255  19.457  0.00  0.00    +0.000 C 
ATOM      5  C   UNL     1       0.094  10.032  20.792  0.00  0.00    +0.000 C 
ENDROOT
BRANCH   4   6
ATOM      6  N   UNL     1       1.331   8.974  18.919  0.00  0.00    +0.000 N 
ATOM      7  C   UNL     1       1.882   9.715  17.893  0.00  0.00    +0.000 A 
ATOM      8  N   UNL     1       2.882   9.087  17.312  0.00  0.00    +0.000 NA
ATOM      9  C   UNL     1       3.050   7.935  18.056  0.00  0.00    +0.000 A 
ATOM     10  C   UNL     1       3.877   6.802  17.878  0.00  0.00    +0.000 A 
ATOM     11  N   UNL     1       4.681   6.640  16.767  0.00  0.00    +0.000 N 
ATOM     12  N   UNL     1       3.849   5.849  18.844  0.00  0.00    +0.000 NA
ATOM     13  C   UNL     1       3.041   6.026  19.907  0.00  0.00    +0.000 A 
ATOM     14  N   UNL     1       2.099   6.971  20.085  0.00  0.00    +0.000 NA
ATOM     15  C   UNL     1       2.161   7.906  19.124  0.00  0.00    +0.000 A 
ATOM     16  H   UNL     1       4.880   7.466  16.215  0.00  0.00    +0.000 HD
BRANCH  11  17
ATOM     17  C   UNL     1       4.999   5.319  16.269  0.00  0.00    +0.000 C 
ATOM     18  C   UNL     1       5.153   5.317  14.747  0.00  0.00    +0.000 C 
ATOM     19  C   UNL     1       6.031   4.108  14.459  0.00  0.00    +0.000 C 
ATOM     20  C   UNL     1       6.909   3.927  15.694  0.00  0.00    +0.000 C 
ATOM     21  C   UNL     1       6.368   4.870  16.763  0.00  0.00    +0.000 C 
ENDBRANCH  11  17
ENDBRANCH   4   6
BRANCH   1  24
ATOM     22  O   UNL     1       1.745  13.303  21.325  0.00  0.00    +0.000 OA
ATOM     23  C   UNL     1       1.797  12.972  20.144  0.00  0.00    +0.000 C 
ATOM     24  N   UNL     1       0.921  12.069  19.611  0.00  0.00    +0.000 N 
ATOM     25  H   UNL     1       1.019  11.824  18.629  0.00  0.00    +0.000 HD
BRANCH  23  26
ATOM     26  C   UNL     1       2.899  13.478  19.226  0.00  0.00    +0.000 C 
BRANCH  26  27
ATOM     27  C   UNL     1       3.362  14.922  19.452  0.00  0.00    +0.000 C 
BRANCH  27  28
ATOM     28  C   UNL     1       2.618  15.998  18.694  0.00  0.00    +0.000 A 
ATOM     29  C   UNL     1       1.407  16.532  19.152  0.00  0.00    +0.000 A 
ATOM     30  C   UNL     1       0.715  17.480  18.396  0.00  0.00    +0.000 A 
ATOM     31  C   UNL     1       1.240  17.931  17.189  0.00  0.00    +0.000 A 
ATOM     32  C   UNL     1       2.474  17.459  16.752  0.00  0.00    +0.000 A 
ATOM     33  C   UNL     1       3.165  16.506  17.505  0.00  0.00    +0.000 A 
ENDBRANCH  27  28
ENDBRANCH  26  27
ENDBRANCH  23  26
ENDBRANCH   1  24
BRANCH   5  34
ATOM     34  O   UNL     1      -0.870   9.541  21.742  0.00  0.00    +0.000 OA
ATOM     35  H   UNL     1      -1.609  10.170  21.836  0.00  0.00    +0.000 HD
ENDBRANCH   5  34
BRANCH   2  36
ATOM     36  C   UNL     1      -1.857  12.388  18.627  0.00  0.00    +0.000 C 
BRANCH  36  37
ATOM     37  O   UNL     1      -1.603  12.234  17.230  0.00  0.00    +0.000 OA
ATOM     38  H   UNL     1      -0.993  12.947  16.959  0.00  0.00    +0.000 HD
ENDBRANCH  36  37
ENDBRANCH   2  36
TORSDOF 9
ENDMDL
MODEL 7
REMARK VINA RESULT:      -6.7      3.376      6.522
REMARK  Name = 
REMARK  9 active torsions:
REMARK  status: ('A' for Active; 'I' for Inactive)
REMARK    1  A    between atoms: C_2  and  C_3
REMARK    2  A    between atoms: C_3  and  C_4
REMARK    3  A    between atoms: C_4  and  C_5
REMARK    4  A    between atoms: N_11  and  C_12
REMARK    5  A    between atoms: C_13  and  C_14
REMARK    6  A    between atoms: C_14  and  O_15
REMARK    7  A    between atoms: C_17  and  N_18
REMARK    8  A    between atoms: N_23  and  C_24
REMARK    9  A    between atoms: C_33  and  O_34
REMARK                            x       y       z     vdW  Elec       q    Type
REMARK                         _______ _______ _______ _____ _____    ______ ____
ROOT
ATOM      1  C   UNL     1       0.252  12.152  20.500  0.00  0.00    +0.000 C 
ATOM      2  C   UNL     1      -1.069  11.913  19.779  0.00  0.00    +0.000 C 
ATOM      3  O   UNL     1      -0.890  10.602  19.186  0.00  0.00    +0.000 OA
ATOM      4  C   UNL     1      -0.096   9.814  20.135  0.00  0.00    +0.000 C 
ATOM      5  C   UNL     1       0.359  10.810  21.228  0.00  0.00    +0.000 C 
ENDROOT
BRANCH   4   6
ATOM      6  N   UNL     1       1.055   9.148  19.522  0.00  0.00    +0.000 N 
ATOM      7  C   UNL     1       1.588   9.561  18.318  0.00  0.00    +0.000 A 
ATOM      8  N   UNL     1       2.341   8.631  17.767  0.00  0.00    +0.000 NA
ATOM      9  C   UNL     1       2.377   7.613  18.700  0.00  0.00    +0.000 A 
ATOM     10  C   UNL     1       2.918   6.308  18.661  0.00  0.00    +0.000 A 
ATOM     11  N   UNL     1       3.498   5.781  17.523  0.00  0.00    +0.000 N 
ATOM     12  N   UNL     1       2.838   5.562  19.793  0.00  0.00    +0.000 NA
ATOM     13  C   UNL     1       2.251   6.096  20.881  0.00  0.00    +0.000 A 
ATOM     14  N   UNL     1       1.561   7.248  20.970  0.00  0.00    +0.000 NA
ATOM     15  C   UNL     1       1.669   7.968  19.843  0.00  0.00    +0.000 A 
ATOM     16  H   UNL     1       3.778   6.435  16.801  0.00  0.00    +0.000 HD
BRANCH  11  17
ATOM     17  C   UNL     1       3.461   4.358  17.264  0.00  0.00    +0.000 C 
ATOM     18  C   UNL     1       4.309   3.584  18.275  0.00  0.00    +0.000 C 
ATOM     19  C   UNL     1       3.718   2.181  18.268  0.00  0.00    +0.000 C 
ATOM     20  C   UNL     1       2.244   2.352  17.910  0.00  0.00    +0.000 C 
ATOM     21  C   UNL     1       2.059   3.805  17.483  0.00  0.00    +0.000 C 
ENDBRANCH  11  17
ENDBRANCH   4   6
BRANCH   1  24
ATOM     22  O   UNL     1       1.763  14.514  19.961  0.00  0.00    +0.000 OA
ATOM     23  C   UNL     1       1.991  13.513  19.289  0.00  0.00    +0.000 C 
ATOM     24  N   UNL     1       1.337  12.334  19.510  0.00  0.00    +0.000 N 
ATOM     25  H   UNL     1       1.575  11.534  18.930  0.00  0.00    +0.000 HD
BRANCH  23  26
ATOM     26  C   UNL     1       3.082  13.500  18.229  0.00  0.00    +0.000 C 
BRANCH  26  27
ATOM     27  C   UNL     1       3.838  14.816  18.015  0.00  0.00    +0.000 C 
BRANCH  27  28
ATOM     28  C   UNL     1       5.253  14.877  18.543  0.00  0.00    +0.000 A 
ATOM     29  C   UNL     1       5.538  15.164  19.884  0.00  0.00    +0.000 A 
ATOM     30  C   UNL     1       6.858  15.273  20.324  0.00  0.00    +0.000 A 
ATOM     31  C   UNL     1       7.911  15.064  19.438  0.00  0.00    +0.000 A 
ATOM     32  C   UNL     1       7.645  14.713  18.118  0.00  0.00    +0.000 A 
ATOM     33  C   UNL     1       6.324  14.609  17.674  0.00  0.00    +0.000 A 
ENDBRANCH  27  28
ENDBRANCH  26  27
ENDBRANCH  23  26
ENDBRANCH   1  24
BRANCH   5  34
ATOM     34  O   UNL     1      -0.509  10.745  22.376  0.00  0.00    +0.000 OA
ATOM     35  H   UNL     1      -0.078  11.144  23.154  0.00  0.00    +0.000 HD
ENDBRANCH   5  34
BRANCH   2  36
ATOM     36  C   UNL     1      -1.460  13.032  18.820  0.00  0.00    +0.000 C 
BRANCH  36  37
ATOM     37  O   UNL     1      -1.059  12.697  17.490  0.00  0.00    +0.000 OA
ATOM     38  H   UNL     1      -1.765  12.148  17.097  0.00  0.00    +0.000 HD
ENDBRANCH  36  37
ENDBRANCH   2  36
TORSDOF 9
ENDMDL
MODEL 8
REMARK VINA RESULT:      -6.7      8.546     11.490
REMARK  Name = 
REMARK  9 active torsions:
REMARK  status: ('A' for Active; 'I' for Inactive)
REMARK    1  A    between atoms: C_2  and  C_3
REMARK    2  A    between atoms: C_3  and  C_4
REMARK    3  A    between atoms: C_4  and  C_5
REMARK    4  A    between atoms: N_11  and  C_12
REMARK    5  A    between atoms: C_13  and  C_14
REMARK    6  A    between atoms: C_14  and  O_15
REMARK    7  A    between atoms: C_17  and  N_18
REMARK    8  A    between atoms: N_23  and  C_24
REMARK    9  A    between atoms: C_33  and  O_34
REMARK                            x       y       z     vdW  Elec       q    Type
REMARK                         _______ _______ _______ _____ _____    ______ ____
ROOT
ATOM      1  C   UNL     1      10.598  13.625  17.356  0.00  0.00    +0.000 C 
ATOM      2  C   UNL     1      11.828  14.501  17.553  0.00  0.00    +0.000 C 
ATOM      3  O   UNL     1      11.993  14.520  18.994  0.00  0.00    +0.000 OA
ATOM      4  C   UNL     1      11.607  13.191  19.480  0.00  0.00    +0.000 C 
ATOM      5  C   UNL     1      11.004  12.458  18.259  0.00  0.00    +0.000 C 
ENDROOT
BRANCH   4   6
ATOM      6  N   UNL     1      10.653  13.230  20.591  0.00  0.00    +0.000 N 
ATOM      7  C   UNL     1       9.814  12.172  20.877  0.00  0.00    +0.000 A 
ATOM      8  N   UNL     1       8.801  12.537  21.635  0.00  0.00    +0.000 NA
ATOM      9  C   UNL     1       9.049  13.863  21.935  0.00  0.00    +0.000 A 
ATOM     10  C   UNL     1       8.285  14.842  22.609  0.00  0.00    +0.000 A 
ATOM     11  N   UNL     1       7.002  14.599  23.060  0.00  0.00    +0.000 N 
ATOM     12  N   UNL     1       8.853  16.061  22.794  0.00  0.00    +0.000 NA
ATOM     13  C   UNL     1      10.098  16.274  22.327  0.00  0.00    +0.000 A 
ATOM     14  N   UNL     1      10.834  15.476  21.532  0.00  0.00    +0.000 NA
ATOM     15  C   UNL     1      10.254  14.275  21.379  0.00  0.00    +0.000 A 
ATOM     16  H   UNL     1       6.717  13.630  23.146  0.00  0.00    +0.000 HD
BRANCH  11  17
ATOM     17  C   UNL     1       6.032  15.670  23.146  0.00  0.00    +0.000 C 
ATOM     18  C   UNL     1       4.684  15.250  22.558  0.00  0.00    +0.000 C 
ATOM     19  C   UNL     1       3.676  16.171  23.233  0.00  0.00    +0.000 C 
ATOM     20  C   UNL     1       4.270  16.509  24.598  0.00  0.00    +0.000 C 
ATOM     21  C   UNL     1       5.702  15.985  24.599  0.00  0.00    +0.000 C 
ENDBRANCH  11  17
ENDBRANCH   4   6
BRANCH   1  24
ATOM     22  O   UNL     1       7.871  12.800  17.165  0.00  0.00    +0.000 OA
ATOM     23  C   UNL     1       8.116  13.878  17.699  0.00  0.00    +0.000 C 
ATOM     24  N   UNL     1       9.397  14.325  17.861  0.00  0.00    +0.000 N 
ATOM     25  H   UNL     1       9.541  15.221  18.321  0.00  0.00    +0.000 HD
BRANCH  23  26
ATOM     26  C   UNL     1       7.012  14.739  18.294  0.00  0.00    +0.000 C 
BRANCH  26  27
ATOM     27  C   UNL     1       5.582  14.416  17.846  0.00  0.00    +0.000 C 
BRANCH  27  28
ATOM     28  C   UNL     1       4.474  15.227  18.480  0.00  0.00    +0.000 A 
ATOM     29  C   UNL     1       4.693  16.506  19.007  0.00  0.00    +0.000 A 
ATOM     30  C   UNL     1       3.662  17.201  19.641  0.00  0.00    +0.000 A 
ATOM     31  C   UNL     1       2.392  16.642  19.728  0.00  0.00    +0.000 A 
ATOM     32  C   UNL     1       2.141  15.400  19.152  0.00  0.00    +0.000 A 
ATOM     33  C   UNL     1       3.173  14.700  18.522  0.00  0.00    +0.000 A 
ENDBRANCH  27  28
ENDBRANCH  26  27
ENDBRANCH  23  26
ENDBRANCH   1  24
BRANCH   5  34
ATOM     34  O   UNL     1      11.983  11.605  17.636  0.00  0.00    +0.000 OA
ATOM     35  H   UNL     1      12.340  10.966  18.280  0.00  0.00    +0.000 HD
ENDBRANCH   5  34
BRANCH   2  36
ATOM     36  C   UNL     1      11.730  15.864  16.875  0.00  0.00    +0.000 C 
BRANCH  36  37
ATOM     37  O   UNL     1      10.805  15.803  15.788  0.00  0.00    +0.000 OA
ATOM     38  H   UNL     1      10.255  15.005  15.911  0.00  0.00    +0.000 HD
ENDBRANCH  36  37
ENDBRANCH   2  36
TORSDOF 9
ENDMDL
MODEL 9
REMARK VINA RESULT:      -6.6      3.892      7.243
REMARK  Name = 
REMARK  9 active torsions:
REMARK  status: ('A' for Active; 'I' for Inactive)
REMARK    1  A    between atoms: C_2  and  C_3
REMARK    2  A    between atoms: C_3  and  C_4
REMARK    3  A    between atoms: C_4  and  C_5
REMARK    4  A    between atoms: N_11  and  C_12
REMARK    5  A    between atoms: C_13  and  C_14
REMARK    6  A    between atoms: C_14  and  O_15
REMARK    7  A    between atoms: C_17  and  N_18
REMARK    8  A    between atoms: N_23  and  C_24
REMARK    9  A    between atoms: C_33  and  O_34
REMARK                            x       y       z     vdW  Elec       q    Type
REMARK                         _______ _______ _______ _____ _____    ______ ____
ROOT
ATOM      1  C   UNL     1      -6.153  12.204  18.684  0.00  0.00    +0.000 C 
ATOM      2  C   UNL     1      -6.766  11.294  19.739  0.00  0.00    +0.000 C 
ATOM      3  O   UNL     1      -6.280  11.856  20.985  0.00  0.00    +0.000 OA
ATOM      4  C   UNL     1      -6.239  13.311  20.802  0.00  0.00    +0.000 C 
ATOM      5  C   UNL     1      -6.529  13.553  19.302  0.00  0.00    +0.000 C 
ENDROOT
BRANCH   4   6
ATOM      6  N   UNL     1      -4.960  13.912  21.190  0.00  0.00    +0.000 N 
ATOM      7  C   UNL     1      -4.565  15.155  20.740  0.00  0.00    +0.000 A 
ATOM      8  N   UNL     1      -3.269  15.341  20.880  0.00  0.00    +0.000 NA
ATOM      9  C   UNL     1      -2.823  14.212  21.540  0.00  0.00    +0.000 A 
ATOM     10  C   UNL     1      -1.528  13.760  21.880  0.00  0.00    +0.000 A 
ATOM     11  N   UNL     1      -0.385  14.433  21.494  0.00  0.00    +0.000 N 
ATOM     12  N   UNL     1      -1.434  12.612  22.599  0.00  0.00    +0.000 NA
ATOM     13  C   UNL     1      -2.565  11.969  22.945  0.00  0.00    +0.000 A 
ATOM     14  N   UNL     1      -3.821  12.218  22.530  0.00  0.00    +0.000 NA
ATOM     15  C   UNL     1      -3.885  13.364  21.835  0.00  0.00    +0.000 A 
ATOM     16  H   UNL     1      -0.491  15.397  21.203  0.00  0.00    +0.000 HD
BRANCH  11  17
ATOM     17  C   UNL     1       0.853  13.718  21.264  0.00  0.00    +0.000 C 
ATOM     18  C   UNL     1       0.932  13.188  19.831  0.00  0.00    +0.000 C 
ATOM     19  C   UNL     1       2.423  13.025  19.572  0.00  0.00    +0.000 C 
ATOM     20  C   UNL     1       3.113  14.074  20.439  0.00  0.00    +0.000 C 
ATOM     21  C   UNL     1       2.046  14.658  21.359  0.00  0.00    +0.000 C 
ENDBRANCH  11  17
ENDBRANCH   4   6
BRANCH   1  24
ATOM     22  O   UNL     1      -4.495  11.862  16.384  0.00  0.00    +0.000 OA
ATOM     23  C   UNL     1      -3.969  11.813  17.492  0.00  0.00    +0.000 C 
ATOM     24  N   UNL     1      -4.688  12.004  18.638  0.00  0.00    +0.000 N 
ATOM     25  H   UNL     1      -4.198  11.963  19.528  0.00  0.00    +0.000 HD
BRANCH  23  26
ATOM     26  C   UNL     1      -2.468  11.627  17.651  0.00  0.00    +0.000 C 
BRANCH  26  27
ATOM     27  C   UNL     1      -1.961  10.180  17.673  0.00  0.00    +0.000 C 
BRANCH  27  28
ATOM     28  C   UNL     1      -0.785   9.889  18.577  0.00  0.00    +0.000 A 
ATOM     29  C   UNL     1      -0.878   9.968  19.972  0.00  0.00    +0.000 A 
ATOM     30  C   UNL     1       0.244   9.753  20.774  0.00  0.00    +0.000 A 
ATOM     31  C   UNL     1       1.466   9.425  20.196  0.00  0.00    +0.000 A 
ATOM     32  C   UNL     1       1.560   9.279  18.815  0.00  0.00    +0.000 A 
ATOM     33  C   UNL     1       0.440   9.499  18.010  0.00  0.00    +0.000 A 
ENDBRANCH  27  28
ENDBRANCH  26  27
ENDBRANCH  23  26
ENDBRANCH   1  24
BRANCH   5  34
ATOM     34  O   UNL     1      -7.917  13.878  19.093  0.00  0.00    +0.000 OA
ATOM     35  H   UNL     1      -8.006  14.594  18.437  0.00  0.00    +0.000 HD
ENDBRANCH   5  34
BRANCH   2  36
ATOM     36  C   UNL     1      -6.478   9.812  19.519  0.00  0.00    +0.000 C 
BRANCH  36  37
ATOM     37  O   UNL     1      -7.684   9.056  19.646  0.00  0.00    +0.000 OA
ATOM     38  H   UNL     1      -8.432   9.684  19.619  0.00  0.00    +0.000 HD
ENDBRANCH  36  37
ENDBRANCH   2  36
TORSDOF 9
ENDMDL
