MODEL 1
REMARK VINA RESULT:      -5.5      0.000      0.000
REMARK  Name = 
REMARK  10 active torsions:
REMARK  status: ('A' for Active; 'I' for Inactive)
REMARK    1  A    between atoms: C_1  and  C_2
REMARK    2  A    between atoms: C_2  and  C_3
REMARK    3  A    between atoms: C_2  and  O_4
REMARK    4  A    between atoms: O_4  and  C_5
REMARK    5  A    between atoms: C_5  and  C_7
REMARK    6  A    between atoms: C_8  and  C_9
REMARK    7  A    between atoms: C_9  and  O_11
REMARK    8  A    between atoms: O_11  and  C_12
REMARK    9  A    between atoms: C_12  and  C_13
REMARK   10  A    between atoms: C_12  and  C_14
REMARK                            x       y       z     vdW  Elec       q    Type
REMARK                         _______ _______ _______ _____ _____    ______ ____
ROOT
ATOM      1  C   UNL     1       4.441   4.817  17.833  0.00  0.00    +0.000 C 
ATOM      2  C   UNL     1       3.518   4.064  17.217  0.00  0.00    +0.000 C 
ENDROOT
BRANCH   1   3
ATOM      3  C   UNL     1       5.732   5.062  17.165  0.00  0.00    +0.000 C 
ATOM      4  O   UNL     1       6.349   4.227  16.523  0.00  0.00    +0.000 OA
BRANCH   3   5
ATOM      5  O   UNL     1       6.097   6.353  17.381  0.00  0.00    +0.000 OA
BRANCH   5   7
ATOM      6  C   UNL     1       7.811   8.052  17.647  0.00  0.00    +0.000 C 
ATOM      7  C   UNL     1       7.492   6.561  17.685  0.00  0.00    +0.000 C 
ATOM      8  C   UNL     1       7.758   5.999  19.078  0.00  0.00    +0.000 C 
ENDBRANCH   5   7
ENDBRANCH   3   5
ENDBRANCH   1   3
BRANCH   2   9
ATOM      9  C   UNL     1       2.226   3.810  17.882  0.00  0.00    +0.000 C 
ATOM     10  O   UNL     1       1.141   3.901  17.336  0.00  0.00    +0.000 OA
BRANCH   9  11
ATOM     11  O   UNL     1       2.462   3.464  19.172  0.00  0.00    +0.000 OA
BRANCH  11  12
ATOM     12  C   UNL     1       1.426   3.826  20.113  0.00  0.00    +0.000 C 
ATOM     13  C   UNL     1       1.399   2.825  21.263  0.00  0.00    +0.000 C 
ATOM     14  C   UNL     1       1.742   5.224  20.635  0.00  0.00    +0.000 C 
ENDBRANCH  11  12
ENDBRANCH   9  11
ENDBRANCH   2   9
TORSDOF 6
ENDMDL
MODEL 2
REMARK VINA RESULT:      -5.4      1.036      5.640
REMARK  Name = 
REMARK  10 active torsions:
REMARK  status: ('A' for Active; 'I' for Inactive)
REMARK    1  A    between atoms: C_1  and  C_2
REMARK    2  A    between atoms: C_2  and  C_3
REMARK    3  A    between atoms: C_2  and  O_4
REMARK    4  A    between atoms: O_4  and  C_5
REMARK    5  A    between atoms: C_5  and  C_7
REMARK    6  A    between atoms: C_8  and  C_9
REMARK    7  A    between atoms: C_9  and  O_11
REMARK    8  A    between atoms: O_11  and  C_12
REMARK    9  A    between atoms: C_12  and  C_13
REMARK   10  A    between atoms: C_12  and  C_14
REMARK                            x       y       z     vdW  Elec       q    Type
REMARK                         _______ _______ _______ _____ _____    ______ ____
ROOT
ATOM      1  C   UNL     1       3.691   4.677  17.416  0.00  0.00    +0.000 C 
ATOM      2  C   UNL     1       4.923   4.644  16.888  0.00  0.00    +0.000 C 
ENDROOT
BRANCH   1   3
ATOM      3  C   UNL     1       3.101   3.433  17.943  0.00  0.00    +0.000 C 
ATOM      4  O   UNL     1       3.557   2.317  17.756  0.00  0.00    +0.000 OA
BRANCH   3   5
ATOM      5  O   UNL     1       1.991   3.747  18.662  0.00  0.00    +0.000 OA
BRANCH   5   7
ATOM      6  C   UNL     1       1.794   5.271  20.542  0.00  0.00    +0.000 C 
ATOM      7  C   UNL     1       2.187   3.870  20.085  0.00  0.00    +0.000 C 
ATOM      8  C   UNL     1       1.313   2.826  20.772  0.00  0.00    +0.000 C 
ENDBRANCH   5   7
ENDBRANCH   3   5
ENDBRANCH   1   3
BRANCH   2   9
ATOM      9  C   UNL     1       5.517   5.884  16.353  0.00  0.00    +0.000 C 
ATOM     10  O   UNL     1       5.603   6.151  15.167  0.00  0.00    +0.000 OA
BRANCH   9  11
ATOM     11  O   UNL     1       5.934   6.650  17.392  0.00  0.00    +0.000 OA
BRANCH  11  12
ATOM     12  C   UNL     1       7.366   6.756  17.551  0.00  0.00    +0.000 C 
ATOM     13  C   UNL     1       7.771   8.225  17.626  0.00  0.00    +0.000 C 
ATOM     14  C   UNL     1       7.744   6.036  18.841  0.00  0.00    +0.000 C 
ENDBRANCH  11  12
ENDBRANCH   9  11
ENDBRANCH   2   9
TORSDOF 6
ENDMDL
MODEL 3
REMARK VINA RESULT:      -5.4      0.769      1.232
REMARK  Name = 
REMARK  10 active torsions:
REMARK  status: ('A' for Active; 'I' for Inactive)
REMARK    1  A    between atoms: C_1  and  C_2
REMARK    2  A    between atoms: C_2  and  C_3
REMARK    3  A    between atoms: C_2  and  O_4
REMARK    4  A    between atoms: O_4  and  C_5
REMARK    5  A    between atoms: C_5  and  C_7
REMARK    6  A    between atoms: C_8  and  C_9
REMARK    7  A    between atoms: C_9  and  O_11
REMARK    8  A    between atoms: O_11  and  C_12
REMARK    9  A    between atoms: C_12  and  C_13
REMARK   10  A    between atoms: C_12  and  C_14
REMARK                            x       y       z     vdW  Elec       q    Type
REMARK                         _______ _______ _______ _____ _____    ______ ____
ROOT
ATOM      1  C   UNL     1       4.384   4.641  17.221  0.00  0.00    +0.000 C 
ATOM      2  C   UNL     1       3.500   3.636  17.145  0.00  0.00    +0.000 C 
ENDROOT
BRANCH   1   3
ATOM      3  C   UNL     1       5.676   4.517  16.521  0.00  0.00    +0.000 C 
ATOM      4  O   UNL     1       5.799   4.370  15.317  0.00  0.00    +0.000 OA
BRANCH   3   5
ATOM      5  O   UNL     1       6.677   4.601  17.437  0.00  0.00    +0.000 OA
BRANCH   5   7
ATOM      6  C   UNL     1       7.635   5.653  19.404  0.00  0.00    +0.000 C 
ATOM      7  C   UNL     1       6.727   5.830  18.191  0.00  0.00    +0.000 C 
ATOM      8  C   UNL     1       7.274   6.921  17.277  0.00  0.00    +0.000 C 
ENDBRANCH   5   7
ENDBRANCH   3   5
ENDBRANCH   1   3
BRANCH   2   9
ATOM      9  C   UNL     1       2.208   3.750  17.848  0.00  0.00    +0.000 C 
ATOM     10  O   UNL     1       1.184   4.174  17.342  0.00  0.00    +0.000 OA
BRANCH   9  11
ATOM     11  O   UNL     1       2.364   3.305  19.120  0.00  0.00    +0.000 OA
BRANCH  11  12
ATOM     12  C   UNL     1       1.431   3.840  20.085  0.00  0.00    +0.000 C 
ATOM     13  C   UNL     1       1.324   2.897  21.279  0.00  0.00    +0.000 C 
ATOM     14  C   UNL     1       1.955   5.201  20.531  0.00  0.00    +0.000 C 
ENDBRANCH  11  12
ENDBRANCH   9  11
ENDBRANCH   2   9
TORSDOF 6
ENDMDL
MODEL 4
REMARK VINA RESULT:      -5.4      1.358      5.331
REMARK  Name = 
REMARK  10 active torsions:
REMARK  status: ('A' for Active; 'I' for Inactive)
REMARK    1  A    between atoms: C_1  and  C_2
REMARK    2  A    between atoms: C_2  and  C_3
REMARK    3  A    between atoms: C_2  and  O_4
REMARK    4  A    between atoms: O_4  and  C_5
REMARK    5  A    between atoms: C_5  and  C_7
REMARK    6  A    between atoms: C_8  and  C_9
REMARK    7  A    between atoms: C_9  and  O_11
REMARK    8  A    between atoms: O_11  and  C_12
REMARK    9  A    between atoms: C_12  and  C_13
REMARK   10  A    between atoms: C_12  and  C_14
REMARK                            x       y       z     vdW  Elec       q    Type
REMARK                         _______ _______ _______ _____ _____    ______ ____
ROOT
ATOM      1  C   UNL     1       4.707   3.699  16.797  0.00  0.00    +0.000 C 
ATOM      2  C   UNL     1       5.326   4.868  16.575  0.00  0.00    +0.000 C 
ENDROOT
BRANCH   1   3
ATOM      3  C   UNL     1       3.368   3.701  17.414  0.00  0.00    +0.000 C 
ATOM      4  O   UNL     1       2.385   3.158  16.937  0.00  0.00    +0.000 OA
BRANCH   3   5
ATOM      5  O   UNL     1       3.427   4.392  18.582  0.00  0.00    +0.000 OA
BRANCH   5   7
ATOM      6  C   UNL     1       1.743   4.900  20.257  0.00  0.00    +0.000 C 
ATOM      7  C   UNL     1       2.286   5.227  18.869  0.00  0.00    +0.000 C 
ATOM      8  C   UNL     1       2.739   6.681  18.808  0.00  0.00    +0.000 C 
ENDBRANCH   5   7
ENDBRANCH   3   5
ENDBRANCH   1   3
BRANCH   2   9
ATOM      9  C   UNL     1       6.668   4.873  15.964  0.00  0.00    +0.000 C 
ATOM     10  O   UNL     1       6.889   4.659  14.784  0.00  0.00    +0.000 OA
BRANCH   9  11
ATOM     11  O   UNL     1       7.582   5.156  16.925  0.00  0.00    +0.000 OA
BRANCH  11  12
ATOM     12  C   UNL     1       7.158   6.107  17.927  0.00  0.00    +0.000 C 
ATOM     13  C   UNL     1       7.796   5.763  19.269  0.00  0.00    +0.000 C 
ATOM     14  C   UNL     1       7.603   7.493  17.469  0.00  0.00    +0.000 C 
ENDBRANCH  11  12
ENDBRANCH   9  11
ENDBRANCH   2   9
TORSDOF 6
ENDMDL
MODEL 5
REMARK VINA RESULT:      -5.4      1.702      5.957
REMARK  Name = 
REMARK  10 active torsions:
REMARK  status: ('A' for Active; 'I' for Inactive)
REMARK    1  A    between atoms: C_1  and  C_2
REMARK    2  A    between atoms: C_2  and  C_3
REMARK    3  A    between atoms: C_2  and  O_4
REMARK    4  A    between atoms: O_4  and  C_5
REMARK    5  A    between atoms: C_5  and  C_7
REMARK    6  A    between atoms: C_8  and  C_9
REMARK    7  A    between atoms: C_9  and  O_11
REMARK    8  A    between atoms: O_11  and  C_12
REMARK    9  A    between atoms: C_12  and  C_13
REMARK   10  A    between atoms: C_12  and  C_14
REMARK                            x       y       z     vdW  Elec       q    Type
REMARK                         _______ _______ _______ _____ _____    ______ ____
ROOT
ATOM      1  C   UNL     1       3.474   3.485  17.568  0.00  0.00    +0.000 C 
ATOM      2  C   UNL     1       4.417   4.204  18.194  0.00  0.00    +0.000 C 
ENDROOT
BRANCH   1   3
ATOM      3  C   UNL     1       2.108   3.455  18.122  0.00  0.00    +0.000 C 
ATOM      4  O   UNL     1       1.114   3.850  17.536  0.00  0.00    +0.000 OA
BRANCH   3   5
ATOM      5  O   UNL     1       2.155   2.915  19.369  0.00  0.00    +0.000 OA
BRANCH   5   7
ATOM      6  C   UNL     1       1.296   2.698  21.629  0.00  0.00    +0.000 C 
ATOM      7  C   UNL     1       1.266   3.508  20.337  0.00  0.00    +0.000 C 
ATOM      8  C   UNL     1       1.737   4.935  20.596  0.00  0.00    +0.000 C 
ENDBRANCH   5   7
ENDBRANCH   3   5
ENDBRANCH   1   3
BRANCH   2   9
ATOM      9  C   UNL     1       5.787   4.235  17.649  0.00  0.00    +0.000 C 
ATOM     10  O   UNL     1       6.785   4.481  18.305  0.00  0.00    +0.000 OA
BRANCH   9  11
ATOM     11  O   UNL     1       5.736   3.944  16.325  0.00  0.00    +0.000 OA
BRANCH  11  12
ATOM     12  C   UNL     1       6.319   4.932  15.447  0.00  0.00    +0.000 C 
ATOM     13  C   UNL     1       6.523   4.334  14.058  0.00  0.00    +0.000 C 
ATOM     14  C   UNL     1       5.360   6.115  15.378  0.00  0.00    +0.000 C 
ENDBRANCH  11  12
ENDBRANCH   9  11
ENDBRANCH   2   9
TORSDOF 6
ENDMDL
MODEL 6
REMARK VINA RESULT:      -5.4      0.896      5.596
REMARK  Name = 
REMARK  10 active torsions:
REMARK  status: ('A' for Active; 'I' for Inactive)
REMARK    1  A    between atoms: C_1  and  C_2
REMARK    2  A    between atoms: C_2  and  C_3
REMARK    3  A    between atoms: C_2  and  O_4
REMARK    4  A    between atoms: O_4  and  C_5
REMARK    5  A    between atoms: C_5  and  C_7
REMARK    6  A    between atoms: C_8  and  C_9
REMARK    7  A    between atoms: C_9  and  O_11
REMARK    8  A    between atoms: O_11  and  C_12
REMARK    9  A    between atoms: C_12  and  C_13
REMARK   10  A    between atoms: C_12  and  C_14
REMARK                            x       y       z     vdW  Elec       q    Type
REMARK                         _______ _______ _______ _____ _____    ______ ____
ROOT
ATOM      1  C   UNL     1       3.992   4.490  17.541  0.00  0.00    +0.000 C 
ATOM      2  C   UNL     1       4.722   4.327  16.427  0.00  0.00    +0.000 C 
ENDROOT
BRANCH   1   3
ATOM      3  C   UNL     1       2.612   3.973  17.579  0.00  0.00    +0.000 C 
ATOM      4  O   UNL     1       2.227   2.985  16.977  0.00  0.00    +0.000 OA
BRANCH   3   5
ATOM      5  O   UNL     1       1.869   4.772  18.389  0.00  0.00    +0.000 OA
BRANCH   5   7
ATOM      6  C   UNL     1       1.903   5.839  20.570  0.00  0.00    +0.000 C 
ATOM      7  C   UNL     1       2.011   4.525  19.803  0.00  0.00    +0.000 C 
ATOM      8  C   UNL     1       0.898   3.573  20.228  0.00  0.00    +0.000 C 
ENDBRANCH   5   7
ENDBRANCH   3   5
ENDBRANCH   1   3
BRANCH   2   9
ATOM      9  C   UNL     1       6.101   4.847  16.380  0.00  0.00    +0.000 C 
ATOM     10  O   UNL     1       7.015   4.321  15.770  0.00  0.00    +0.000 OA
BRANCH   9  11
ATOM     11  O   UNL     1       6.162   5.986  17.115  0.00  0.00    +0.000 OA
BRANCH  11  12
ATOM     12  C   UNL     1       7.471   6.332  17.618  0.00  0.00    +0.000 C 
ATOM     13  C   UNL     1       7.647   7.847  17.603  0.00  0.00    +0.000 C 
ATOM     14  C   UNL     1       7.575   5.802  19.045  0.00  0.00    +0.000 C 
ENDBRANCH  11  12
ENDBRANCH   9  11
ENDBRANCH   2   9
TORSDOF 6
ENDMDL
MODEL 7
REMARK VINA RESULT:      -5.4      1.231      5.918
REMARK  Name = 
REMARK  10 active torsions:
REMARK  status: ('A' for Active; 'I' for Inactive)
REMARK    1  A    between atoms: C_1  and  C_2
REMARK    2  A    between atoms: C_2  and  C_3
REMARK    3  A    between atoms: C_2  and  O_4
REMARK    4  A    between atoms: O_4  and  C_5
REMARK    5  A    between atoms: C_5  and  C_7
REMARK    6  A    between atoms: C_8  and  C_9
REMARK    7  A    between atoms: C_9  and  O_11
REMARK    8  A    between atoms: O_11  and  C_12
REMARK    9  A    between atoms: C_12  and  C_13
REMARK   10  A    between atoms: C_12  and  C_14
REMARK                            x       y       z     vdW  Elec       q    Type
REMARK                         _______ _______ _______ _____ _____    ______ ____
ROOT
ATOM      1  C   UNL     1       4.656   4.686  17.517  0.00  0.00    +0.000 C 
ATOM      2  C   UNL     1       5.281   5.590  16.749  0.00  0.00    +0.000 C 
ENDROOT
BRANCH   1   3
ATOM      3  C   UNL     1       3.300   4.980  18.015  0.00  0.00    +0.000 C 
ATOM      4  O   UNL     1       2.683   6.005  17.779  0.00  0.00    +0.000 OA
BRANCH   3   5
ATOM      5  O   UNL     1       2.872   3.927  18.760  0.00  0.00    +0.000 OA
BRANCH   5   7
ATOM      6  C   UNL     1       0.943   2.452  18.714  0.00  0.00    +0.000 C 
ATOM      7  C   UNL     1       1.449   3.865  18.987  0.00  0.00    +0.000 C 
ATOM      8  C   UNL     1       1.187   4.248  20.440  0.00  0.00    +0.000 C 
ENDBRANCH   5   7
ENDBRANCH   3   5
ENDBRANCH   1   3
BRANCH   2   9
ATOM      9  C   UNL     1       6.640   5.305  16.252  0.00  0.00    +0.000 C 
ATOM     10  O   UNL     1       6.978   4.256  15.732  0.00  0.00    +0.000 OA
BRANCH   9  11
ATOM     11  O   UNL     1       7.420   6.393  16.470  0.00  0.00    +0.000 OA
BRANCH  11  12
ATOM     12  C   UNL     1       7.283   7.007  17.772  0.00  0.00    +0.000 C 
ATOM     13  C   UNL     1       7.933   6.122  18.831  0.00  0.00    +0.000 C 
ATOM     14  C   UNL     1       7.975   8.365  17.720  0.00  0.00    +0.000 C 
ENDBRANCH  11  12
ENDBRANCH   9  11
ENDBRANCH   2   9
TORSDOF 6
ENDMDL
MODEL 8
REMARK VINA RESULT:      -5.3      1.304      2.042
REMARK  Name = 
REMARK  10 active torsions:
REMARK  status: ('A' for Active; 'I' for Inactive)
REMARK    1  A    between atoms: C_1  and  C_2
REMARK    2  A    between atoms: C_2  and  C_3
REMARK    3  A    between atoms: C_2  and  O_4
REMARK    4  A    between atoms: O_4  and  C_5
REMARK    5  A    between atoms: C_5  and  C_7
REMARK    6  A    between atoms: C_8  and  C_9
REMARK    7  A    between atoms: C_9  and  O_11
REMARK    8  A    between atoms: O_11  and  C_12
REMARK    9  A    between atoms: C_12  and  C_13
REMARK   10  A    between atoms: C_12  and  C_14
REMARK                            x       y       z     vdW  Elec       q    Type
REMARK                         _______ _______ _______ _____ _____    ______ ____
ROOT
ATOM      1  C   UNL     1       5.213   4.988  16.957  0.00  0.00    +0.000 C 
ATOM      2  C   UNL     1       4.697   3.776  16.706  0.00  0.00    +0.000 C 
ENDROOT
BRANCH   1   3
ATOM      3  C   UNL     1       6.229   5.540  16.042  0.00  0.00    +0.000 C 
ATOM      4  O   UNL     1       6.048   5.757  14.856  0.00  0.00    +0.000 OA
BRANCH   3   5
ATOM      5  O   UNL     1       7.372   5.763  16.744  0.00  0.00    +0.000 OA
BRANCH   5   7
ATOM      6  C   UNL     1       7.971   5.926  19.091  0.00  0.00    +0.000 C 
ATOM      7  C   UNL     1       7.225   6.573  17.928  0.00  0.00    +0.000 C 
ATOM      8  C   UNL     1       7.805   7.951  17.630  0.00  0.00    +0.000 C 
ENDBRANCH   5   7
ENDBRANCH   3   5
ENDBRANCH   1   3
BRANCH   2   9
ATOM      9  C   UNL     1       3.685   3.215  17.620  0.00  0.00    +0.000 C 
ATOM     10  O   UNL     1       3.670   2.059  18.006  0.00  0.00    +0.000 OA
BRANCH   9  11
ATOM     11  O   UNL     1       2.802   4.192  17.946  0.00  0.00    +0.000 OA
BRANCH  11  12
ATOM     12  C   UNL     1       2.549   4.357  19.359  0.00  0.00    +0.000 C 
ATOM     13  C   UNL     1       2.640   5.833  19.732  0.00  0.00    +0.000 C 
ATOM     14  C   UNL     1       1.149   3.824  19.645  0.00  0.00    +0.000 C 
ENDBRANCH  11  12
ENDBRANCH   9  11
ENDBRANCH   2   9
TORSDOF 6
ENDMDL
MODEL 9
REMARK VINA RESULT:      -5.2      1.342      2.169
REMARK  Name = 
REMARK  10 active torsions:
REMARK  status: ('A' for Active; 'I' for Inactive)
REMARK    1  A    between atoms: C_1  and  C_2
REMARK    2  A    between atoms: C_2  and  C_3
REMARK    3  A    between atoms: C_2  and  O_4
REMARK    4  A    between atoms: O_4  and  C_5
REMARK    5  A    between atoms: C_5  and  C_7
REMARK    6  A    between atoms: C_8  and  C_9
REMARK    7  A    between atoms: C_9  and  O_11
REMARK    8  A    between atoms: O_11  and  C_12
REMARK    9  A    between atoms: C_12  and  C_13
REMARK   10  A    between atoms: C_12  and  C_14
REMARK                            x       y       z     vdW  Elec       q    Type
REMARK                         _______ _______ _______ _____ _____    ______ ____
ROOT
ATOM      1  C   UNL     1       4.877   5.271  17.755  0.00  0.00    +0.000 C 
ATOM      2  C   UNL     1       4.908   3.940  17.916  0.00  0.00    +0.000 C 
ENDROOT
BRANCH   1   3
ATOM      3  C   UNL     1       5.561   5.871  16.595  0.00  0.00    +0.000 C 
ATOM      4  O   UNL     1       5.012   6.178  15.550  0.00  0.00    +0.000 OA
BRANCH   3   5
ATOM      5  O   UNL     1       6.877   6.023  16.896  0.00  0.00    +0.000 OA
BRANCH   5   7
ATOM      6  C   UNL     1       8.039   6.014  19.028  0.00  0.00    +0.000 C 
ATOM      7  C   UNL     1       7.159   6.811  18.071  0.00  0.00    +0.000 C 
ATOM      8  C   UNL     1       7.877   8.080  17.625  0.00  0.00    +0.000 C 
ENDBRANCH   5   7
ENDBRANCH   3   5
ENDBRANCH   1   3
BRANCH   2   9
ATOM      9  C   UNL     1       4.231   3.334  19.077  0.00  0.00    +0.000 C 
ATOM     10  O   UNL     1       4.785   2.642  19.914  0.00  0.00    +0.000 OA
BRANCH   9  11
ATOM     11  O   UNL     1       2.919   3.679  19.046  0.00  0.00    +0.000 OA
BRANCH  11  12
ATOM     12  C   UNL     1       2.019   2.765  19.710  0.00  0.00    +0.000 C 
ATOM     13  C   UNL     1       1.458   3.416  20.970  0.00  0.00    +0.000 C 
ATOM     14  C   UNL     1       0.892   2.435  18.738  0.00  0.00    +0.000 C 
ENDBRANCH  11  12
ENDBRANCH   9  11
ENDBRANCH   2   9
TORSDOF 6
ENDMDL
