MODEL 1
REMARK VINA RESULT:      -7.9      0.000      0.000
REMARK  Name = 
REMARK  7 active torsions:
REMARK  status: ('A' for Active; 'I' for Inactive)
REMARK    1  A    between atoms: C_2  and  C_3
REMARK    2  A    between atoms: C_4  and  C_5
REMARK    3  A    between atoms: N_9  and  C_10
REMARK    4  A    between atoms: C_10  and  C_11
REMARK    5  A    between atoms: C_11  and  C_12
REMARK    6  A    between atoms: C_12  and  C_13
REMARK    7  A    between atoms: N_25  and  O_26
REMARK                            x       y       z     vdW  Elec       q    Type
REMARK                         _______ _______ _______ _____ _____    ______ ____
ROOT
ATOM      1  C   UNL     1       6.165   4.914  15.821  0.00  0.00    +0.000 A 
ATOM      2  C   UNL     1       6.667   4.268  16.888  0.00  0.00    +0.000 A 
ATOM      3  C   UNL     1       6.527   4.797  18.219  0.00  0.00    +0.000 A 
ATOM      4  C   UNL     1       5.754   5.865  18.437  0.00  0.00    +0.000 A 
ATOM      5  N   UNL     1       5.122   6.517  17.392  0.00  0.00    +0.000 N 
ATOM      6  C   UNL     1       5.414   6.211  16.053  0.00  0.00    +0.000 A 
ATOM      7  O   UNL     1       5.061   6.903  15.100  0.00  0.00    +0.000 OA
ENDROOT
BRANCH   1   9
ATOM      8  C   UNL     1       5.265   3.790  13.837  0.00  0.00    +0.000 C 
ATOM      9  C   UNL     1       6.289   4.381  14.473  0.00  0.00    +0.000 C 
BRANCH   8  11
ATOM     10  O   UNL     1       4.580   3.397  11.583  0.00  0.00    +0.000 OA
ATOM     11  C   UNL     1       5.407   3.246  12.468  0.00  0.00    +0.000 C 
ATOM     12  N   UNL     1       6.569   2.515  12.290  0.00  0.00    +0.000 N 
ATOM     13  H   UNL     1       7.278   2.365  13.024  0.00  0.00    +0.000 HD
BRANCH  12  14
ATOM     14  O   UNL     1       6.806   1.927  11.048  0.00  0.00    +0.000 OA
ATOM     15  H   UNL     1       5.894   1.717  10.758  0.00  0.00    +0.000 HD
ENDBRANCH  12  14
ENDBRANCH   8  11
ENDBRANCH   1   9
BRANCH   5  16
ATOM     16  C   UNL     1       4.239   7.646  17.698  0.00  0.00    +0.000 C 
BRANCH  16  17
ATOM     17  C   UNL     1       2.751   7.272  17.933  0.00  0.00    +0.000 C 
BRANCH  17  18
ATOM     18  C   UNL     1       2.253   6.790  19.368  0.00  0.00    +0.000 C 
BRANCH  18  19
ATOM     19  C   UNL     1       2.404   5.312  19.784  0.00  0.00    +0.000 A 
ATOM     20  C   UNL     1       2.152   5.036  21.129  0.00  0.00    +0.000 A 
ATOM     21  C   UNL     1       1.966   3.738  21.546  0.00  0.00    +0.000 A 
ATOM     22  C   UNL     1       2.769   2.792  20.963  0.00  0.00    +0.000 A 
ATOM     23  C   UNL     1       3.071   2.943  19.625  0.00  0.00    +0.000 A 
ATOM     24  C   UNL     1       3.596   1.796  19.014  0.00  0.00    +0.000 A 
ATOM     25  C   UNL     1       3.635   1.682  17.641  0.00  0.00    +0.000 A 
ATOM     26  C   UNL     1       3.140   2.743  16.895  0.00  0.00    +0.000 A 
ATOM     27  C   UNL     1       2.727   3.962  17.509  0.00  0.00    +0.000 A 
ATOM     28  C   UNL     1       2.724   4.146  18.933  0.00  0.00    +0.000 A 
ENDBRANCH  18  19
ENDBRANCH  17  18
ENDBRANCH  16  17
ENDBRANCH   5  16
TORSDOF 7
ENDMDL
MODEL 2
REMARK VINA RESULT:      -7.8      3.393      5.809
REMARK  Name = 
REMARK  7 active torsions:
REMARK  status: ('A' for Active; 'I' for Inactive)
REMARK    1  A    between atoms: C_2  and  C_3
REMARK    2  A    between atoms: C_4  and  C_5
REMARK    3  A    between atoms: N_9  and  C_10
REMARK    4  A    between atoms: C_10  and  C_11
REMARK    5  A    between atoms: C_11  and  C_12
REMARK    6  A    between atoms: C_12  and  C_13
REMARK    7  A    between atoms: N_25  and  O_26
REMARK                            x       y       z     vdW  Elec       q    Type
REMARK                         _______ _______ _______ _____ _____    ______ ____
ROOT
ATOM      1  C   UNL     1       7.800   7.466  18.005  0.00  0.00    +0.000 A 
ATOM      2  C   UNL     1       8.294   6.865  19.102  0.00  0.00    +0.000 A 
ATOM      3  C   UNL     1       8.156   5.447  19.307  0.00  0.00    +0.000 A 
ATOM      4  C   UNL     1       7.671   4.674  18.332  0.00  0.00    +0.000 A 
ATOM      5  N   UNL     1       7.240   5.217  17.134  0.00  0.00    +0.000 N 
ATOM      6  C   UNL     1       7.112   6.606  16.962  0.00  0.00    +0.000 A 
ATOM      7  O   UNL     1       6.525   7.127  16.016  0.00  0.00    +0.000 OA
ENDROOT
BRANCH   1   9
ATOM      8  C   UNL     1       8.827   9.643  18.464  0.00  0.00    +0.000 C 
ATOM      9  C   UNL     1       7.946   8.896  17.781  0.00  0.00    +0.000 C 
BRANCH   8  11
ATOM     10  O   UNL     1       8.227  11.744  17.499  0.00  0.00    +0.000 OA
ATOM     11  C   UNL     1       8.961  11.099  18.231  0.00  0.00    +0.000 C 
ATOM     12  N   UNL     1      10.027  11.664  18.907  0.00  0.00    +0.000 N 
ATOM     13  H   UNL     1      10.667  11.138  19.524  0.00  0.00    +0.000 HD
BRANCH  12  14
ATOM     14  O   UNL     1      10.275  13.027  18.748  0.00  0.00    +0.000 OA
ATOM     15  H   UNL     1      11.138  13.012  18.284  0.00  0.00    +0.000 HD
ENDBRANCH  12  14
ENDBRANCH   8  11
ENDBRANCH   1   9
BRANCH   5  16
ATOM     16  C   UNL     1       6.773   4.314  16.078  0.00  0.00    +0.000 C 
BRANCH  16  17
ATOM     17  C   UNL     1       5.381   3.673  16.327  0.00  0.00    +0.000 C 
BRANCH  17  18
ATOM     18  C   UNL     1       4.054   4.549  16.222  0.00  0.00    +0.000 C 
BRANCH  18  19
ATOM     19  C   UNL     1       3.355   5.052  17.503  0.00  0.00    +0.000 A 
ATOM     20  C   UNL     1       3.594   6.386  17.835  0.00  0.00    +0.000 A 
ATOM     21  C   UNL     1       2.804   7.019  18.767  0.00  0.00    +0.000 A 
ATOM     22  C   UNL     1       2.432   6.272  19.855  0.00  0.00    +0.000 A 
ATOM     23  C   UNL     1       2.145   4.937  19.649  0.00  0.00    +0.000 A 
ATOM     24  C   UNL     1       1.456   4.321  20.702  0.00  0.00    +0.000 A 
ATOM     25  C   UNL     1       0.817   3.114  20.517  0.00  0.00    +0.000 A 
ATOM     26  C   UNL     1       0.888   2.537  19.256  0.00  0.00    +0.000 A 
ATOM     27  C   UNL     1       1.695   3.095  18.222  0.00  0.00    +0.000 A 
ATOM     28  C   UNL     1       2.424   4.321  18.388  0.00  0.00    +0.000 A 
ENDBRANCH  18  19
ENDBRANCH  17  18
ENDBRANCH  16  17
ENDBRANCH   5  16
TORSDOF 7
ENDMDL
MODEL 3
REMARK VINA RESULT:      -7.6      3.041      5.670
REMARK  Name = 
REMARK  7 active torsions:
REMARK  status: ('A' for Active; 'I' for Inactive)
REMARK    1  A    between atoms: C_2  and  C_3
REMARK    2  A    between atoms: C_4  and  C_5
REMARK    3  A    between atoms: N_9  and  C_10
REMARK    4  A    between atoms: C_10  and  C_11
REMARK    5  A    between atoms: C_11  and  C_12
REMARK    6  A    between atoms: C_12  and  C_13
REMARK    7  A    between atoms: N_25  and  O_26
REMARK                            x       y       z     vdW  Elec       q    Type
REMARK                         _______ _______ _______ _____ _____    ______ ____
ROOT
ATOM      1  C   UNL     1       7.421   7.340  17.795  0.00  0.00    +0.000 A 
ATOM      2  C   UNL     1       7.981   6.555  18.732  0.00  0.00    +0.000 A 
ATOM      3  C   UNL     1       7.554   5.195  18.925  0.00  0.00    +0.000 A 
ATOM      4  C   UNL     1       6.696   4.635  18.067  0.00  0.00    +0.000 A 
ATOM      5  N   UNL     1       6.159   5.358  17.016  0.00  0.00    +0.000 N 
ATOM      6  C   UNL     1       6.337   6.748  16.916  0.00  0.00    +0.000 A 
ATOM      7  O   UNL     1       5.702   7.465  16.145  0.00  0.00    +0.000 OA
ENDROOT
BRANCH   1   9
ATOM      8  C   UNL     1       8.655   9.354  18.448  0.00  0.00    +0.000 C 
ATOM      9  C   UNL     1       7.856   8.712  17.582  0.00  0.00    +0.000 C 
BRANCH   8  11
ATOM     10  O   UNL     1      10.138  11.219  18.628  0.00  0.00    +0.000 OA
ATOM     11  C   UNL     1       9.085  10.753  18.222  0.00  0.00    +0.000 C 
ATOM     12  N   UNL     1       8.155  11.503  17.523  0.00  0.00    +0.000 N 
ATOM     13  H   UNL     1       7.254  11.135  17.179  0.00  0.00    +0.000 HD
BRANCH  12  14
ATOM     14  O   UNL     1       8.432  12.846  17.270  0.00  0.00    +0.000 OA
ATOM     15  H   UNL     1       8.230  13.251  18.138  0.00  0.00    +0.000 HD
ENDBRANCH  12  14
ENDBRANCH   8  11
ENDBRANCH   1   9
BRANCH   5  16
ATOM     16  C   UNL     1       5.271   4.675  16.071  0.00  0.00    +0.000 C 
BRANCH  16  17
ATOM     17  C   UNL     1       4.633   3.362  16.600  0.00  0.00    +0.000 C 
BRANCH  17  18
ATOM     18  C   UNL     1       3.129   3.345  17.126  0.00  0.00    +0.000 C 
BRANCH  18  19
ATOM     19  C   UNL     1       2.787   3.923  18.516  0.00  0.00    +0.000 A 
ATOM     20  C   UNL     1       2.740   2.995  19.557  0.00  0.00    +0.000 A 
ATOM     21  C   UNL     1       2.741   3.423  20.865  0.00  0.00    +0.000 A 
ATOM     22  C   UNL     1       2.005   4.547  21.137  0.00  0.00    +0.000 A 
ATOM     23  C   UNL     1       1.993   5.550  20.189  0.00  0.00    +0.000 A 
ATOM     24  C   UNL     1       1.520   6.785  20.654  0.00  0.00    +0.000 A 
ATOM     25  C   UNL     1       1.751   7.944  19.945  0.00  0.00    +0.000 A 
ATOM     26  C   UNL     1       2.464   7.837  18.758  0.00  0.00    +0.000 A 
ATOM     27  C   UNL     1       2.833   6.571  18.217  0.00  0.00    +0.000 A 
ATOM     28  C   UNL     1       2.561   5.334  18.893  0.00  0.00    +0.000 A 
ENDBRANCH  18  19
ENDBRANCH  17  18
ENDBRANCH  16  17
ENDBRANCH   5  16
TORSDOF 7
ENDMDL
MODEL 4
REMARK VINA RESULT:      -7.6      3.516      6.121
REMARK  Name = 
REMARK  7 active torsions:
REMARK  status: ('A' for Active; 'I' for Inactive)
REMARK    1  A    between atoms: C_2  and  C_3
REMARK    2  A    between atoms: C_4  and  C_5
REMARK    3  A    between atoms: N_9  and  C_10
REMARK    4  A    between atoms: C_10  and  C_11
REMARK    5  A    between atoms: C_11  and  C_12
REMARK    6  A    between atoms: C_12  and  C_13
REMARK    7  A    between atoms: N_25  and  O_26
REMARK                            x       y       z     vdW  Elec       q    Type
REMARK                         _______ _______ _______ _____ _____    ______ ____
ROOT
ATOM      1  C   UNL     1       3.522   3.761  17.458  0.00  0.00    +0.000 A 
ATOM      2  C   UNL     1       2.734   2.674  17.370  0.00  0.00    +0.000 A 
ATOM      3  C   UNL     1       1.915   2.250  18.475  0.00  0.00    +0.000 A 
ATOM      4  C   UNL     1       1.803   3.022  19.560  0.00  0.00    +0.000 A 
ATOM      5  N   UNL     1       2.508   4.207  19.672  0.00  0.00    +0.000 N 
ATOM      6  C   UNL     1       3.510   4.555  18.750  0.00  0.00    +0.000 A 
ATOM      7  O   UNL     1       4.314   5.468  18.925  0.00  0.00    +0.000 OA
ENDROOT
BRANCH   1   9
ATOM      8  C   UNL     1       5.545   3.671  16.076  0.00  0.00    +0.000 C 
ATOM      9  C   UNL     1       4.343   4.206  16.343  0.00  0.00    +0.000 C 
BRANCH   8  11
ATOM     10  O   UNL     1       6.318   3.670  13.816  0.00  0.00    +0.000 OA
ATOM     11  C   UNL     1       6.372   4.139  14.942  0.00  0.00    +0.000 C 
ATOM     12  N   UNL     1       7.246   5.155  15.287  0.00  0.00    +0.000 N 
ATOM     13  H   UNL     1       7.317   5.562  16.233  0.00  0.00    +0.000 HD
BRANCH  12  14
ATOM     14  O   UNL     1       8.101   5.665  14.310  0.00  0.00    +0.000 OA
ATOM     15  H   UNL     1       8.815   4.995  14.311  0.00  0.00    +0.000 HD
ENDBRANCH  12  14
ENDBRANCH   8  11
ENDBRANCH   1   9
BRANCH   5  16
ATOM     16  C   UNL     1       2.300   5.042  20.858  0.00  0.00    +0.000 C 
BRANCH  16  17
ATOM     17  C   UNL     1       1.381   6.275  20.642  0.00  0.00    +0.000 C 
BRANCH  17  18
ATOM     18  C   UNL     1       2.001   7.688  20.243  0.00  0.00    +0.000 C 
BRANCH  18  19
ATOM     19  C   UNL     1       1.080   8.910  20.047  0.00  0.00    +0.000 A 
ATOM     20  C   UNL     1       0.941   9.353  18.730  0.00  0.00    +0.000 A 
ATOM     21  C   UNL     1      -0.067  10.228  18.398  0.00  0.00    +0.000 A 
ATOM     22  C   UNL     1      -0.339  11.216  19.309  0.00  0.00    +0.000 A 
ATOM     23  C   UNL     1      -0.258  10.892  20.649  0.00  0.00    +0.000 A 
ATOM     24  C   UNL     1      -0.866  11.817  21.508  0.00  0.00    +0.000 A 
ATOM     25  C   UNL     1      -1.158  11.483  22.813  0.00  0.00    +0.000 A 
ATOM     26  C   UNL     1      -0.825  10.204  23.238  0.00  0.00    +0.000 A 
ATOM     27  C   UNL     1      -0.092   9.307  22.407  0.00  0.00    +0.000 A 
ATOM     28  C   UNL     1       0.285   9.634  21.061  0.00  0.00    +0.000 A 
ENDBRANCH  18  19
ENDBRANCH  17  18
ENDBRANCH  16  17
ENDBRANCH   5  16
TORSDOF 7
ENDMDL
MODEL 5
REMARK VINA RESULT:      -7.5      0.609      2.150
REMARK  Name = 
REMARK  7 active torsions:
REMARK  status: ('A' for Active; 'I' for Inactive)
REMARK    1  A    between atoms: C_2  and  C_3
REMARK    2  A    between atoms: C_4  and  C_5
REMARK    3  A    between atoms: N_9  and  C_10
REMARK    4  A    between atoms: C_10  and  C_11
REMARK    5  A    between atoms: C_11  and  C_12
REMARK    6  A    between atoms: C_12  and  C_13
REMARK    7  A    between atoms: N_25  and  O_26
REMARK                            x       y       z     vdW  Elec       q    Type
REMARK                         _______ _______ _______ _____ _____    ______ ____
ROOT
ATOM      1  C   UNL     1       6.173   4.980  15.635  0.00  0.00    +0.000 A 
ATOM      2  C   UNL     1       6.683   4.303  16.679  0.00  0.00    +0.000 A 
ATOM      3  C   UNL     1       6.568   4.801  18.024  0.00  0.00    +0.000 A 
ATOM      4  C   UNL     1       5.813   5.873  18.279  0.00  0.00    +0.000 A 
ATOM      5  N   UNL     1       5.174   6.558  17.260  0.00  0.00    +0.000 N 
ATOM      6  C   UNL     1       5.442   6.280  15.909  0.00  0.00    +0.000 A 
ATOM      7  O   UNL     1       5.085   7.000  14.979  0.00  0.00    +0.000 OA
ENDROOT
BRANCH   1   9
ATOM      8  C   UNL     1       5.310   3.724  13.715  0.00  0.00    +0.000 C 
ATOM      9  C   UNL     1       6.270   4.479  14.273  0.00  0.00    +0.000 C 
BRANCH   8  11
ATOM     10  O   UNL     1       4.586   3.396  11.462  0.00  0.00    +0.000 OA
ATOM     11  C   UNL     1       5.425   3.214  12.330  0.00  0.00    +0.000 C 
ATOM     12  N   UNL     1       6.577   2.478  12.114  0.00  0.00    +0.000 N 
ATOM     13  H   UNL     1       7.297   2.303  12.833  0.00  0.00    +0.000 HD
BRANCH  12  14
ATOM     14  O   UNL     1       6.789   1.920  10.854  0.00  0.00    +0.000 OA
ATOM     15  H   UNL     1       5.883   1.936  10.482  0.00  0.00    +0.000 HD
ENDBRANCH  12  14
ENDBRANCH   8  11
ENDBRANCH   1   9
BRANCH   5  16
ATOM     16  C   UNL     1       4.310   7.690  17.605  0.00  0.00    +0.000 C 
BRANCH  16  17
ATOM     17  C   UNL     1       2.925   7.305  18.193  0.00  0.00    +0.000 C 
BRANCH  17  18
ATOM     18  C   UNL     1       2.085   6.103  17.570  0.00  0.00    +0.000 C 
BRANCH  18  19
ATOM     19  C   UNL     1       2.374   4.650  18.003  0.00  0.00    +0.000 A 
ATOM     20  C   UNL     1       2.848   3.806  16.998  0.00  0.00    +0.000 A 
ATOM     21  C   UNL     1       3.413   2.595  17.321  0.00  0.00    +0.000 A 
ATOM     22  C   UNL     1       2.819   1.901  18.345  0.00  0.00    +0.000 A 
ATOM     23  C   UNL     1       2.330   2.627  19.412  0.00  0.00    +0.000 A 
ATOM     24  C   UNL     1       2.052   1.866  20.555  0.00  0.00    +0.000 A 
ATOM     25  C   UNL     1       1.879   2.469  21.782  0.00  0.00    +0.000 A 
ATOM     26  C   UNL     1       1.989   3.852  21.837  0.00  0.00    +0.000 A 
ATOM     27  C   UNL     1       2.142   4.639  20.658  0.00  0.00    +0.000 A 
ATOM     28  C   UNL     1       2.268   4.056  19.351  0.00  0.00    +0.000 A 
ENDBRANCH  18  19
ENDBRANCH  17  18
ENDBRANCH  16  17
ENDBRANCH   5  16
TORSDOF 7
ENDMDL
MODEL 6
REMARK VINA RESULT:      -7.5      3.453      6.372
REMARK  Name = 
REMARK  7 active torsions:
REMARK  status: ('A' for Active; 'I' for Inactive)
REMARK    1  A    between atoms: C_2  and  C_3
REMARK    2  A    between atoms: C_4  and  C_5
REMARK    3  A    between atoms: N_9  and  C_10
REMARK    4  A    between atoms: C_10  and  C_11
REMARK    5  A    between atoms: C_11  and  C_12
REMARK    6  A    between atoms: C_12  and  C_13
REMARK    7  A    between atoms: N_25  and  O_26
REMARK                            x       y       z     vdW  Elec       q    Type
REMARK                         _______ _______ _______ _____ _____    ______ ____
ROOT
ATOM      1  C   UNL     1       7.105   6.305  17.764  0.00  0.00    +0.000 A 
ATOM      2  C   UNL     1       6.987   6.096  16.441  0.00  0.00    +0.000 A 
ATOM      3  C   UNL     1       6.269   4.961  15.922  0.00  0.00    +0.000 A 
ATOM      4  C   UNL     1       5.571   4.177  16.747  0.00  0.00    +0.000 A 
ATOM      5  N   UNL     1       5.565   4.398  18.114  0.00  0.00    +0.000 N 
ATOM      6  C   UNL     1       6.436   5.326  18.709  0.00  0.00    +0.000 A 
ATOM      7  O   UNL     1       6.635   5.397  19.920  0.00  0.00    +0.000 OA
ENDROOT
BRANCH   1   9
ATOM      8  C   UNL     1       7.833   8.644  17.673  0.00  0.00    +0.000 C 
ATOM      9  C   UNL     1       7.816   7.456  18.299  0.00  0.00    +0.000 C 
BRANCH   8  11
ATOM     10  O   UNL     1       8.568  10.916  17.719  0.00  0.00    +0.000 OA
ATOM     11  C   UNL     1       8.566   9.805  18.225  0.00  0.00    +0.000 C 
ATOM     12  N   UNL     1       9.283   9.503  19.370  0.00  0.00    +0.000 N 
ATOM     13  H   UNL     1       9.305   8.570  19.811  0.00  0.00    +0.000 HD
BRANCH  12  14
ATOM     14  O   UNL     1      10.039  10.509  19.971  0.00  0.00    +0.000 OA
ATOM     15  H   UNL     1      10.052  11.187  19.265  0.00  0.00    +0.000 HD
ENDBRANCH  12  14
ENDBRANCH   8  11
ENDBRANCH   1   9
BRANCH   5  16
ATOM     16  C   UNL     1       4.733   3.543  18.963  0.00  0.00    +0.000 C 
BRANCH  16  17
ATOM     17  C   UNL     1       3.315   4.098  19.269  0.00  0.00    +0.000 C 
BRANCH  17  18
ATOM     18  C   UNL     1       3.132   5.407  20.159  0.00  0.00    +0.000 C 
BRANCH  18  19
ATOM     19  C   UNL     1       2.579   6.702  19.527  0.00  0.00    +0.000 A 
ATOM     20  C   UNL     1       2.968   6.941  18.208  0.00  0.00    +0.000 A 
ATOM     21  C   UNL     1       2.313   7.888  17.455  0.00  0.00    +0.000 A 
ATOM     22  C   UNL     1       1.953   9.040  18.106  0.00  0.00    +0.000 A 
ATOM     23  C   UNL     1       1.527   8.929  19.415  0.00  0.00    +0.000 A 
ATOM     24  C   UNL     1       0.862  10.060  19.907  0.00  0.00    +0.000 A 
ATOM     25  C   UNL     1       0.099   9.989  21.053  0.00  0.00    +0.000 A 
ATOM     26  C   UNL     1       0.022   8.761  21.696  0.00  0.00    +0.000 A 
ATOM     27  C   UNL     1       0.799   7.644  21.272  0.00  0.00    +0.000 A 
ATOM     28  C   UNL     1       1.651   7.689  20.118  0.00  0.00    +0.000 A 
ENDBRANCH  18  19
ENDBRANCH  17  18
ENDBRANCH  16  17
ENDBRANCH   5  16
TORSDOF 7
ENDMDL
MODEL 7
REMARK VINA RESULT:      -7.5      6.338      9.768
REMARK  Name = 
REMARK  7 active torsions:
REMARK  status: ('A' for Active; 'I' for Inactive)
REMARK    1  A    between atoms: C_2  and  C_3
REMARK    2  A    between atoms: C_4  and  C_5
REMARK    3  A    between atoms: N_9  and  C_10
REMARK    4  A    between atoms: C_10  and  C_11
REMARK    5  A    between atoms: C_11  and  C_12
REMARK    6  A    between atoms: C_12  and  C_13
REMARK    7  A    between atoms: N_25  and  O_26
REMARK                            x       y       z     vdW  Elec       q    Type
REMARK                         _______ _______ _______ _____ _____    ______ ____
ROOT
ATOM      1  C   UNL     1      -0.784  11.400  20.909  0.00  0.00    +0.000 A 
ATOM      2  C   UNL     1      -1.374  11.696  19.737  0.00  0.00    +0.000 A 
ATOM      3  C   UNL     1      -0.885  11.160  18.494  0.00  0.00    +0.000 A 
ATOM      4  C   UNL     1       0.072  10.228  18.498  0.00  0.00    +0.000 A 
ATOM      5  N   UNL     1       0.651   9.800  19.680  0.00  0.00    +0.000 N 
ATOM      6  C   UNL     1       0.402  10.456  20.898  0.00  0.00    +0.000 A 
ATOM      7  O   UNL     1       1.056  10.268  21.921  0.00  0.00    +0.000 OA
ENDROOT
BRANCH   1   9
ATOM      8  C   UNL     1      -2.556  12.301  22.342  0.00  0.00    +0.000 C 
ATOM      9  C   UNL     1      -1.279  11.925  22.172  0.00  0.00    +0.000 C 
BRANCH   8  11
ATOM     10  O   UNL     1      -2.602  13.847  24.163  0.00  0.00    +0.000 OA
ATOM     11  C   UNL     1      -3.044  12.841  23.631  0.00  0.00    +0.000 C 
ATOM     12  N   UNL     1      -4.044  12.073  24.200  0.00  0.00    +0.000 N 
ATOM     13  H   UNL     1      -4.429  11.214  23.775  0.00  0.00    +0.000 HD
BRANCH  12  14
ATOM     14  O   UNL     1      -4.570  12.463  25.432  0.00  0.00    +0.000 OA
ATOM     15  H   UNL     1      -5.216  11.746  25.600  0.00  0.00    +0.000 HD
ENDBRANCH  12  14
ENDBRANCH   8  11
ENDBRANCH   1   9
BRANCH   5  16
ATOM     16  C   UNL     1       1.653   8.732  19.628  0.00  0.00    +0.000 C 
BRANCH  16  17
ATOM     17  C   UNL     1       2.042   8.263  18.199  0.00  0.00    +0.000 C 
BRANCH  17  18
ATOM     18  C   UNL     1       3.388   7.447  17.952  0.00  0.00    +0.000 C 
BRANCH  18  19
ATOM     19  C   UNL     1       3.352   5.908  17.844  0.00  0.00    +0.000 A 
ATOM     20  C   UNL     1       4.252   5.348  16.936  0.00  0.00    +0.000 A 
ATOM     21  C   UNL     1       4.518   3.999  16.969  0.00  0.00    +0.000 A 
ATOM     22  C   UNL     1       3.449   3.175  17.216  0.00  0.00    +0.000 A 
ATOM     23  C   UNL     1       2.499   3.611  18.117  0.00  0.00    +0.000 A 
ATOM     24  C   UNL     1       1.634   2.611  18.580  0.00  0.00    +0.000 A 
ATOM     25  C   UNL     1       0.864   2.806  19.706  0.00  0.00    +0.000 A 
ATOM     26  C   UNL     1       0.979   4.027  20.357  0.00  0.00    +0.000 A 
ATOM     27  C   UNL     1       1.758   5.092  19.818  0.00  0.00    +0.000 A 
ATOM     28  C   UNL     1       2.531   4.953  18.615  0.00  0.00    +0.000 A 
ENDBRANCH  18  19
ENDBRANCH  17  18
ENDBRANCH  16  17
ENDBRANCH   5  16
TORSDOF 7
ENDMDL
MODEL 8
REMARK VINA RESULT:      -7.4      5.818      8.585
REMARK  Name = 
REMARK  7 active torsions:
REMARK  status: ('A' for Active; 'I' for Inactive)
REMARK    1  A    between atoms: C_2  and  C_3
REMARK    2  A    between atoms: C_4  and  C_5
REMARK    3  A    between atoms: N_9  and  C_10
REMARK    4  A    between atoms: C_10  and  C_11
REMARK    5  A    between atoms: C_11  and  C_12
REMARK    6  A    between atoms: C_12  and  C_13
REMARK    7  A    between atoms: N_25  and  O_26
REMARK                            x       y       z     vdW  Elec       q    Type
REMARK                         _______ _______ _______ _____ _____    ______ ____
ROOT
ATOM      1  C   UNL     1       5.382   5.271  18.003  0.00  0.00    +0.000 A 
ATOM      2  C   UNL     1       5.981   4.852  19.132  0.00  0.00    +0.000 A 
ATOM      3  C   UNL     1       7.264   5.364  19.535  0.00  0.00    +0.000 A 
ATOM      4  C   UNL     1       7.814   6.386  18.873  0.00  0.00    +0.000 A 
ATOM      5  N   UNL     1       7.199   6.935  17.762  0.00  0.00    +0.000 N 
ATOM      6  C   UNL     1       6.080   6.327  17.168  0.00  0.00    +0.000 A 
ATOM      7  O   UNL     1       5.640   6.636  16.063  0.00  0.00    +0.000 OA
ENDROOT
BRANCH   1   9
ATOM      8  C   UNL     1       3.201   4.255  18.469  0.00  0.00    +0.000 C 
ATOM      9  C   UNL     1       4.079   4.771  17.594  0.00  0.00    +0.000 C 
BRANCH   8  11
ATOM     10  O   UNL     1       1.137   4.329  17.268  0.00  0.00    +0.000 OA
ATOM     11  C   UNL     1       1.880   3.742  18.038  0.00  0.00    +0.000 C 
ATOM     12  N   UNL     1       1.549   2.531  18.620  0.00  0.00    +0.000 N 
ATOM     13  H   UNL     1       2.156   2.020  19.281  0.00  0.00    +0.000 HD
BRANCH  12  14
ATOM     14  O   UNL     1       0.316   1.956  18.313  0.00  0.00    +0.000 OA
ATOM     15  H   UNL     1       0.360   1.917  17.336  0.00  0.00    +0.000 HD
ENDBRANCH  12  14
ENDBRANCH   8  11
ENDBRANCH   1   9
BRANCH   5  16
ATOM     16  C   UNL     1       7.819   8.093  17.113  0.00  0.00    +0.000 C 
BRANCH  16  17
ATOM     17  C   UNL     1       7.935   9.361  18.001  0.00  0.00    +0.000 C 
BRANCH  17  18
ATOM     18  C   UNL     1       9.177   9.555  18.981  0.00  0.00    +0.000 C 
BRANCH  18  19
ATOM     19  C   UNL     1       9.578  10.968  19.453  0.00  0.00    +0.000 A 
ATOM     20  C   UNL     1       9.331  11.245  20.799  0.00  0.00    +0.000 A 
ATOM     21  C   UNL     1       9.908  12.342  21.396  0.00  0.00    +0.000 A 
ATOM     22  C   UNL     1       9.977  13.481  20.636  0.00  0.00    +0.000 A 
ATOM     23  C   UNL     1      10.240  13.338  19.288  0.00  0.00    +0.000 A 
ATOM     24  C   UNL     1      10.631  14.519  18.643  0.00  0.00    +0.000 A 
ATOM     25  C   UNL     1      11.237  14.481  17.406  0.00  0.00    +0.000 A 
ATOM     26  C   UNL     1      11.438  13.234  16.828  0.00  0.00    +0.000 A 
ATOM     27  C   UNL     1      10.926  12.043  17.421  0.00  0.00    +0.000 A 
ATOM     28  C   UNL     1      10.237  12.042  18.681  0.00  0.00    +0.000 A 
ENDBRANCH  18  19
ENDBRANCH  17  18
ENDBRANCH  16  17
ENDBRANCH   5  16
TORSDOF 7
ENDMDL
MODEL 9
REMARK VINA RESULT:      -7.4      3.245      5.602
REMARK  Name = 
REMARK  7 active torsions:
REMARK  status: ('A' for Active; 'I' for Inactive)
REMARK    1  A    between atoms: C_2  and  C_3
REMARK    2  A    between atoms: C_4  and  C_5
REMARK    3  A    between atoms: N_9  and  C_10
REMARK    4  A    between atoms: C_10  and  C_11
REMARK    5  A    between atoms: C_11  and  C_12
REMARK    6  A    between atoms: C_12  and  C_13
REMARK    7  A    between atoms: N_25  and  O_26
REMARK                            x       y       z     vdW  Elec       q    Type
REMARK                         _______ _______ _______ _____ _____    ______ ____
ROOT
ATOM      1  C   UNL     1       7.145   5.989  17.610  0.00  0.00    +0.000 A 
ATOM      2  C   UNL     1       7.060   5.811  16.280  0.00  0.00    +0.000 A 
ATOM      3  C   UNL     1       6.402   4.661  15.717  0.00  0.00    +0.000 A 
ATOM      4  C   UNL     1       5.723   3.825  16.508  0.00  0.00    +0.000 A 
ATOM      5  N   UNL     1       5.683   4.010  17.879  0.00  0.00    +0.000 N 
ATOM      6  C   UNL     1       6.502   4.957  18.516  0.00  0.00    +0.000 A 
ATOM      7  O   UNL     1       6.674   5.005  19.732  0.00  0.00    +0.000 OA
ENDROOT
BRANCH   1   9
ATOM      8  C   UNL     1       7.737   8.367  17.617  0.00  0.00    +0.000 C 
ATOM      9  C   UNL     1       7.795   7.155  18.189  0.00  0.00    +0.000 C 
BRANCH   8  11
ATOM     10  O   UNL     1       8.411  10.657  17.712  0.00  0.00    +0.000 OA
ATOM     11  C   UNL     1       8.410   9.544  18.213  0.00  0.00    +0.000 C 
ATOM     12  N   UNL     1       9.071   9.253  19.393  0.00  0.00    +0.000 N 
ATOM     13  H   UNL     1       9.093   8.319  19.831  0.00  0.00    +0.000 HD
BRANCH  12  14
ATOM     14  O   UNL     1       9.767  10.275  20.040  0.00  0.00    +0.000 OA
ATOM     15  H   UNL     1       9.350  11.069  19.647  0.00  0.00    +0.000 HD
ENDBRANCH  12  14
ENDBRANCH   8  11
ENDBRANCH   1   9
BRANCH   5  16
ATOM     16  C   UNL     1       4.872   3.097  18.690  0.00  0.00    +0.000 C 
BRANCH  16  17
ATOM     17  C   UNL     1       3.624   2.512  17.973  0.00  0.00    +0.000 C 
BRANCH  17  18
ATOM     18  C   UNL     1       2.251   3.320  17.948  0.00  0.00    +0.000 C 
BRANCH  18  19
ATOM     19  C   UNL     1       2.086   4.594  18.805  0.00  0.00    +0.000 A 
ATOM     20  C   UNL     1       1.569   4.394  20.085  0.00  0.00    +0.000 A 
ATOM     21  C   UNL     1       1.655   5.392  21.029  0.00  0.00    +0.000 A 
ATOM     22  C   UNL     1       1.451   6.672  20.580  0.00  0.00    +0.000 A 
ATOM     23  C   UNL     1       1.939   6.998  19.331  0.00  0.00    +0.000 A 
ATOM     24  C   UNL     1       2.006   8.374  19.074  0.00  0.00    +0.000 A 
ATOM     25  C   UNL     1       2.762   8.863  18.031  0.00  0.00    +0.000 A 
ATOM     26  C   UNL     1       3.448   7.942  17.250  0.00  0.00    +0.000 A 
ATOM     27  C   UNL     1       3.280   6.538  17.428  0.00  0.00    +0.000 A 
ATOM     28  C   UNL     1       2.456   5.983  18.465  0.00  0.00    +0.000 A 
ENDBRANCH  18  19
ENDBRANCH  17  18
ENDBRANCH  16  17
ENDBRANCH   5  16
TORSDOF 7
ENDMDL
