MODEL 1
REMARK VINA RESULT:      -8.0      0.000      0.000
REMARK  Name = 
REMARK  10 active torsions:
REMARK  status: ('A' for Active; 'I' for Inactive)
REMARK    1  A    between atoms: C_1  and  N_2
REMARK    2  A    between atoms: N_2  and  C_3
REMARK    3  A    between atoms: N_2  and  C_7
REMARK    4  A    between atoms: C_3  and  C_4
REMARK    5  A    between atoms: C_4  and  O_6
REMARK    6  A    between atoms: C_7  and  C_8
REMARK    7  A    between atoms: N_13  and  C_14
REMARK    8  A    between atoms: C_14  and  C_15
REMARK    9  A    between atoms: C_22  and  C_23
REMARK   10  A    between atoms: C_23  and  C_24
REMARK                            x       y       z     vdW  Elec       q    Type
REMARK                         _______ _______ _______ _____ _____    ______ ____
ROOT
ATOM      1  C   UNL     1       3.065   2.186  18.901  0.00  0.00    +0.000 C 
ATOM      2  O   UNL     1       2.070   1.616  19.365  0.00  0.00    +0.000 OA
ATOM      3  N   UNL     1       2.996   3.473  18.351  0.00  0.00    +0.000 N 
ATOM      4  C   UNL     1       1.681   4.129  18.478  0.00  0.00    +0.000 C 
ATOM      5  C   UNL     1       1.676   5.112  19.664  0.00  0.00    +0.000 C 
ATOM      6  N   UNL     1       2.756   6.125  19.604  0.00  0.00    +0.000 NA
ATOM      7  C   UNL     1       4.058   5.440  19.401  0.00  0.00    +0.000 C 
ATOM      8  C   UNL     1       4.166   4.442  18.215  0.00  0.00    +0.000 C 
ENDROOT
BRANCH   1   9
ATOM      9  C   UNL     1       4.403   1.440  18.927  0.00  0.00    +0.000 C 
BRANCH   9  11
ATOM     10  C   UNL     1       4.160   2.104  21.257  0.00  0.00    +0.000 C 
ATOM     11  N   UNL     1       5.078   1.499  20.263  0.00  0.00    +0.000 NA
BRANCH  11  12
ATOM     12  C   UNL     1       5.349   0.103  20.730  0.00  0.00    +0.000 C 
BRANCH  12  13
ATOM     13  C   UNL     1       6.179   0.092  22.005  0.00  0.00    +0.000 C 
ATOM     14  O   UNL     1       6.654   1.079  22.499  0.00  0.00    +0.000 OA
BRANCH  13  15
ATOM     15  O   UNL     1       6.349  -1.162  22.484  0.00  0.00    +0.000 OA
ATOM     16  H   UNL     1       6.343  -1.144  23.464  0.00  0.00    +0.000 HD
ENDBRANCH  13  15
ENDBRANCH  12  13
ENDBRANCH  11  12
ENDBRANCH   9  11
ENDBRANCH   1   9
BRANCH   6  17
ATOM     17  C   UNL     1       2.504   7.158  18.589  0.00  0.00    +0.000 C 
BRANCH  17  18
ATOM     18  C   UNL     1       1.785   8.381  19.106  0.00  0.00    +0.000 A 
ATOM     19  C   UNL     1       1.416   8.477  20.451  0.00  0.00    +0.000 A 
ATOM     20  C   UNL     1       0.775   9.624  20.921  0.00  0.00    +0.000 A 
ATOM     21  C   UNL     1       0.492  10.678  20.052  0.00  0.00    +0.000 A 
ATOM     22  C   UNL     1       0.853  10.589  18.710  0.00  0.00    +0.000 A 
ATOM     23  C   UNL     1       1.492   9.445  18.238  0.00  0.00    +0.000 A 
ENDBRANCH  17  18
ENDBRANCH   6  17
BRANCH   8  24
ATOM     24  C   UNL     1       4.217   5.071  16.802  0.00  0.00    +0.000 C 
BRANCH  24  25
ATOM     25  C   UNL     1       5.366   4.965  15.808  0.00  0.00    +0.000 A 
ATOM     26  C   UNL     1       6.658   5.065  16.314  0.00  0.00    +0.000 A 
ATOM     27  N   UNL     1       7.415   5.552  15.300  0.00  0.00    +0.000 N 
ATOM     28  C   UNL     1       7.008   4.867  14.191  0.00  0.00    +0.000 A 
ATOM     29  C   UNL     1       7.728   4.593  13.026  0.00  0.00    +0.000 A 
ATOM     30  C   UNL     1       7.104   3.805  12.072  0.00  0.00    +0.000 A 
ATOM     31  C   UNL     1       5.788   3.394  12.264  0.00  0.00    +0.000 A 
ATOM     32  C   UNL     1       5.054   3.754  13.422  0.00  0.00    +0.000 A 
ATOM     33  C   UNL     1       5.673   4.490  14.457  0.00  0.00    +0.000 A 
ATOM     34  H   UNL     1       7.819   6.478  15.259  0.00  0.00    +0.000 HD
ENDBRANCH  24  25
ENDBRANCH   8  24
TORSDOF 9
ENDMDL
MODEL 2
REMARK VINA RESULT:      -7.9      2.834      7.000
REMARK  Name = 
REMARK  10 active torsions:
REMARK  status: ('A' for Active; 'I' for Inactive)
REMARK    1  A    between atoms: C_1  and  N_2
REMARK    2  A    between atoms: N_2  and  C_3
REMARK    3  A    between atoms: N_2  and  C_7
REMARK    4  A    between atoms: C_3  and  C_4
REMARK    5  A    between atoms: C_4  and  O_6
REMARK    6  A    between atoms: C_7  and  C_8
REMARK    7  A    between atoms: N_13  and  C_14
REMARK    8  A    between atoms: C_14  and  C_15
REMARK    9  A    between atoms: C_22  and  C_23
REMARK   10  A    between atoms: C_23  and  C_24
REMARK                            x       y       z     vdW  Elec       q    Type
REMARK                         _______ _______ _______ _____ _____    ______ ____
ROOT
ATOM      1  C   UNL     1       6.560   6.539  16.346  0.00  0.00    +0.000 C 
ATOM      2  O   UNL     1       7.259   6.147  15.404  0.00  0.00    +0.000 OA
ATOM      3  N   UNL     1       5.335   5.937  16.662  0.00  0.00    +0.000 N 
ATOM      4  C   UNL     1       5.011   4.739  15.866  0.00  0.00    +0.000 C 
ATOM      5  C   UNL     1       5.344   3.456  16.653  0.00  0.00    +0.000 C 
ATOM      6  N   UNL     1       4.693   3.386  17.982  0.00  0.00    +0.000 NA
ATOM      7  C   UNL     1       4.974   4.638  18.731  0.00  0.00    +0.000 C 
ATOM      8  C   UNL     1       4.652   5.983  18.025  0.00  0.00    +0.000 C 
ENDROOT
BRANCH   1   9
ATOM      9  C   UNL     1       7.060   7.729  17.171  0.00  0.00    +0.000 C 
BRANCH   9  11
ATOM     10  C   UNL     1       8.780   8.592  18.662  0.00  0.00    +0.000 C 
ATOM     11  N   UNL     1       8.162   7.361  18.115  0.00  0.00    +0.000 NA
BRANCH  11  12
ATOM     12  C   UNL     1       7.575   6.627  19.281  0.00  0.00    +0.000 C 
BRANCH  12  13
ATOM     13  C   UNL     1       8.233   5.270  19.475  0.00  0.00    +0.000 C 
ATOM     14  O   UNL     1       8.359   4.458  18.598  0.00  0.00    +0.000 OA
BRANCH  13  15
ATOM     15  O   UNL     1       8.617   5.075  20.758  0.00  0.00    +0.000 OA
ATOM     16  H   UNL     1       9.229   4.311  20.807  0.00  0.00    +0.000 HD
ENDBRANCH  13  15
ENDBRANCH  12  13
ENDBRANCH  11  12
ENDBRANCH   9  11
ENDBRANCH   1   9
BRANCH   6  17
ATOM     17  C   UNL     1       3.254   3.101  17.890  0.00  0.00    +0.000 C 
BRANCH  17  18
ATOM     18  C   UNL     1       2.540   3.053  19.219  0.00  0.00    +0.000 A 
ATOM     19  C   UNL     1       1.225   3.514  19.341  0.00  0.00    +0.000 A 
ATOM     20  C   UNL     1       0.568   3.439  20.570  0.00  0.00    +0.000 A 
ATOM     21  C   UNL     1       1.219   2.911  21.685  0.00  0.00    +0.000 A 
ATOM     22  C   UNL     1       2.529   2.452  21.573  0.00  0.00    +0.000 A 
ATOM     23  C   UNL     1       3.188   2.526  20.348  0.00  0.00    +0.000 A 
ENDBRANCH  17  18
ENDBRANCH   6  17
BRANCH   8  24
ATOM     24  C   UNL     1       3.151   6.338  17.894  0.00  0.00    +0.000 C 
BRANCH  24  25
ATOM     25  C   UNL     1       2.358   7.262  18.808  0.00  0.00    +0.000 A 
ATOM     26  C   UNL     1       2.357   6.966  20.167  0.00  0.00    +0.000 A 
ATOM     27  N   UNL     1       1.192   7.462  20.652  0.00  0.00    +0.000 N 
ATOM     28  C   UNL     1       1.059   8.690  20.069  0.00  0.00    +0.000 A 
ATOM     29  C   UNL     1       0.363   9.806  20.542  0.00  0.00    +0.000 A 
ATOM     30  C   UNL     1       0.448  10.966  19.789  0.00  0.00    +0.000 A 
ATOM     31  C   UNL     1       1.136  10.957  18.578  0.00  0.00    +0.000 A 
ATOM     32  C   UNL     1       1.766   9.788  18.084  0.00  0.00    +0.000 A 
ATOM     33  C   UNL     1       1.772   8.603  18.854  0.00  0.00    +0.000 A 
ATOM     34  H   UNL     1       0.404   6.914  20.968  0.00  0.00    +0.000 HD
ENDBRANCH  24  25
ENDBRANCH   8  24
TORSDOF 9
ENDMDL
MODEL 3
REMARK VINA RESULT:      -7.8      4.310      8.150
REMARK  Name = 
REMARK  10 active torsions:
REMARK  status: ('A' for Active; 'I' for Inactive)
REMARK    1  A    between atoms: C_1  and  N_2
REMARK    2  A    between atoms: N_2  and  C_3
REMARK    3  A    between atoms: N_2  and  C_7
REMARK    4  A    between atoms: C_3  and  C_4
REMARK    5  A    between atoms: C_4  and  O_6
REMARK    6  A    between atoms: C_7  and  C_8
REMARK    7  A    between atoms: N_13  and  C_14
REMARK    8  A    between atoms: C_14  and  C_15
REMARK    9  A    between atoms: C_22  and  C_23
REMARK   10  A    between atoms: C_23  and  C_24
REMARK                            x       y       z     vdW  Elec       q    Type
REMARK                         _______ _______ _______ _____ _____    ______ ____
ROOT
ATOM      1  C   UNL     1       7.174   7.570  17.290  0.00  0.00    +0.000 C 
ATOM      2  O   UNL     1       8.131   7.292  16.556  0.00  0.00    +0.000 OA
ATOM      3  N   UNL     1       5.997   6.809  17.297  0.00  0.00    +0.000 N 
ATOM      4  C   UNL     1       6.041   5.597  16.457  0.00  0.00    +0.000 C 
ATOM      5  C   UNL     1       6.331   4.351  17.316  0.00  0.00    +0.000 C 
ATOM      6  N   UNL     1       5.385   4.168  18.442  0.00  0.00    +0.000 NA
ATOM      7  C   UNL     1       5.305   5.428  19.224  0.00  0.00    +0.000 C 
ATOM      8  C   UNL     1       4.997   6.737  18.446  0.00  0.00    +0.000 C 
ENDROOT
BRANCH   1   9
ATOM      9  C   UNL     1       7.294   8.795  18.201  0.00  0.00    +0.000 C 
BRANCH   9  11
ATOM     10  C   UNL     1       8.138  10.960  17.473  0.00  0.00    +0.000 C 
ATOM     11  N   UNL     1       8.525   9.605  17.929  0.00  0.00    +0.000 NA
BRANCH  11  12
ATOM     12  C   UNL     1       9.276   9.787  19.212  0.00  0.00    +0.000 C 
BRANCH  12  13
ATOM     13  C   UNL     1      10.090  11.072  19.204  0.00  0.00    +0.000 C 
ATOM     14  O   UNL     1      11.052  11.248  18.507  0.00  0.00    +0.000 OA
BRANCH  13  15
ATOM     15  O   UNL     1       9.623  11.968  20.105  0.00  0.00    +0.000 OA
ATOM     16  H   UNL     1      10.360  12.533  20.420  0.00  0.00    +0.000 HD
ENDBRANCH  13  15
ENDBRANCH  12  13
ENDBRANCH  11  12
ENDBRANCH   9  11
ENDBRANCH   1   9
BRANCH   6  17
ATOM     17  C   UNL     1       4.063   3.703  17.997  0.00  0.00    +0.000 C 
BRANCH  17  18
ATOM     18  C   UNL     1       3.072   3.473  19.113  0.00  0.00    +0.000 A 
ATOM     19  C   UNL     1       3.420   2.707  20.229  0.00  0.00    +0.000 A 
ATOM     20  C   UNL     1       2.503   2.525  21.266  0.00  0.00    +0.000 A 
ATOM     21  C   UNL     1       1.233   3.098  21.191  0.00  0.00    +0.000 A 
ATOM     22  C   UNL     1       0.878   3.860  20.081  0.00  0.00    +0.000 A 
ATOM     23  C   UNL     1       1.791   4.043  19.045  0.00  0.00    +0.000 A 
ENDBRANCH  17  18
ENDBRANCH   6  17
BRANCH   8  24
ATOM     24  C   UNL     1       3.544   6.899  17.940  0.00  0.00    +0.000 C 
BRANCH  24  25
ATOM     25  C   UNL     1       2.534   7.938  18.410  0.00  0.00    +0.000 A 
ATOM     26  C   UNL     1       1.877   8.675  17.430  0.00  0.00    +0.000 A 
ATOM     27  N   UNL     1       1.555   9.857  18.012  0.00  0.00    +0.000 N 
ATOM     28  C   UNL     1       1.093   9.528  19.254  0.00  0.00    +0.000 A 
ATOM     29  C   UNL     1       0.200  10.234  20.065  0.00  0.00    +0.000 A 
ATOM     30  C   UNL     1      -0.168   9.639  21.261  0.00  0.00    +0.000 A 
ATOM     31  C   UNL     1       0.410   8.431  21.642  0.00  0.00    +0.000 A 
ATOM     32  C   UNL     1       1.373   7.775  20.835  0.00  0.00    +0.000 A 
ATOM     33  C   UNL     1       1.723   8.305  19.572  0.00  0.00    +0.000 A 
ATOM     34  H   UNL     1       1.973  10.752  17.799  0.00  0.00    +0.000 HD
ENDBRANCH  24  25
ENDBRANCH   8  24
TORSDOF 9
ENDMDL
MODEL 4
REMARK VINA RESULT:      -7.8      2.914      7.028
REMARK  Name = 
REMARK  10 active torsions:
REMARK  status: ('A' for Active; 'I' for Inactive)
REMARK    1  A    between atoms: C_1  and  N_2
REMARK    2  A    between atoms: N_2  and  C_3
REMARK    3  A    between atoms: N_2  and  C_7
REMARK    4  A    between atoms: C_3  and  C_4
REMARK    5  A    between atoms: C_4  and  O_6
REMARK    6  A    between atoms: C_7  and  C_8
REMARK    7  A    between atoms: N_13  and  C_14
REMARK    8  A    between atoms: C_14  and  C_15
REMARK    9  A    between atoms: C_22  and  C_23
REMARK   10  A    between atoms: C_23  and  C_24
REMARK                            x       y       z     vdW  Elec       q    Type
REMARK                         _______ _______ _______ _____ _____    ______ ____
ROOT
ATOM      1  C   UNL     1       6.595   6.509  16.407  0.00  0.00    +0.000 C 
ATOM      2  O   UNL     1       7.325   6.121  15.487  0.00  0.00    +0.000 OA
ATOM      3  N   UNL     1       5.366   5.897  16.689  0.00  0.00    +0.000 N 
ATOM      4  C   UNL     1       5.076   4.694  15.887  0.00  0.00    +0.000 C 
ATOM      5  C   UNL     1       5.397   3.416  16.687  0.00  0.00    +0.000 C 
ATOM      6  N   UNL     1       4.708   3.343  17.997  0.00  0.00    +0.000 NA
ATOM      7  C   UNL     1       4.956   4.600  18.750  0.00  0.00    +0.000 C 
ATOM      8  C   UNL     1       4.643   5.941  18.032  0.00  0.00    +0.000 C 
ENDROOT
BRANCH   1   9
ATOM      9  C   UNL     1       7.060   7.705  17.243  0.00  0.00    +0.000 C 
BRANCH   9  11
ATOM     10  C   UNL     1       8.736   8.607  18.760  0.00  0.00    +0.000 C 
ATOM     11  N   UNL     1       8.182   7.364  18.174  0.00  0.00    +0.000 NA
BRANCH  11  12
ATOM     12  C   UNL     1       7.637   6.563  19.315  0.00  0.00    +0.000 C 
BRANCH  12  13
ATOM     13  C   UNL     1       8.381   5.246  19.477  0.00  0.00    +0.000 C 
ATOM     14  O   UNL     1       8.993   4.943  20.466  0.00  0.00    +0.000 OA
BRANCH  13  15
ATOM     15  O   UNL     1       8.303   4.483  18.362  0.00  0.00    +0.000 OA
ATOM     16  H   UNL     1       8.559   3.561  18.575  0.00  0.00    +0.000 HD
ENDBRANCH  13  15
ENDBRANCH  12  13
ENDBRANCH  11  12
ENDBRANCH   9  11
ENDBRANCH   1   9
BRANCH   6  17
ATOM     17  C   UNL     1       3.275   3.046  17.863  0.00  0.00    +0.000 C 
BRANCH  17  18
ATOM     18  C   UNL     1       2.510   3.055  19.165  0.00  0.00    +0.000 A 
ATOM     19  C   UNL     1       1.291   3.730  19.273  0.00  0.00    +0.000 A 
ATOM     20  C   UNL     1       0.582   3.707  20.475  0.00  0.00    +0.000 A 
ATOM     21  C   UNL     1       1.088   3.018  21.577  0.00  0.00    +0.000 A 
ATOM     22  C   UNL     1       2.304   2.346  21.480  0.00  0.00    +0.000 A 
ATOM     23  C   UNL     1       3.013   2.367  20.282  0.00  0.00    +0.000 A 
ENDBRANCH  17  18
ENDBRANCH   6  17
BRANCH   8  24
ATOM     24  C   UNL     1       3.144   6.282  17.855  0.00  0.00    +0.000 C 
BRANCH  24  25
ATOM     25  C   UNL     1       2.431   7.520  18.383  0.00  0.00    +0.000 A 
ATOM     26  C   UNL     1       1.913   8.406  17.443  0.00  0.00    +0.000 A 
ATOM     27  N   UNL     1       1.907   9.620  18.046  0.00  0.00    +0.000 N 
ATOM     28  C   UNL     1       1.446   9.387  19.310  0.00  0.00    +0.000 A 
ATOM     29  C   UNL     1       0.786  10.268  20.171  0.00  0.00    +0.000 A 
ATOM     30  C   UNL     1       0.351   9.755  21.383  0.00  0.00    +0.000 A 
ATOM     31  C   UNL     1       0.651   8.440  21.727  0.00  0.00    +0.000 A 
ATOM     32  C   UNL     1       1.391   7.591  20.867  0.00  0.00    +0.000 A 
ATOM     33  C   UNL     1       1.788   8.046  19.589  0.00  0.00    +0.000 A 
ATOM     34  H   UNL     1       2.511  10.396  17.814  0.00  0.00    +0.000 HD
ENDBRANCH  24  25
ENDBRANCH   8  24
TORSDOF 9
ENDMDL
MODEL 5
REMARK VINA RESULT:      -7.7      2.944      7.149
REMARK  Name = 
REMARK  10 active torsions:
REMARK  status: ('A' for Active; 'I' for Inactive)
REMARK    1  A    between atoms: C_1  and  N_2
REMARK    2  A    between atoms: N_2  and  C_3
REMARK    3  A    between atoms: N_2  and  C_7
REMARK    4  A    between atoms: C_3  and  C_4
REMARK    5  A    between atoms: C_4  and  O_6
REMARK    6  A    between atoms: C_7  and  C_8
REMARK    7  A    between atoms: N_13  and  C_14
REMARK    8  A    between atoms: C_14  and  C_15
REMARK    9  A    between atoms: C_22  and  C_23
REMARK   10  A    between atoms: C_23  and  C_24
REMARK                            x       y       z     vdW  Elec       q    Type
REMARK                         _______ _______ _______ _____ _____    ______ ____
ROOT
ATOM      1  C   UNL     1       6.332   6.744  16.583  0.00  0.00    +0.000 C 
ATOM      2  O   UNL     1       7.024   6.477  15.594  0.00  0.00    +0.000 OA
ATOM      3  N   UNL     1       5.150   6.049  16.873  0.00  0.00    +0.000 N 
ATOM      4  C   UNL     1       4.869   4.910  15.980  0.00  0.00    +0.000 C 
ATOM      5  C   UNL     1       5.292   3.583  16.641  0.00  0.00    +0.000 C 
ATOM      6  N   UNL     1       4.684   3.359  17.973  0.00  0.00    +0.000 NA
ATOM      7  C   UNL     1       4.917   4.554  18.824  0.00  0.00    +0.000 C 
ATOM      8  C   UNL     1       4.504   5.936  18.250  0.00  0.00    +0.000 C 
ENDROOT
BRANCH   1   9
ATOM      9  C   UNL     1       6.790   7.883  17.500  0.00  0.00    +0.000 C 
BRANCH   9  11
ATOM     10  C   UNL     1       8.867   8.987  18.126  0.00  0.00    +0.000 C 
ATOM     11  N   UNL     1       8.175   7.680  18.033  0.00  0.00    +0.000 NA
BRANCH  11  12
ATOM     12  C   UNL     1       8.082   7.148  19.429  0.00  0.00    +0.000 C 
BRANCH  12  13
ATOM     13  C   UNL     1       8.196   5.632  19.458  0.00  0.00    +0.000 C 
ATOM     14  O   UNL     1       8.202   4.945  18.472  0.00  0.00    +0.000 OA
BRANCH  13  15
ATOM     15  O   UNL     1       8.245   5.154  20.723  0.00  0.00    +0.000 OA
ATOM     16  H   UNL     1       8.131   4.181  20.713  0.00  0.00    +0.000 HD
ENDBRANCH  13  15
ENDBRANCH  12  13
ENDBRANCH  11  12
ENDBRANCH   9  11
ENDBRANCH   1   9
BRANCH   6  17
ATOM     17  C   UNL     1       3.260   3.004  17.889  0.00  0.00    +0.000 C 
BRANCH  17  18
ATOM     18  C   UNL     1       2.552   2.935  19.221  0.00  0.00    +0.000 A 
ATOM     19  C   UNL     1       3.219   2.476  20.361  0.00  0.00    +0.000 A 
ATOM     20  C   UNL     1       2.561   2.443  21.591  0.00  0.00    +0.000 A 
ATOM     21  C   UNL     1       1.234   2.860  21.691  0.00  0.00    +0.000 A 
ATOM     22  C   UNL     1       0.561   3.316  20.560  0.00  0.00    +0.000 A 
ATOM     23  C   UNL     1       1.215   3.350  19.330  0.00  0.00    +0.000 A 
ENDBRANCH  17  18
ENDBRANCH   6  17
BRANCH   8  24
ATOM     24  C   UNL     1       2.983   6.217  18.185  0.00  0.00    +0.000 C 
BRANCH  24  25
ATOM     25  C   UNL     1       2.286   7.513  18.577  0.00  0.00    +0.000 A 
ATOM     26  C   UNL     1       1.816   8.320  17.546  0.00  0.00    +0.000 A 
ATOM     27  N   UNL     1       1.822   9.584  18.036  0.00  0.00    +0.000 N 
ATOM     28  C   UNL     1       1.322   9.478  19.302  0.00  0.00    +0.000 A 
ATOM     29  C   UNL     1       0.660  10.448  20.060  0.00  0.00    +0.000 A 
ATOM     30  C   UNL     1       0.180  10.058  21.300  0.00  0.00    +0.000 A 
ATOM     31  C   UNL     1       0.439   8.773  21.771  0.00  0.00    +0.000 A 
ATOM     32  C   UNL     1       1.181   7.834  21.013  0.00  0.00    +0.000 A 
ATOM     33  C   UNL     1       1.624   8.161  19.711  0.00  0.00    +0.000 A 
ATOM     34  H   UNL     1       2.451  10.323  17.752  0.00  0.00    +0.000 HD
ENDBRANCH  24  25
ENDBRANCH   8  24
TORSDOF 9
ENDMDL
MODEL 6
REMARK VINA RESULT:      -7.7      4.328      8.184
REMARK  Name = 
REMARK  10 active torsions:
REMARK  status: ('A' for Active; 'I' for Inactive)
REMARK    1  A    between atoms: C_1  and  N_2
REMARK    2  A    between atoms: N_2  and  C_3
REMARK    3  A    between atoms: N_2  and  C_7
REMARK    4  A    between atoms: C_3  and  C_4
REMARK    5  A    between atoms: C_4  and  O_6
REMARK    6  A    between atoms: C_7  and  C_8
REMARK    7  A    between atoms: N_13  and  C_14
REMARK    8  A    between atoms: C_14  and  C_15
REMARK    9  A    between atoms: C_22  and  C_23
REMARK   10  A    between atoms: C_23  and  C_24
REMARK                            x       y       z     vdW  Elec       q    Type
REMARK                         _______ _______ _______ _____ _____    ______ ____
ROOT
ATOM      1  C   UNL     1       7.187   7.602  17.293  0.00  0.00    +0.000 C 
ATOM      2  O   UNL     1       8.147   7.319  16.566  0.00  0.00    +0.000 OA
ATOM      3  N   UNL     1       6.008   6.844  17.294  0.00  0.00    +0.000 N 
ATOM      4  C   UNL     1       6.053   5.630  16.458  0.00  0.00    +0.000 C 
ATOM      5  C   UNL     1       6.334   4.385  17.322  0.00  0.00    +0.000 C 
ATOM      6  N   UNL     1       5.380   4.207  18.442  0.00  0.00    +0.000 NA
ATOM      7  C   UNL     1       5.299   5.470  19.220  0.00  0.00    +0.000 C 
ATOM      8  C   UNL     1       5.000   6.777  18.437  0.00  0.00    +0.000 C 
ENDROOT
BRANCH   1   9
ATOM      9  C   UNL     1       7.304   8.829  18.201  0.00  0.00    +0.000 C 
BRANCH   9  11
ATOM     10  C   UNL     1       8.170  10.993  17.499  0.00  0.00    +0.000 C 
ATOM     11  N   UNL     1       8.543   9.629  17.942  0.00  0.00    +0.000 NA
BRANCH  11  12
ATOM     12  C   UNL     1       9.292   9.791  19.228  0.00  0.00    +0.000 C 
BRANCH  12  13
ATOM     13  C   UNL     1       9.910  11.176  19.344  0.00  0.00    +0.000 C 
ATOM     14  O   UNL     1       9.386  12.096  19.912  0.00  0.00    +0.000 OA
BRANCH  13  15
ATOM     15  O   UNL     1      11.095  11.254  18.695  0.00  0.00    +0.000 OA
ATOM     16  H   UNL     1      11.656  10.487  18.937  0.00  0.00    +0.000 HD
ENDBRANCH  13  15
ENDBRANCH  12  13
ENDBRANCH  11  12
ENDBRANCH   9  11
ENDBRANCH   1   9
BRANCH   6  17
ATOM     17  C   UNL     1       4.060   3.745  17.989  0.00  0.00    +0.000 C 
BRANCH  17  18
ATOM     18  C   UNL     1       3.060   3.525  19.099  0.00  0.00    +0.000 A 
ATOM     19  C   UNL     1       1.781   4.087  19.029  0.00  0.00    +0.000 A 
ATOM     20  C   UNL     1       0.858   3.853  20.049  0.00  0.00    +0.000 A 
ATOM     21  C   UNL     1       1.206   3.066  21.147  0.00  0.00    +0.000 A 
ATOM     22  C   UNL     1       2.478   2.505  21.225  0.00  0.00    +0.000 A 
ATOM     23  C   UNL     1       3.402   2.737  20.209  0.00  0.00    +0.000 A 
ENDBRANCH  17  18
ENDBRANCH   6  17
BRANCH   8  24
ATOM     24  C   UNL     1       3.550   6.942  17.921  0.00  0.00    +0.000 C 
BRANCH  24  25
ATOM     25  C   UNL     1       2.532   7.968  18.401  0.00  0.00    +0.000 A 
ATOM     26  C   UNL     1       1.863   8.705  17.428  0.00  0.00    +0.000 A 
ATOM     27  N   UNL     1       1.531   9.879  18.019  0.00  0.00    +0.000 N 
ATOM     28  C   UNL     1       1.077   9.538  19.260  0.00  0.00    +0.000 A 
ATOM     29  C   UNL     1       0.180  10.230  20.079  0.00  0.00    +0.000 A 
ATOM     30  C   UNL     1      -0.178   9.624  21.272  0.00  0.00    +0.000 A 
ATOM     31  C   UNL     1       0.415   8.419  21.644  0.00  0.00    +0.000 A 
ATOM     32  C   UNL     1       1.381   7.779  20.829  0.00  0.00    +0.000 A 
ATOM     33  C   UNL     1       1.721   8.319  19.569  0.00  0.00    +0.000 A 
ATOM     34  H   UNL     1       1.940  10.780  17.809  0.00  0.00    +0.000 HD
ENDBRANCH  24  25
ENDBRANCH   8  24
TORSDOF 9
ENDMDL
MODEL 7
REMARK VINA RESULT:      -7.4      6.862     10.544
REMARK  Name = 
REMARK  10 active torsions:
REMARK  status: ('A' for Active; 'I' for Inactive)
REMARK    1  A    between atoms: C_1  and  N_2
REMARK    2  A    between atoms: N_2  and  C_3
REMARK    3  A    between atoms: N_2  and  C_7
REMARK    4  A    between atoms: C_3  and  C_4
REMARK    5  A    between atoms: C_4  and  O_6
REMARK    6  A    between atoms: C_7  and  C_8
REMARK    7  A    between atoms: N_13  and  C_14
REMARK    8  A    between atoms: C_14  and  C_15
REMARK    9  A    between atoms: C_22  and  C_23
REMARK   10  A    between atoms: C_23  and  C_24
REMARK                            x       y       z     vdW  Elec       q    Type
REMARK                         _______ _______ _______ _____ _____    ______ ____
ROOT
ATOM      1  C   UNL     1       1.568  14.732  21.819  0.00  0.00    +0.000 C 
ATOM      2  O   UNL     1       1.214  15.836  22.249  0.00  0.00    +0.000 OA
ATOM      3  N   UNL     1       0.649  13.709  21.550  0.00  0.00    +0.000 N 
ATOM      4  C   UNL     1      -0.766  14.094  21.706  0.00  0.00    +0.000 C 
ATOM      5  C   UNL     1      -1.395  14.419  20.338  0.00  0.00    +0.000 C 
ATOM      6  N   UNL     1      -1.261  13.328  19.344  0.00  0.00    +0.000 NA
ATOM      7  C   UNL     1       0.162  12.911  19.264  0.00  0.00    +0.000 C 
ATOM      8  C   UNL     1       0.877  12.543  20.593  0.00  0.00    +0.000 C 
ENDROOT
BRANCH   1   9
ATOM      9  C   UNL     1       3.064  14.491  21.593  0.00  0.00    +0.000 C 
BRANCH   9  11
ATOM     10  C   UNL     1       4.963  16.003  21.787  0.00  0.00    +0.000 C 
ATOM     11  N   UNL     1       3.760  15.672  20.988  0.00  0.00    +0.000 NA
BRANCH  11  12
ATOM     12  C   UNL     1       4.247  15.298  19.623  0.00  0.00    +0.000 C 
BRANCH  12  13
ATOM     13  C   UNL     1       3.551  16.108  18.540  0.00  0.00    +0.000 C 
ATOM     14  O   UNL     1       2.529  15.770  18.006  0.00  0.00    +0.000 OA
BRANCH  13  15
ATOM     15  O   UNL     1       4.243  17.228  18.226  0.00  0.00    +0.000 OA
ATOM     16  H   UNL     1       4.423  17.245  17.263  0.00  0.00    +0.000 HD
ENDBRANCH  13  15
ENDBRANCH  12  13
ENDBRANCH  11  12
ENDBRANCH   9  11
ENDBRANCH   1   9
BRANCH   6  17
ATOM     17  C   UNL     1      -2.159  12.198  19.624  0.00  0.00    +0.000 C 
BRANCH  17  18
ATOM     18  C   UNL     1      -2.589  11.423  18.402  0.00  0.00    +0.000 A 
ATOM     19  C   UNL     1      -3.799  11.711  17.763  0.00  0.00    +0.000 A 
ATOM     20  C   UNL     1      -4.172  11.004  16.619  0.00  0.00    +0.000 A 
ATOM     21  C   UNL     1      -3.345  10.002  16.110  0.00  0.00    +0.000 A 
ATOM     22  C   UNL     1      -2.140   9.707  16.742  0.00  0.00    +0.000 A 
ATOM     23  C   UNL     1      -1.765  10.411  17.884  0.00  0.00    +0.000 A 
ENDBRANCH  17  18
ENDBRANCH   6  17
BRANCH   8  24
ATOM     24  C   UNL     1       0.465  11.197  21.236  0.00  0.00    +0.000 C 
BRANCH  24  25
ATOM     25  C   UNL     1       0.993   9.818  20.861  0.00  0.00    +0.000 A 
ATOM     26  C   UNL     1       0.681   8.764  21.713  0.00  0.00    +0.000 A 
ATOM     27  N   UNL     1       1.683   7.862  21.566  0.00  0.00    +0.000 N 
ATOM     28  C   UNL     1       1.915   7.804  20.221  0.00  0.00    +0.000 A 
ATOM     29  C   UNL     1       2.446   6.747  19.476  0.00  0.00    +0.000 A 
ATOM     30  C   UNL     1       2.507   6.916  18.102  0.00  0.00    +0.000 A 
ATOM     31  C   UNL     1       2.125   8.129  17.534  0.00  0.00    +0.000 A 
ATOM     32  C   UNL     1       1.664   9.212  18.323  0.00  0.00    +0.000 A 
ATOM     33  C   UNL     1       1.512   9.061  19.720  0.00  0.00    +0.000 A 
ATOM     34  H   UNL     1       2.390   7.649  22.256  0.00  0.00    +0.000 HD
ENDBRANCH  24  25
ENDBRANCH   8  24
TORSDOF 9
ENDMDL
MODEL 8
REMARK VINA RESULT:      -7.4      6.183     11.137
REMARK  Name = 
REMARK  10 active torsions:
REMARK  status: ('A' for Active; 'I' for Inactive)
REMARK    1  A    between atoms: C_1  and  N_2
REMARK    2  A    between atoms: N_2  and  C_3
REMARK    3  A    between atoms: N_2  and  C_7
REMARK    4  A    between atoms: C_3  and  C_4
REMARK    5  A    between atoms: C_4  and  O_6
REMARK    6  A    between atoms: C_7  and  C_8
REMARK    7  A    between atoms: N_13  and  C_14
REMARK    8  A    between atoms: C_14  and  C_15
REMARK    9  A    between atoms: C_22  and  C_23
REMARK   10  A    between atoms: C_23  and  C_24
REMARK                            x       y       z     vdW  Elec       q    Type
REMARK                         _______ _______ _______ _____ _____    ______ ____
ROOT
ATOM      1  C   UNL     1      -1.841  12.020  22.573  0.00  0.00    +0.000 C 
ATOM      2  O   UNL     1      -2.375  11.499  23.559  0.00  0.00    +0.000 OA
ATOM      3  N   UNL     1      -0.630  11.549  22.048  0.00  0.00    +0.000 N 
ATOM      4  C   UNL     1      -0.115  10.323  22.686  0.00  0.00    +0.000 C 
ATOM      5  C   UNL     1      -0.459   9.083  21.838  0.00  0.00    +0.000 C 
ATOM      6  N   UNL     1       0.008   9.171  20.435  0.00  0.00    +0.000 NA
ATOM      7  C   UNL     1      -0.462  10.450  19.843  0.00  0.00    +0.000 C 
ATOM      8  C   UNL     1      -0.145  11.759  20.617  0.00  0.00    +0.000 C 
ENDROOT
BRANCH   1   9
ATOM      9  C   UNL     1      -2.533  13.225  21.929  0.00  0.00    +0.000 C 
BRANCH   9  11
ATOM     10  C   UNL     1      -3.034  15.365  22.977  0.00  0.00    +0.000 C 
ATOM     11  N   UNL     1      -3.447  13.945  22.872  0.00  0.00    +0.000 NA
BRANCH  11  12
ATOM     12  C   UNL     1      -4.830  13.947  22.299  0.00  0.00    +0.000 C 
BRANCH  12  13
ATOM     13  C   UNL     1      -5.636  12.751  22.782  0.00  0.00    +0.000 C 
ATOM     14  O   UNL     1      -5.952  12.579  23.928  0.00  0.00    +0.000 OA
BRANCH  13  15
ATOM     15  O   UNL     1      -5.913  11.890  21.775  0.00  0.00    +0.000 OA
ATOM     16  H   UNL     1      -6.330  12.375  21.032  0.00  0.00    +0.000 HD
ENDBRANCH  13  15
ENDBRANCH  12  13
ENDBRANCH  11  12
ENDBRANCH   9  11
ENDBRANCH   1   9
BRANCH   6  17
ATOM     17  C   UNL     1       1.463   9.002  20.314  0.00  0.00    +0.000 C 
BRANCH  17  18
ATOM     18  C   UNL     1       1.893   7.658  19.776  0.00  0.00    +0.000 A 
ATOM     19  C   UNL     1       2.485   7.550  18.514  0.00  0.00    +0.000 A 
ATOM     20  C   UNL     1       2.902   6.305  18.040  0.00  0.00    +0.000 A 
ATOM     21  C   UNL     1       2.725   5.161  18.818  0.00  0.00    +0.000 A 
ATOM     22  C   UNL     1       2.134   5.259  20.075  0.00  0.00    +0.000 A 
ATOM     23  C   UNL     1       1.716   6.500  20.551  0.00  0.00    +0.000 A 
ENDBRANCH  17  18
ENDBRANCH   6  17
BRANCH   8  24
ATOM     24  C   UNL     1       1.330  12.226  20.584  0.00  0.00    +0.000 C 
BRANCH  24  25
ATOM     25  C   UNL     1       1.979  13.095  19.514  0.00  0.00    +0.000 A 
ATOM     26  C   UNL     1       2.400  12.462  18.349  0.00  0.00    +0.000 A 
ATOM     27  N   UNL     1       3.424  13.212  17.872  0.00  0.00    +0.000 N 
ATOM     28  C   UNL     1       3.012  14.506  18.012  0.00  0.00    +0.000 A 
ATOM     29  C   UNL     1       3.403  15.628  17.275  0.00  0.00    +0.000 A 
ATOM     30  C   UNL     1       2.772  16.825  17.571  0.00  0.00    +0.000 A 
ATOM     31  C   UNL     1       1.855  16.887  18.617  0.00  0.00    +0.000 A 
ATOM     32  C   UNL     1       1.535  15.749  19.399  0.00  0.00    +0.000 A 
ATOM     33  C   UNL     1       2.095  14.490  19.086  0.00  0.00    +0.000 A 
ATOM     34  H   UNL     1       4.398  12.941  17.862  0.00  0.00    +0.000 HD
ENDBRANCH  24  25
ENDBRANCH   8  24
TORSDOF 9
ENDMDL
MODEL 9
REMARK VINA RESULT:      -7.4      2.163      7.346
REMARK  Name = 
REMARK  10 active torsions:
REMARK  status: ('A' for Active; 'I' for Inactive)
REMARK    1  A    between atoms: C_1  and  N_2
REMARK    2  A    between atoms: N_2  and  C_3
REMARK    3  A    between atoms: N_2  and  C_7
REMARK    4  A    between atoms: C_3  and  C_4
REMARK    5  A    between atoms: C_4  and  O_6
REMARK    6  A    between atoms: C_7  and  C_8
REMARK    7  A    between atoms: N_13  and  C_14
REMARK    8  A    between atoms: C_14  and  C_15
REMARK    9  A    between atoms: C_22  and  C_23
REMARK   10  A    between atoms: C_23  and  C_24
REMARK                            x       y       z     vdW  Elec       q    Type
REMARK                         _______ _______ _______ _____ _____    ______ ____
ROOT
ATOM      1  C   UNL     1       4.086   4.166  20.365  0.00  0.00    +0.000 C 
ATOM      2  O   UNL     1       4.966   3.510  20.936  0.00  0.00    +0.000 OA
ATOM      3  N   UNL     1       4.342   4.894  19.196  0.00  0.00    +0.000 N 
ATOM      4  C   UNL     1       5.698   4.718  18.643  0.00  0.00    +0.000 C 
ATOM      5  C   UNL     1       5.686   3.703  17.484  0.00  0.00    +0.000 C 
ATOM      6  N   UNL     1       4.727   4.039  16.406  0.00  0.00    +0.000 NA
ATOM      7  C   UNL     1       3.388   4.284  17.001  0.00  0.00    +0.000 C 
ATOM      8  C   UNL     1       3.297   5.308  18.165  0.00  0.00    +0.000 C 
ENDROOT
BRANCH   1   9
ATOM      9  C   UNL     1       2.683   4.180  20.980  0.00  0.00    +0.000 C 
BRANCH   9  11
ATOM     10  C   UNL     1       1.374   2.486  22.140  0.00  0.00    +0.000 C 
ATOM     11  N   UNL     1       1.971   2.870  20.839  0.00  0.00    +0.000 NA
BRANCH  11  12
ATOM     12  C   UNL     1       0.832   3.039  19.882  0.00  0.00    +0.000 C 
BRANCH  12  13
ATOM     13  C   UNL     1       0.947   2.085  18.703  0.00  0.00    +0.000 C 
ATOM     14  O   UNL     1       0.040   1.835  17.957  0.00  0.00    +0.000 OA
BRANCH  13  15
ATOM     15  O   UNL     1       2.176   1.524  18.628  0.00  0.00    +0.000 OA
ATOM     16  H   UNL     1       2.452   1.210  19.515  0.00  0.00    +0.000 HD
ENDBRANCH  13  15
ENDBRANCH  12  13
ENDBRANCH  11  12
ENDBRANCH   9  11
ENDBRANCH   1   9
BRANCH   6  17
ATOM     17  C   UNL     1       5.183   5.164  15.577  0.00  0.00    +0.000 C 
BRANCH  17  18
ATOM     18  C   UNL     1       5.880   4.757  14.300  0.00  0.00    +0.000 A 
ATOM     19  C   UNL     1       7.123   5.301  13.961  0.00  0.00    +0.000 A 
ATOM     20  C   UNL     1       7.768   4.896  12.791  0.00  0.00    +0.000 A 
ATOM     21  C   UNL     1       7.175   3.954  11.950  0.00  0.00    +0.000 A 
ATOM     22  C   UNL     1       5.935   3.410  12.279  0.00  0.00    +0.000 A 
ATOM     23  C   UNL     1       5.289   3.812  13.446  0.00  0.00    +0.000 A 
ENDBRANCH  17  18
ENDBRANCH   6  17
BRANCH   8  24
ATOM     24  C   UNL     1       3.451   6.797  17.772  0.00  0.00    +0.000 C 
BRANCH  24  25
ATOM     25  C   UNL     1       2.611   7.959  18.285  0.00  0.00    +0.000 A 
ATOM     26  C   UNL     1       2.027   8.791  17.335  0.00  0.00    +0.000 A 
ATOM     27  N   UNL     1       1.890   9.998  17.937  0.00  0.00    +0.000 N 
ATOM     28  C   UNL     1       1.431   9.720  19.192  0.00  0.00    +0.000 A 
ATOM     29  C   UNL     1       0.672  10.532  20.040  0.00  0.00    +0.000 A 
ATOM     30  C   UNL     1       0.267   9.978  21.244  0.00  0.00    +0.000 A 
ATOM     31  C   UNL     1       0.687   8.697  21.595  0.00  0.00    +0.000 A 
ATOM     32  C   UNL     1       1.522   7.926  20.749  0.00  0.00    +0.000 A 
ATOM     33  C   UNL     1       1.898   8.419  19.479  0.00  0.00    +0.000 A 
ATOM     34  H   UNL     1       2.420  10.830  17.716  0.00  0.00    +0.000 HD
ENDBRANCH  24  25
ENDBRANCH   8  24
TORSDOF 9
ENDMDL
