MODEL 1
REMARK VINA RESULT:      -8.5      0.000      0.000
REMARK  Name = 
REMARK  4 active torsions:
REMARK  status: ('A' for Active; 'I' for Inactive)
REMARK    1  A    between atoms: C_1  and  C_2
REMARK    2  A    between atoms: C_9  and  C_10
REMARK    3  A    between atoms: N_12  and  N_13
REMARK    4  A    between atoms: C_14  and  C_16
REMARK                            x       y       z     vdW  Elec       q    Type
REMARK                         _______ _______ _______ _____ _____    ______ ____
ROOT
ATOM      1  C   UNL     1       2.196   6.984  19.650  0.00  0.00    +0.000 C 
ATOM      2  O   UNL     1       2.421   7.840  18.790  0.00  0.00    +0.000 OA
ATOM      3  N   UNL     1       1.657   7.342  20.875  0.00  0.00    +0.000 N 
ATOM      4  H   UNL     1       1.420   6.690  21.621  0.00  0.00    +0.000 HD
ENDROOT
BRANCH   1  13
ATOM      5  C   UNL     1       1.707   2.277  21.531  0.00  0.00    +0.000 C 
ATOM      6  C   UNL     1       2.272   3.114  20.379  0.00  0.00    +0.000 C 
ATOM      7  C   UNL     1       1.654   2.659  19.036  0.00  0.00    +0.000 C 
ATOM      8  C   UNL     1       2.227   3.488  17.875  0.00  0.00    +0.000 C 
ATOM      9  C   UNL     1       3.750   3.295  17.823  0.00  0.00    +0.000 C 
ATOM     10  C   UNL     1       4.377   3.765  19.142  0.00  0.00    +0.000 C 
ATOM     11  C   UNL     1       3.805   2.934  20.300  0.00  0.00    +0.000 C 
ATOM     12  C   UNL     1       4.041   5.251  19.367  0.00  0.00    +0.000 C 
ATOM     13  C   UNL     1       2.504   5.480  19.431  0.00  0.00    +0.000 C 
ATOM     14  C   UNL     1       1.897   4.976  18.100  0.00  0.00    +0.000 C 
ATOM     15  C   UNL     1       1.948   4.617  20.591  0.00  0.00    +0.000 C 
ENDBRANCH   1  13
BRANCH   3  16
ATOM     16  N   UNL     1       1.352   8.703  21.108  0.00  0.00    +0.000 N 
ATOM     17  C   UNL     1       0.099   9.050  21.584  0.00  0.00    +0.000 C 
ATOM     18  O   UNL     1      -0.776   8.219  21.818  0.00  0.00    +0.000 OA
ATOM     19  H   UNL     1       2.145   9.343  21.074  0.00  0.00    +0.000 HD
BRANCH  17  20
ATOM     20  C   UNL     1      -0.151  10.503  21.823  0.00  0.00    +0.000 A 
ATOM     21  C   UNL     1      -1.022  10.948  22.819  0.00  0.00    +0.000 A 
ATOM     22  C   UNL     1      -1.165  12.312  23.003  0.00  0.00    +0.000 A 
ATOM     23  N   UNL     1      -0.520  13.242  22.270  0.00  0.00    +0.000 NA
ATOM     24  C   UNL     1       0.330  12.791  21.320  0.00  0.00    +0.000 A 
ATOM     25  C   UNL     1       0.553  11.447  21.068  0.00  0.00    +0.000 A 
ENDBRANCH  17  20
ENDBRANCH   3  16
TORSDOF 3
ENDMDL
MODEL 2
REMARK VINA RESULT:      -8.4      0.324      1.032
REMARK  Name = 
REMARK  4 active torsions:
REMARK  status: ('A' for Active; 'I' for Inactive)
REMARK    1  A    between atoms: C_1  and  C_2
REMARK    2  A    between atoms: C_9  and  C_10
REMARK    3  A    between atoms: N_12  and  N_13
REMARK    4  A    between atoms: C_14  and  C_16
REMARK                            x       y       z     vdW  Elec       q    Type
REMARK                         _______ _______ _______ _____ _____    ______ ____
ROOT
ATOM      1  C   UNL     1       2.328   6.987  19.481  0.00  0.00    +0.000 C 
ATOM      2  O   UNL     1       2.704   7.800  18.633  0.00  0.00    +0.000 OA
ATOM      3  N   UNL     1       1.709   7.417  20.643  0.00  0.00    +0.000 N 
ATOM      4  H   UNL     1       1.348   6.805  21.374  0.00  0.00    +0.000 HD
ENDROOT
BRANCH   1  13
ATOM      5  C   UNL     1       1.538   2.400  21.548  0.00  0.00    +0.000 C 
ATOM      6  C   UNL     1       2.143   3.151  20.357  0.00  0.00    +0.000 C 
ATOM      7  C   UNL     1       1.474   2.691  19.041  0.00  0.00    +0.000 C 
ATOM      8  C   UNL     1       2.085   3.433  17.841  0.00  0.00    +0.000 C 
ATOM      9  C   UNL     1       3.590   3.131  17.777  0.00  0.00    +0.000 C 
ATOM     10  C   UNL     1       4.269   3.605  19.069  0.00  0.00    +0.000 C 
ATOM     11  C   UNL     1       3.658   2.860  20.265  0.00  0.00    +0.000 C 
ATOM     12  C   UNL     1       4.041   5.118  19.242  0.00  0.00    +0.000 C 
ATOM     13  C   UNL     1       2.525   5.457  19.316  0.00  0.00    +0.000 C 
ATOM     14  C   UNL     1       1.864   4.948  18.013  0.00  0.00    +0.000 C 
ATOM     15  C   UNL     1       1.929   4.680  20.515  0.00  0.00    +0.000 C 
ENDBRANCH   1  13
BRANCH   3  16
ATOM     16  N   UNL     1       1.500   8.804  20.825  0.00  0.00    +0.000 N 
ATOM     17  C   UNL     1       0.321   9.247  21.400  0.00  0.00    +0.000 C 
ATOM     18  O   UNL     1      -0.568   8.482  21.765  0.00  0.00    +0.000 OA
ATOM     19  H   UNL     1       2.318   9.394  20.677  0.00  0.00    +0.000 HD
BRANCH  17  20
ATOM     20  C   UNL     1       0.173  10.723  21.576  0.00  0.00    +0.000 A 
ATOM     21  C   UNL     1       0.932  11.634  20.839  0.00  0.00    +0.000 A 
ATOM     22  C   UNL     1       0.704  12.985  21.033  0.00  0.00    +0.000 A 
ATOM     23  N   UNL     1      -0.204  13.478  21.899  0.00  0.00    +0.000 NA
ATOM     24  C   UNL     1      -0.939  12.581  22.593  0.00  0.00    +0.000 A 
ATOM     25  C   UNL     1      -0.796  11.209  22.460  0.00  0.00    +0.000 A 
ENDBRANCH  17  20
ENDBRANCH   3  16
TORSDOF 3
ENDMDL
MODEL 3
REMARK VINA RESULT:      -8.1      1.356      2.715
REMARK  Name = 
REMARK  4 active torsions:
REMARK  status: ('A' for Active; 'I' for Inactive)
REMARK    1  A    between atoms: C_1  and  C_2
REMARK    2  A    between atoms: C_9  and  C_10
REMARK    3  A    between atoms: N_12  and  N_13
REMARK    4  A    between atoms: C_14  and  C_16
REMARK                            x       y       z     vdW  Elec       q    Type
REMARK                         _______ _______ _______ _____ _____    ______ ____
ROOT
ATOM      1  C   UNL     1       1.842   5.656  20.216  0.00  0.00    +0.000 C 
ATOM      2  O   UNL     1       0.782   5.381  20.784  0.00  0.00    +0.000 OA
ATOM      3  N   UNL     1       2.382   6.928  20.311  0.00  0.00    +0.000 N 
ATOM      4  H   UNL     1       3.263   7.221  19.893  0.00  0.00    +0.000 HD
ENDROOT
BRANCH   1  13
ATOM      5  C   UNL     1       6.290   4.548  17.997  0.00  0.00    +0.000 C 
ATOM      6  C   UNL     1       4.855   4.069  18.236  0.00  0.00    +0.000 C 
ATOM      7  C   UNL     1       4.864   2.707  18.969  0.00  0.00    +0.000 C 
ATOM      8  C   UNL     1       3.425   2.214  19.202  0.00  0.00    +0.000 C 
ATOM      9  C   UNL     1       2.723   2.055  17.845  0.00  0.00    +0.000 C 
ATOM     10  C   UNL     1       2.688   3.406  17.117  0.00  0.00    +0.000 C 
ATOM     11  C   UNL     1       4.126   3.894  16.885  0.00  0.00    +0.000 C 
ATOM     12  C   UNL     1       1.936   4.434  17.984  0.00  0.00    +0.000 C 
ATOM     13  C   UNL     1       2.626   4.623  19.364  0.00  0.00    +0.000 C 
ATOM     14  C   UNL     1       2.668   3.243  20.063  0.00  0.00    +0.000 C 
ATOM     15  C   UNL     1       4.078   5.095  19.104  0.00  0.00    +0.000 C 
ENDBRANCH   1  13
BRANCH   3  16
ATOM     16  N   UNL     1       1.702   7.895  21.088  0.00  0.00    +0.000 N 
ATOM     17  C   UNL     1       1.137   8.996  20.467  0.00  0.00    +0.000 C 
ATOM     18  O   UNL     1       1.199   9.178  19.254  0.00  0.00    +0.000 OA
ATOM     19  H   UNL     1       1.517   7.630  22.055  0.00  0.00    +0.000 HD
BRANCH  17  20
ATOM     20  C   UNL     1       0.421   9.969  21.345  0.00  0.00    +0.000 A 
ATOM     21  C   UNL     1       0.410  11.338  21.074  0.00  0.00    +0.000 A 
ATOM     22  C   UNL     1      -0.312  12.167  21.914  0.00  0.00    +0.000 A 
ATOM     23  N   UNL     1      -1.001  11.733  22.989  0.00  0.00    +0.000 NA
ATOM     24  C   UNL     1      -0.991  10.402  23.227  0.00  0.00    +0.000 A 
ATOM     25  C   UNL     1      -0.310   9.490  22.437  0.00  0.00    +0.000 A 
ENDBRANCH  17  20
ENDBRANCH   3  16
TORSDOF 3
ENDMDL
MODEL 4
REMARK VINA RESULT:      -8.1      0.762      2.214
REMARK  Name = 
REMARK  4 active torsions:
REMARK  status: ('A' for Active; 'I' for Inactive)
REMARK    1  A    between atoms: C_1  and  C_2
REMARK    2  A    between atoms: C_9  and  C_10
REMARK    3  A    between atoms: N_12  and  N_13
REMARK    4  A    between atoms: C_14  and  C_16
REMARK                            x       y       z     vdW  Elec       q    Type
REMARK                         _______ _______ _______ _____ _____    ______ ____
ROOT
ATOM      1  C   UNL     1       2.305   7.226  19.391  0.00  0.00    +0.000 C 
ATOM      2  O   UNL     1       2.325   8.144  18.569  0.00  0.00    +0.000 OA
ATOM      3  N   UNL     1       1.865   7.449  20.686  0.00  0.00    +0.000 N 
ATOM      4  H   UNL     1       1.795   6.736  21.410  0.00  0.00    +0.000 HD
ENDROOT
BRANCH   1  13
ATOM      5  C   UNL     1       6.107   4.355  17.592  0.00  0.00    +0.000 C 
ATOM      6  C   UNL     1       4.673   4.341  18.131  0.00  0.00    +0.000 C 
ATOM      7  C   UNL     1       4.590   3.463  19.402  0.00  0.00    +0.000 C 
ATOM      8  C   UNL     1       3.150   3.436  19.941  0.00  0.00    +0.000 C 
ATOM      9  C   UNL     1       2.221   2.857  18.863  0.00  0.00    +0.000 C 
ATOM     10  C   UNL     1       2.277   3.735  17.605  0.00  0.00    +0.000 C 
ATOM     11  C   UNL     1       3.716   3.757  17.068  0.00  0.00    +0.000 C 
ATOM     12  C   UNL     1       1.844   5.169  17.961  0.00  0.00    +0.000 C 
ATOM     13  C   UNL     1       2.770   5.786  19.047  0.00  0.00    +0.000 C 
ATOM     14  C   UNL     1       2.711   4.870  20.293  0.00  0.00    +0.000 C 
ATOM     15  C   UNL     1       4.216   5.780  18.491  0.00  0.00    +0.000 C 
ENDBRANCH   1  13
BRANCH   3  16
ATOM     16  N   UNL     1       1.422   8.746  21.034  0.00  0.00    +0.000 N 
ATOM     17  C   UNL     1       0.139   8.919  21.528  0.00  0.00    +0.000 C 
ATOM     18  O   UNL     1      -0.646   7.986  21.679  0.00  0.00    +0.000 OA
ATOM     19  H   UNL     1       2.144   9.464  21.064  0.00  0.00    +0.000 HD
BRANCH  17  20
ATOM     20  C   UNL     1      -0.259  10.312  21.891  0.00  0.00    +0.000 A 
ATOM     21  C   UNL     1      -1.108  10.581  22.966  0.00  0.00    +0.000 A 
ATOM     22  C   UNL     1      -1.395  11.902  23.261  0.00  0.00    +0.000 A 
ATOM     23  N   UNL     1      -0.909  12.950  22.566  0.00  0.00    +0.000 NA
ATOM     24  C   UNL     1      -0.077  12.671  21.538  0.00  0.00    +0.000 A 
ATOM     25  C   UNL     1       0.282  11.383  21.172  0.00  0.00    +0.000 A 
ENDBRANCH  17  20
ENDBRANCH   3  16
TORSDOF 3
ENDMDL
MODEL 5
REMARK VINA RESULT:      -7.9      0.846      1.481
REMARK  Name = 
REMARK  4 active torsions:
REMARK  status: ('A' for Active; 'I' for Inactive)
REMARK    1  A    between atoms: C_1  and  C_2
REMARK    2  A    between atoms: C_9  and  C_10
REMARK    3  A    between atoms: N_12  and  N_13
REMARK    4  A    between atoms: C_14  and  C_16
REMARK                            x       y       z     vdW  Elec       q    Type
REMARK                         _______ _______ _______ _____ _____    ______ ____
ROOT
ATOM      1  C   UNL     1       2.385   7.128  19.284  0.00  0.00    +0.000 C 
ATOM      2  O   UNL     1       2.558   8.075  18.513  0.00  0.00    +0.000 OA
ATOM      3  N   UNL     1       1.825   7.333  20.535  0.00  0.00    +0.000 N 
ATOM      4  H   UNL     1       1.627   6.599  21.213  0.00  0.00    +0.000 HD
ENDROOT
BRANCH   1  13
ATOM      5  C   UNL     1       0.776   2.315  18.859  0.00  0.00    +0.000 C 
ATOM      6  C   UNL     1       1.981   3.251  18.721  0.00  0.00    +0.000 C 
ATOM      7  C   UNL     1       2.520   3.215  17.271  0.00  0.00    +0.000 C 
ATOM      8  C   UNL     1       3.737   4.144  17.129  0.00  0.00    +0.000 C 
ATOM      9  C   UNL     1       4.840   3.677  18.091  0.00  0.00    +0.000 C 
ATOM     10  C   UNL     1       4.325   3.730  19.536  0.00  0.00    +0.000 C 
ATOM     11  C   UNL     1       3.110   2.799  19.674  0.00  0.00    +0.000 C 
ATOM     12  C   UNL     1       3.903   5.171  19.876  0.00  0.00    +0.000 C 
ATOM     13  C   UNL     1       2.782   5.673  18.923  0.00  0.00    +0.000 C 
ATOM     14  C   UNL     1       3.320   5.587  17.475  0.00  0.00    +0.000 C 
ATOM     15  C   UNL     1       1.578   4.709  19.066  0.00  0.00    +0.000 C 
ENDBRANCH   1  13
BRANCH   3  16
ATOM     16  N   UNL     1       1.439   8.645  20.896  0.00  0.00    +0.000 N 
ATOM     17  C   UNL     1       0.194   8.858  21.464  0.00  0.00    +0.000 C 
ATOM     18  O   UNL     1      -0.606   7.949  21.671  0.00  0.00    +0.000 OA
ATOM     19  H   UNL     1       2.182   9.342  20.876  0.00  0.00    +0.000 HD
BRANCH  17  20
ATOM     20  C   UNL     1      -0.142  10.264  21.836  0.00  0.00    +0.000 A 
ATOM     21  C   UNL     1       0.346  11.356  21.115  0.00  0.00    +0.000 A 
ATOM     22  C   UNL     1      -0.047  12.626  21.500  0.00  0.00    +0.000 A 
ATOM     23  N   UNL     1      -0.869  12.875  22.539  0.00  0.00    +0.000 NA
ATOM     24  C   UNL     1      -1.344  11.805  23.216  0.00  0.00    +0.000 A 
ATOM     25  C   UNL     1      -1.020  10.496  22.900  0.00  0.00    +0.000 A 
ENDBRANCH  17  20
ENDBRANCH   3  16
TORSDOF 3
ENDMDL
MODEL 6
REMARK VINA RESULT:      -7.7      7.792     10.823
REMARK  Name = 
REMARK  4 active torsions:
REMARK  status: ('A' for Active; 'I' for Inactive)
REMARK    1  A    between atoms: C_1  and  C_2
REMARK    2  A    between atoms: C_9  and  C_10
REMARK    3  A    between atoms: N_12  and  N_13
REMARK    4  A    between atoms: C_14  and  C_16
REMARK                            x       y       z     vdW  Elec       q    Type
REMARK                         _______ _______ _______ _____ _____    ______ ____
ROOT
ATOM      1  C   UNL     1       8.504  10.653  17.911  0.00  0.00    +0.000 C 
ATOM      2  O   UNL     1       7.604  11.086  17.187  0.00  0.00    +0.000 OA
ATOM      3  N   UNL     1       8.638   9.292  18.132  0.00  0.00    +0.000 N 
ATOM      4  H   UNL     1       9.370   8.861  18.693  0.00  0.00    +0.000 HD
ENDROOT
BRANCH   1  13
ATOM      5  C   UNL     1       9.467  15.390  19.516  0.00  0.00    +0.000 C 
ATOM      6  C   UNL     1      10.018  13.964  19.417  0.00  0.00    +0.000 C 
ATOM      7  C   UNL     1      10.314  13.408  20.829  0.00  0.00    +0.000 C 
ATOM      8  C   UNL     1      10.879  11.981  20.736  0.00  0.00    +0.000 C 
ATOM      9  C   UNL     1      12.179  12.007  19.918  0.00  0.00    +0.000 C 
ATOM     10  C   UNL     1      11.893  12.536  18.506  0.00  0.00    +0.000 C 
ATOM     11  C   UNL     1      11.331  13.962  18.603  0.00  0.00    +0.000 C 
ATOM     12  C   UNL     1      10.856  11.626  17.820  0.00  0.00    +0.000 C 
ATOM     13  C   UNL     1       9.524  11.582  18.621  0.00  0.00    +0.000 C 
ATOM     14  C   UNL     1       9.847  11.069  20.045  0.00  0.00    +0.000 C 
ATOM     15  C   UNL     1       8.989  13.032  18.722  0.00  0.00    +0.000 C 
ENDBRANCH   1  13
BRANCH   3  16
ATOM     16  N   UNL     1       7.734   8.412  17.493  0.00  0.00    +0.000 N 
ATOM     17  C   UNL     1       7.605   7.113  17.955  0.00  0.00    +0.000 C 
ATOM     18  O   UNL     1       8.249   6.680  18.907  0.00  0.00    +0.000 OA
ATOM     19  H   UNL     1       7.094   8.845  16.828  0.00  0.00    +0.000 HD
BRANCH  17  20
ATOM     20  C   UNL     1       6.622   6.242  17.244  0.00  0.00    +0.000 A 
ATOM     21  C   UNL     1       6.995   5.430  16.171  0.00  0.00    +0.000 A 
ATOM     22  C   UNL     1       6.031   4.621  15.594  0.00  0.00    +0.000 A 
ATOM     23  N   UNL     1       4.747   4.576  16.000  0.00  0.00    +0.000 NA
ATOM     24  C   UNL     1       4.407   5.358  17.049  0.00  0.00    +0.000 A 
ATOM     25  C   UNL     1       5.301   6.191  17.703  0.00  0.00    +0.000 A 
ENDBRANCH  17  20
ENDBRANCH   3  16
TORSDOF 3
ENDMDL
MODEL 7
REMARK VINA RESULT:      -7.6      2.331      2.647
REMARK  Name = 
REMARK  4 active torsions:
REMARK  status: ('A' for Active; 'I' for Inactive)
REMARK    1  A    between atoms: C_1  and  C_2
REMARK    2  A    between atoms: C_9  and  C_10
REMARK    3  A    between atoms: N_12  and  N_13
REMARK    4  A    between atoms: C_14  and  C_16
REMARK                            x       y       z     vdW  Elec       q    Type
REMARK                         _______ _______ _______ _____ _____    ______ ____
ROOT
ATOM      1  C   UNL     1       2.265   7.252  19.490  0.00  0.00    +0.000 C 
ATOM      2  O   UNL     1       1.993   7.754  20.583  0.00  0.00    +0.000 OA
ATOM      3  N   UNL     1       2.451   8.052  18.375  0.00  0.00    +0.000 N 
ATOM      4  H   UNL     1       2.704   7.713  17.448  0.00  0.00    +0.000 HD
ENDROOT
BRANCH   1  13
ATOM      5  C   UNL     1       1.359   2.647  21.467  0.00  0.00    +0.000 C 
ATOM      6  C   UNL     1       1.965   3.405  20.282  0.00  0.00    +0.000 C 
ATOM      7  C   UNL     1       1.252   2.999  18.970  0.00  0.00    +0.000 C 
ATOM      8  C   UNL     1       1.864   3.748  17.774  0.00  0.00    +0.000 C 
ATOM      9  C   UNL     1       3.356   3.395  17.671  0.00  0.00    +0.000 C 
ATOM     10  C   UNL     1       4.078   3.815  18.958  0.00  0.00    +0.000 C 
ATOM     11  C   UNL     1       3.466   3.063  20.150  0.00  0.00    +0.000 C 
ATOM     12  C   UNL     1       3.907   5.331  19.170  0.00  0.00    +0.000 C 
ATOM     13  C   UNL     1       2.406   5.720  19.286  0.00  0.00    +0.000 C 
ATOM     14  C   UNL     1       1.700   5.265  17.986  0.00  0.00    +0.000 C 
ATOM     15  C   UNL     1       1.807   4.936  20.479  0.00  0.00    +0.000 C 
ENDBRANCH   1  13
BRANCH   3  16
ATOM     16  N   UNL     1       2.343   9.454  18.523  0.00  0.00    +0.000 N 
ATOM     17  C   UNL     1       1.136  10.077  18.251  0.00  0.00    +0.000 C 
ATOM     18  O   UNL     1       0.140   9.462  17.879  0.00  0.00    +0.000 OA
ATOM     19  H   UNL     1       3.123   9.908  18.996  0.00  0.00    +0.000 HD
BRANCH  17  20
ATOM     20  C   UNL     1       1.087  11.558  18.443  0.00  0.00    +0.000 A 
ATOM     21  C   UNL     1       2.233  12.351  18.362  0.00  0.00    +0.000 A 
ATOM     22  C   UNL     1       2.095  13.720  18.512  0.00  0.00    +0.000 A 
ATOM     23  N   UNL     1       0.918  14.336  18.740  0.00  0.00    +0.000 NA
ATOM     24  C   UNL     1      -0.183  13.553  18.801  0.00  0.00    +0.000 A 
ATOM     25  C   UNL     1      -0.150  12.176  18.651  0.00  0.00    +0.000 A 
ENDBRANCH  17  20
ENDBRANCH   3  16
TORSDOF 3
ENDMDL
MODEL 8
REMARK VINA RESULT:      -7.6      2.095      2.528
REMARK  Name = 
REMARK  4 active torsions:
REMARK  status: ('A' for Active; 'I' for Inactive)
REMARK    1  A    between atoms: C_1  and  C_2
REMARK    2  A    between atoms: C_9  and  C_10
REMARK    3  A    between atoms: N_12  and  N_13
REMARK    4  A    between atoms: C_14  and  C_16
REMARK                            x       y       z     vdW  Elec       q    Type
REMARK                         _______ _______ _______ _____ _____    ______ ____
ROOT
ATOM      1  C   UNL     1       2.844   6.864  18.315  0.00  0.00    +0.000 C 
ATOM      2  O   UNL     1       3.806   7.362  17.725  0.00  0.00    +0.000 OA
ATOM      3  N   UNL     1       1.817   7.664  18.789  0.00  0.00    +0.000 N 
ATOM      4  H   UNL     1       0.981   7.324  19.260  0.00  0.00    +0.000 HD
ENDROOT
BRANCH   1  13
ATOM      5  C   UNL     1       2.124   3.239  21.820  0.00  0.00    +0.000 C 
ATOM      6  C   UNL     1       2.372   3.514  20.333  0.00  0.00    +0.000 C 
ATOM      7  C   UNL     1       1.210   2.946  19.485  0.00  0.00    +0.000 C 
ATOM      8  C   UNL     1       1.460   3.209  17.990  0.00  0.00    +0.000 C 
ATOM      9  C   UNL     1       2.771   2.527  17.573  0.00  0.00    +0.000 C 
ATOM     10  C   UNL     1       3.937   3.098  18.392  0.00  0.00    +0.000 C 
ATOM     11  C   UNL     1       3.685   2.833  19.884  0.00  0.00    +0.000 C 
ATOM     12  C   UNL     1       4.032   4.617  18.155  0.00  0.00    +0.000 C 
ATOM     13  C   UNL     1       2.720   5.339  18.574  0.00  0.00    +0.000 C 
ATOM     14  C   UNL     1       1.562   4.727  17.750  0.00  0.00    +0.000 C 
ATOM     15  C   UNL     1       2.478   5.040  20.074  0.00  0.00    +0.000 C 
ENDBRANCH   1  13
BRANCH   3  16
ATOM     16  N   UNL     1       1.888   9.059  18.563  0.00  0.00    +0.000 N 
ATOM     17  C   UNL     1       1.066   9.909  19.282  0.00  0.00    +0.000 C 
ATOM     18  O   UNL     1       0.263   9.506  20.120  0.00  0.00    +0.000 OA
ATOM     19  H   UNL     1       2.676   9.373  17.998  0.00  0.00    +0.000 HD
BRANCH  17  20
ATOM     20  C   UNL     1       1.203  11.370  19.004  0.00  0.00    +0.000 A 
ATOM     21  C   UNL     1       2.284  11.887  18.287  0.00  0.00    +0.000 A 
ATOM     22  C   UNL     1       2.315  13.248  18.037  0.00  0.00    +0.000 A 
ATOM     23  N   UNL     1       1.366  14.111  18.453  0.00  0.00    +0.000 NA
ATOM     24  C   UNL     1       0.321  13.590  19.134  0.00  0.00    +0.000 A 
ATOM     25  C   UNL     1       0.191  12.241  19.422  0.00  0.00    +0.000 A 
ENDBRANCH  17  20
ENDBRANCH   3  16
TORSDOF 3
ENDMDL
MODEL 9
REMARK VINA RESULT:      -7.6      1.675      2.410
REMARK  Name = 
REMARK  4 active torsions:
REMARK  status: ('A' for Active; 'I' for Inactive)
REMARK    1  A    between atoms: C_1  and  C_2
REMARK    2  A    between atoms: C_9  and  C_10
REMARK    3  A    between atoms: N_12  and  N_13
REMARK    4  A    between atoms: C_14  and  C_16
REMARK                            x       y       z     vdW  Elec       q    Type
REMARK                         _______ _______ _______ _____ _____    ______ ____
ROOT
ATOM      1  C   UNL     1       2.665   7.538  18.290  0.00  0.00    +0.000 C 
ATOM      2  O   UNL     1       2.488   8.379  17.406  0.00  0.00    +0.000 OA
ATOM      3  N   UNL     1       2.088   7.698  19.539  0.00  0.00    +0.000 N 
ATOM      4  H   UNL     1       2.167   7.035  20.309  0.00  0.00    +0.000 HD
ENDROOT
BRANCH   1  13
ATOM      5  C   UNL     1       2.646   2.523  17.404  0.00  0.00    +0.000 C 
ATOM      6  C   UNL     1       3.531   3.750  17.646  0.00  0.00    +0.000 C 
ATOM      7  C   UNL     1       4.470   3.975  16.437  0.00  0.00    +0.000 C 
ATOM      8  C   UNL     1       5.369   5.199  16.678  0.00  0.00    +0.000 C 
ATOM      9  C   UNL     1       6.215   4.960  17.938  0.00  0.00    +0.000 C 
ATOM     10  C   UNL     1       5.294   4.758  19.150  0.00  0.00    +0.000 C 
ATOM     11  C   UNL     1       4.399   3.534  18.906  0.00  0.00    +0.000 C 
ATOM     12  C   UNL     1       4.411   6.006  19.335  0.00  0.00    +0.000 C 
ATOM     13  C   UNL     1       3.536   6.272  18.077  0.00  0.00    +0.000 C 
ATOM     14  C   UNL     1       4.489   6.449  16.870  0.00  0.00    +0.000 C 
ATOM     15  C   UNL     1       2.659   5.018  17.841  0.00  0.00    +0.000 C 
ENDBRANCH   1  13
BRANCH   3  16
ATOM     16  N   UNL     1       1.278   8.834  19.769  0.00  0.00    +0.000 N 
ATOM     17  C   UNL     1       0.900   9.153  21.062  0.00  0.00    +0.000 C 
ATOM     18  O   UNL     1       1.239   8.486  22.037  0.00  0.00    +0.000 OA
ATOM     19  H   UNL     1       1.161   9.459  18.972  0.00  0.00    +0.000 HD
BRANCH  17  20
ATOM     20  C   UNL     1       0.057  10.374  21.235  0.00  0.00    +0.000 A 
ATOM     21  C   UNL     1      -0.300  11.182  20.154  0.00  0.00    +0.000 A 
ATOM     22  C   UNL     1      -1.119  12.273  20.393  0.00  0.00    +0.000 A 
ATOM     23  N   UNL     1      -1.586  12.609  21.612  0.00  0.00    +0.000 NA
ATOM     24  C   UNL     1      -1.241  11.807  22.644  0.00  0.00    +0.000 A 
ATOM     25  C   UNL     1      -0.439  10.685  22.505  0.00  0.00    +0.000 A 
ENDBRANCH  17  20
ENDBRANCH   3  16
TORSDOF 3
ENDMDL
