MODEL 1
REMARK VINA RESULT:      -7.4      0.000      0.000
REMARK  Name = 
REMARK  5 active torsions:
REMARK  status: ('A' for Active; 'I' for Inactive)
REMARK    1  A    between atoms: C_1  and  O_2
REMARK    2  A    between atoms: O_2  and  C_3
REMARK    3  A    between atoms: C_4  and  C_5
REMARK    4  A    between atoms: N_7  and  C_8
REMARK    5  A    between atoms: N_16  and  C_17
REMARK                            x       y       z     vdW  Elec       q    Type
REMARK                         _______ _______ _______ _____ _____    ______ ____
ROOT
ATOM      1  C   UNL     1       0.544   8.116  20.934  0.00  0.00    +0.000 C 
ATOM      2  O   UNL     1      -0.436   7.697  21.531  0.00  0.00    +0.000 OA
ATOM      3  N   UNL     1       0.766   9.455  20.672  0.00  0.00    +0.000 N 
ATOM      4  H   UNL     1       1.536   9.712  20.069  0.00  0.00    +0.000 HD
ENDROOT
BRANCH   1   6
ATOM      5  C   UNL     1       2.397   7.443  19.355  0.00  0.00    +0.000 A 
ATOM      6  C   UNL     1       1.587   7.174  20.468  0.00  0.00    +0.000 A 
ATOM      7  C   UNL     1       1.587   5.909  21.057  0.00  0.00    +0.000 A 
ATOM      8  C   UNL     1       2.330   4.872  20.491  0.00  0.00    +0.000 A 
ATOM      9 BR   UNL     1       2.218   3.187  21.377  0.00  0.00    +0.000 Br
ATOM     10  C   UNL     1       3.068   5.068  19.300  0.00  0.00    +0.000 A 
ATOM     11  C   UNL     1       3.735   4.015  18.624  0.00  0.00    +0.000 A 
ATOM     12  C   UNL     1       4.415   4.226  17.425  0.00  0.00    +0.000 A 
ATOM     13  C   UNL     1       4.477   5.499  16.889  0.00  0.00    +0.000 A 
ATOM     14  C   UNL     1       3.841   6.559  17.539  0.00  0.00    +0.000 A 
ATOM     15  C   UNL     1       3.109   6.372  18.737  0.00  0.00    +0.000 A 
BRANCH   5  17
ATOM     16  C   UNL     1       1.631   8.897  17.617  0.00  0.00    +0.000 C 
ATOM     17  O   UNL     1       2.495   8.668  18.731  0.00  0.00    +0.000 OA
ENDBRANCH   5  17
ENDBRANCH   1   6
BRANCH   3  18
ATOM     18  C   UNL     1      -0.283  10.446  20.914  0.00  0.00    +0.000 C 
ATOM     19  C   UNL     1       0.309  11.723  21.508  0.00  0.00    +0.000 C 
ATOM     20  C   UNL     1      -0.273  13.039  20.972  0.00  0.00    +0.000 C 
ATOM     21  C   UNL     1       0.616  13.636  19.859  0.00  0.00    +0.000 C 
ATOM     22  C   UNL     1       0.457  12.979  18.496  0.00  0.00    +0.000 C 
ATOM     23  C   UNL     1      -0.997  12.638  18.193  0.00  0.00    +0.000 C 
ATOM     24  C   UNL     1      -1.727  11.989  19.390  0.00  0.00    +0.000 C 
ATOM     25  C   UNL     1      -1.151  10.590  19.662  0.00  0.00    +0.000 C 
ATOM     26  N   UNL     1      -1.678  12.929  20.523  0.00  0.00    +0.000 NA
BRANCH  26  27
ATOM     27  C   UNL     1      -2.650  12.696  21.627  0.00  0.00    +0.000 C 
ATOM     28  C   UNL     1      -2.545  13.785  22.726  0.00  0.00    +0.000 C 
ATOM     29  C   UNL     1      -3.026  15.163  22.266  0.00  0.00    +0.000 C 
ATOM     30  C   UNL     1      -4.439  15.139  21.692  0.00  0.00    +0.000 C 
ATOM     31  C   UNL     1      -4.689  13.988  20.721  0.00  0.00    +0.000 C 
ATOM     32  C   UNL     1      -4.145  12.653  21.227  0.00  0.00    +0.000 C 
ENDBRANCH  26  27
ENDBRANCH   3  18
TORSDOF 4
ENDMDL
MODEL 2
REMARK VINA RESULT:      -7.3      1.044      1.184
REMARK  Name = 
REMARK  5 active torsions:
REMARK  status: ('A' for Active; 'I' for Inactive)
REMARK    1  A    between atoms: C_1  and  O_2
REMARK    2  A    between atoms: O_2  and  C_3
REMARK    3  A    between atoms: C_4  and  C_5
REMARK    4  A    between atoms: N_7  and  C_8
REMARK    5  A    between atoms: N_16  and  C_17
REMARK                            x       y       z     vdW  Elec       q    Type
REMARK                         _______ _______ _______ _____ _____    ______ ____
ROOT
ATOM      1  C   UNL     1       0.116   8.523  21.126  0.00  0.00    +0.000 C 
ATOM      2  O   UNL     1      -0.835   7.989  21.678  0.00  0.00    +0.000 OA
ATOM      3  N   UNL     1       0.241   9.890  20.966  0.00  0.00    +0.000 N 
ATOM      4  H   UNL     1       0.993  10.247  20.393  0.00  0.00    +0.000 HD
ENDROOT
BRANCH   1   6
ATOM      5  C   UNL     1       1.999   8.088  19.499  0.00  0.00    +0.000 A 
ATOM      6  C   UNL     1       1.228   7.697  20.604  0.00  0.00    +0.000 A 
ATOM      7  C   UNL     1       1.342   6.408  21.129  0.00  0.00    +0.000 A 
ATOM      8  C   UNL     1       2.163   5.467  20.505  0.00  0.00    +0.000 A 
ATOM      9 BR   UNL     1       2.205   3.737  21.306  0.00  0.00    +0.000 Br
ATOM     10  C   UNL     1       2.867   5.784  19.319  0.00  0.00    +0.000 A 
ATOM     11  C   UNL     1       3.611   4.826  18.586  0.00  0.00    +0.000 A 
ATOM     12  C   UNL     1       4.257   5.152  17.393  0.00  0.00    +0.000 A 
ATOM     13  C   UNL     1       4.204   6.452  16.921  0.00  0.00    +0.000 A 
ATOM     14  C   UNL     1       3.490   7.420  17.629  0.00  0.00    +0.000 A 
ATOM     15  C   UNL     1       2.791   7.113  18.822  0.00  0.00    +0.000 A 
BRANCH   5  17
ATOM     16  C   UNL     1       1.078   9.561  17.856  0.00  0.00    +0.000 C 
ATOM     17  O   UNL     1       1.985   9.346  18.937  0.00  0.00    +0.000 OA
ENDBRANCH   5  17
ENDBRANCH   1   6
BRANCH   3  18
ATOM     18  C   UNL     1      -0.880  10.781  21.268  0.00  0.00    +0.000 C 
ATOM     19  C   UNL     1      -0.591  11.605  22.521  0.00  0.00    +0.000 C 
ATOM     20  C   UNL     1      -1.029  13.076  22.468  0.00  0.00    +0.000 C 
ATOM     21  C   UNL     1       0.149  14.000  22.089  0.00  0.00    +0.000 C 
ATOM     22  C   UNL     1       0.492  14.020  20.607  0.00  0.00    +0.000 C 
ATOM     23  C   UNL     1      -0.756  13.998  19.733  0.00  0.00    +0.000 C 
ATOM     24  C   UNL     1      -1.809  12.973  20.210  0.00  0.00    +0.000 C 
ATOM     25  C   UNL     1      -1.284  11.543  20.004  0.00  0.00    +0.000 C 
ATOM     26  N   UNL     1      -2.194  13.318  21.589  0.00  0.00    +0.000 NA
BRANCH  26  27
ATOM     27  C   UNL     1      -3.466  12.732  22.095  0.00  0.00    +0.000 C 
ATOM     28  C   UNL     1      -3.806  13.237  23.521  0.00  0.00    +0.000 C 
ATOM     29  C   UNL     1      -4.187  14.718  23.567  0.00  0.00    +0.000 C 
ATOM     30  C   UNL     1      -5.318  15.073  22.606  0.00  0.00    +0.000 C 
ATOM     31  C   UNL     1      -5.153  14.470  21.213  0.00  0.00    +0.000 C 
ATOM     32  C   UNL     1      -4.731  13.002  21.245  0.00  0.00    +0.000 C 
ENDBRANCH  26  27
ENDBRANCH   3  18
TORSDOF 4
ENDMDL
MODEL 3
REMARK VINA RESULT:      -7.0      7.255     11.532
REMARK  Name = 
REMARK  5 active torsions:
REMARK  status: ('A' for Active; 'I' for Inactive)
REMARK    1  A    between atoms: C_1  and  O_2
REMARK    2  A    between atoms: O_2  and  C_3
REMARK    3  A    between atoms: C_4  and  C_5
REMARK    4  A    between atoms: N_7  and  C_8
REMARK    5  A    between atoms: N_16  and  C_17
REMARK                            x       y       z     vdW  Elec       q    Type
REMARK                         _______ _______ _______ _____ _____    ______ ____
ROOT
ATOM      1  C   UNL     1       3.992  15.025  18.667  0.00  0.00    +0.000 C 
ATOM      2  O   UNL     1       3.894  13.956  18.083  0.00  0.00    +0.000 OA
ATOM      3  N   UNL     1       5.191  15.545  19.116  0.00  0.00    +0.000 N 
ATOM      4  H   UNL     1       5.176  16.373  19.697  0.00  0.00    +0.000 HD
ENDROOT
BRANCH   1   6
ATOM      5  C   UNL     1       1.918  15.609  19.986  0.00  0.00    +0.000 A 
ATOM      6  C   UNL     1       2.787  15.849  18.910  0.00  0.00    +0.000 A 
ATOM      7  C   UNL     1       2.435  16.745  17.899  0.00  0.00    +0.000 A 
ATOM      8  C   UNL     1       1.176  17.348  17.903  0.00  0.00    +0.000 A 
ATOM      9 BR   UNL     1       0.811  18.526  16.449  0.00  0.00    +0.000 Br
ATOM     10  C   UNL     1       0.224  17.044  18.905  0.00  0.00    +0.000 A 
ATOM     11  C   UNL     1      -1.105  17.537  18.880  0.00  0.00    +0.000 A 
ATOM     12  C   UNL     1      -2.039  17.183  19.854  0.00  0.00    +0.000 A 
ATOM     13  C   UNL     1      -1.660  16.357  20.897  0.00  0.00    +0.000 A 
ATOM     14  C   UNL     1      -0.353  15.867  20.956  0.00  0.00    +0.000 A 
ATOM     15  C   UNL     1       0.608  16.175  19.962  0.00  0.00    +0.000 A 
BRANCH   5  17
ATOM     16  C   UNL     1       2.997  15.312  22.099  0.00  0.00    +0.000 C 
ATOM     17  O   UNL     1       2.193  14.776  21.048  0.00  0.00    +0.000 OA
ENDBRANCH   5  17
ENDBRANCH   1   6
BRANCH   3  18
ATOM     18  C   UNL     1       6.408  14.733  19.102  0.00  0.00    +0.000 C 
ATOM     19  C   UNL     1       7.195  14.963  17.813  0.00  0.00    +0.000 C 
ATOM     20  C   UNL     1       8.720  15.048  17.970  0.00  0.00    +0.000 C 
ATOM     21  C   UNL     1       9.199  16.515  18.036  0.00  0.00    +0.000 C 
ATOM     22  C   UNL     1       8.995  17.189  19.385  0.00  0.00    +0.000 C 
ATOM     23  C   UNL     1       9.296  16.248  20.545  0.00  0.00    +0.000 C 
ATOM     24  C   UNL     1       8.692  14.840  20.351  0.00  0.00    +0.000 C 
ATOM     25  C   UNL     1       7.158  14.910  20.424  0.00  0.00    +0.000 C 
ATOM     26  N   UNL     1       9.245  14.269  19.112  0.00  0.00    +0.000 NA
BRANCH  26  27
ATOM     27  C   UNL     1       9.126  12.794  18.944  0.00  0.00    +0.000 C 
ATOM     28  C   UNL     1       9.915  12.289  17.707  0.00  0.00    +0.000 C 
ATOM     29  C   UNL     1      11.433  12.393  17.869  0.00  0.00    +0.000 C 
ATOM     30  C   UNL     1      11.946  11.704  19.130  0.00  0.00    +0.000 C 
ATOM     31  C   UNL     1      11.120  12.008  20.377  0.00  0.00    +0.000 C 
ATOM     32  C   UNL     1       9.615  11.927  20.130  0.00  0.00    +0.000 C 
ENDBRANCH  26  27
ENDBRANCH   3  18
TORSDOF 4
ENDMDL
MODEL 4
REMARK VINA RESULT:      -7.0      2.767      9.192
REMARK  Name = 
REMARK  5 active torsions:
REMARK  status: ('A' for Active; 'I' for Inactive)
REMARK    1  A    between atoms: C_1  and  O_2
REMARK    2  A    between atoms: O_2  and  C_3
REMARK    3  A    between atoms: C_4  and  C_5
REMARK    4  A    between atoms: N_7  and  C_8
REMARK    5  A    between atoms: N_16  and  C_17
REMARK                            x       y       z     vdW  Elec       q    Type
REMARK                         _______ _______ _______ _____ _____    ______ ____
ROOT
ATOM      1  C   UNL     1       1.120   9.961  18.428  0.00  0.00    +0.000 C 
ATOM      2  O   UNL     1       2.140  10.600  18.216  0.00  0.00    +0.000 OA
ATOM      3  N   UNL     1       1.112   8.620  18.767  0.00  0.00    +0.000 N 
ATOM      4  H   UNL     1       0.227   8.133  18.805  0.00  0.00    +0.000 HD
ENDROOT
BRANCH   1   6
ATOM      5  C   UNL     1      -0.665  11.491  19.350  0.00  0.00    +0.000 A 
ATOM      6  C   UNL     1      -0.200  10.625  18.348  0.00  0.00    +0.000 A 
ATOM      7  C   UNL     1      -1.054  10.188  17.334  0.00  0.00    +0.000 A 
ATOM      8  C   UNL     1      -2.404  10.540  17.354  0.00  0.00    +0.000 A 
ATOM      9 BR   UNL     1      -3.466   9.852  15.927  0.00  0.00    +0.000 Br
ATOM     10  C   UNL     1      -2.942  11.314  18.410  0.00  0.00    +0.000 A 
ATOM     11  C   UNL     1      -4.327  11.590  18.535  0.00  0.00    +0.000 A 
ATOM     12  C   UNL     1      -4.837  12.315  19.612  0.00  0.00    +0.000 A 
ATOM     13  C   UNL     1      -3.974  12.812  20.572  0.00  0.00    +0.000 A 
ATOM     14  C   UNL     1      -2.603  12.568  20.468  0.00  0.00    +0.000 A 
ATOM     15  C   UNL     1      -2.057  11.803  19.409  0.00  0.00    +0.000 A 
BRANCH   5  17
ATOM     16  C   UNL     1       0.814  13.217  20.091  0.00  0.00    +0.000 C 
ATOM     17  O   UNL     1       0.109  12.006  20.366  0.00  0.00    +0.000 OA
ENDBRANCH   5  17
ENDBRANCH   1   6
BRANCH   3  18
ATOM     18  C   UNL     1       2.337   7.824  18.685  0.00  0.00    +0.000 C 
ATOM     19  C   UNL     1       2.665   7.199  20.040  0.00  0.00    +0.000 C 
ATOM     20  C   UNL     1       3.179   5.753  20.000  0.00  0.00    +0.000 C 
ATOM     21  C   UNL     1       2.042   4.744  20.274  0.00  0.00    +0.000 C 
ATOM     22  C   UNL     1       1.126   4.480  19.088  0.00  0.00    +0.000 C 
ATOM     23  C   UNL     1       1.899   4.403  17.776  0.00  0.00    +0.000 C 
ATOM     24  C   UNL     1       2.953   5.522  17.631  0.00  0.00    +0.000 C 
ATOM     25  C   UNL     1       2.258   6.885  17.479  0.00  0.00    +0.000 C 
ATOM     26  N   UNL     1       3.899   5.411  18.754  0.00  0.00    +0.000 NA
BRANCH  26  27
ATOM     27  C   UNL     1       5.205   6.109  18.599  0.00  0.00    +0.000 C 
ATOM     28  C   UNL     1       6.402   5.139  18.774  0.00  0.00    +0.000 C 
ATOM     29  C   UNL     1       6.534   4.124  17.636  0.00  0.00    +0.000 C 
ATOM     30  C   UNL     1       6.591   4.777  16.259  0.00  0.00    +0.000 C 
ATOM     31  C   UNL     1       5.551   5.876  16.055  0.00  0.00    +0.000 C 
ATOM     32  C   UNL     1       5.445   6.825  17.247  0.00  0.00    +0.000 C 
ENDBRANCH  26  27
ENDBRANCH   3  18
TORSDOF 4
ENDMDL
MODEL 5
REMARK VINA RESULT:      -6.9      1.990      2.897
REMARK  Name = 
REMARK  5 active torsions:
REMARK  status: ('A' for Active; 'I' for Inactive)
REMARK    1  A    between atoms: C_1  and  O_2
REMARK    2  A    between atoms: O_2  and  C_3
REMARK    3  A    between atoms: C_4  and  C_5
REMARK    4  A    between atoms: N_7  and  C_8
REMARK    5  A    between atoms: N_16  and  C_17
REMARK                            x       y       z     vdW  Elec       q    Type
REMARK                         _______ _______ _______ _____ _____    ______ ____
ROOT
ATOM      1  C   UNL     1       1.843   7.787  19.983  0.00  0.00    +0.000 C 
ATOM      2  O   UNL     1       1.859   7.593  21.190  0.00  0.00    +0.000 OA
ATOM      3  N   UNL     1       1.447   8.979  19.404  0.00  0.00    +0.000 N 
ATOM      4  H   UNL     1       1.345   9.021  18.399  0.00  0.00    +0.000 HD
ENDROOT
BRANCH   1   6
ATOM      5  C   UNL     1       1.996   5.367  19.279  0.00  0.00    +0.000 A 
ATOM      6  C   UNL     1       2.284   6.721  19.056  0.00  0.00    +0.000 A 
ATOM      7  C   UNL     1       3.183   7.101  18.058  0.00  0.00    +0.000 A 
ATOM      8  C   UNL     1       3.871   6.131  17.328  0.00  0.00    +0.000 A 
ATOM      9 BR   UNL     1       5.092   6.784  16.017  0.00  0.00    +0.000 Br
ATOM     10  C   UNL     1       3.699   4.753  17.601  0.00  0.00    +0.000 A 
ATOM     11  C   UNL     1       4.466   3.741  16.970  0.00  0.00    +0.000 A 
ATOM     12  C   UNL     1       4.311   2.393  17.292  0.00  0.00    +0.000 A 
ATOM     13  C   UNL     1       3.361   2.017  18.226  0.00  0.00    +0.000 A 
ATOM     14  C   UNL     1       2.582   2.991  18.854  0.00  0.00    +0.000 A 
ATOM     15  C   UNL     1       2.741   4.371  18.579  0.00  0.00    +0.000 A 
BRANCH   5  17
ATOM     16  C   UNL     1       1.622   4.108  21.278  0.00  0.00    +0.000 C 
ATOM     17  O   UNL     1       1.096   4.897  20.211  0.00  0.00    +0.000 OA
ENDBRANCH   5  17
ENDBRANCH   1   6
BRANCH   3  18
ATOM     18  C   UNL     1       0.814  10.024  20.208  0.00  0.00    +0.000 C 
ATOM     19  C   UNL     1       1.366  11.399  19.837  0.00  0.00    +0.000 C 
ATOM     20  C   UNL     1       0.334  12.535  19.767  0.00  0.00    +0.000 C 
ATOM     21  C   UNL     1      -0.130  12.785  18.315  0.00  0.00    +0.000 C 
ATOM     22  C   UNL     1      -1.153  11.788  17.794  0.00  0.00    +0.000 C 
ATOM     23  C   UNL     1      -2.180  11.414  18.856  0.00  0.00    +0.000 C 
ATOM     24  C   UNL     1      -1.544  11.132  20.236  0.00  0.00    +0.000 C 
ATOM     25  C   UNL     1      -0.705   9.845  20.177  0.00  0.00    +0.000 C 
ATOM     26  N   UNL     1      -0.824  12.342  20.666  0.00  0.00    +0.000 NA
BRANCH  26  27
ATOM     27  C   UNL     1      -0.489  12.442  22.113  0.00  0.00    +0.000 C 
ATOM     28  C   UNL     1      -0.460  13.915  22.598  0.00  0.00    +0.000 C 
ATOM     29  C   UNL     1      -1.839  14.575  22.623  0.00  0.00    +0.000 C 
ATOM     30  C   UNL     1      -2.865  13.783  23.429  0.00  0.00    +0.000 C 
ATOM     31  C   UNL     1      -2.848  12.284  23.140  0.00  0.00    +0.000 C 
ATOM     32  C   UNL     1      -1.437  11.702  23.089  0.00  0.00    +0.000 C 
ENDBRANCH  26  27
ENDBRANCH   3  18
TORSDOF 4
ENDMDL
MODEL 6
REMARK VINA RESULT:      -6.9      7.154      8.580
REMARK  Name = 
REMARK  5 active torsions:
REMARK  status: ('A' for Active; 'I' for Inactive)
REMARK    1  A    between atoms: C_1  and  O_2
REMARK    2  A    between atoms: O_2  and  C_3
REMARK    3  A    between atoms: C_4  and  C_5
REMARK    4  A    between atoms: N_7  and  C_8
REMARK    5  A    between atoms: N_16  and  C_17
REMARK                            x       y       z     vdW  Elec       q    Type
REMARK                         _______ _______ _______ _____ _____    ______ ____
ROOT
ATOM      1  C   UNL     1       6.946  15.874  19.324  0.00  0.00    +0.000 C 
ATOM      2  O   UNL     1       7.037  17.086  19.196  0.00  0.00    +0.000 OA
ATOM      3  N   UNL     1       5.758  15.178  19.200  0.00  0.00    +0.000 N 
ATOM      4  H   UNL     1       5.742  14.196  19.440  0.00  0.00    +0.000 HD
ENDROOT
BRANCH   1   6
ATOM      5  C   UNL     1       9.170  14.878  18.657  0.00  0.00    +0.000 A 
ATOM      6  C   UNL     1       8.154  15.067  19.607  0.00  0.00    +0.000 A 
ATOM      7  C   UNL     1       8.140  14.325  20.789  0.00  0.00    +0.000 A 
ATOM      8  C   UNL     1       9.090  13.325  21.001  0.00  0.00    +0.000 A 
ATOM      9 BR   UNL     1       8.940  12.366  22.642  0.00  0.00    +0.000 Br
ATOM     10  C   UNL     1      10.062  13.021  20.017  0.00  0.00    +0.000 A 
ATOM     11  C   UNL     1      10.965  11.934  20.136  0.00  0.00    +0.000 A 
ATOM     12  C   UNL     1      11.881  11.626  19.131  0.00  0.00    +0.000 A 
ATOM     13  C   UNL     1      11.942  12.415  17.996  0.00  0.00    +0.000 A 
ATOM     14  C   UNL     1      11.073  13.500  17.856  0.00  0.00    +0.000 A 
ATOM     15  C   UNL     1      10.106  13.817  18.841  0.00  0.00    +0.000 A 
BRANCH   5  17
ATOM     16  C   UNL     1      10.050  16.796  17.533  0.00  0.00    +0.000 C 
ATOM     17  O   UNL     1       9.290  15.589  17.483  0.00  0.00    +0.000 OA
ENDBRANCH   5  17
ENDBRANCH   1   6
BRANCH   3  18
ATOM     18  C   UNL     1       4.483  15.889  19.113  0.00  0.00    +0.000 C 
ATOM     19  C   UNL     1       3.641  15.348  17.959  0.00  0.00    +0.000 C 
ATOM     20  C   UNL     1       2.139  15.198  18.243  0.00  0.00    +0.000 C 
ATOM     21  C   UNL     1       1.783  13.748  18.639  0.00  0.00    +0.000 C 
ATOM     22  C   UNL     1       2.119  13.381  20.077  0.00  0.00    +0.000 C 
ATOM     23  C   UNL     1       1.814  14.519  21.043  0.00  0.00    +0.000 C 
ATOM     24  C   UNL     1       2.293  15.893  20.525  0.00  0.00    +0.000 C 
ATOM     25  C   UNL     1       3.829  15.940  20.496  0.00  0.00    +0.000 C 
ATOM     26  N   UNL     1       1.624  16.160  19.242  0.00  0.00    +0.000 NA
BRANCH  26  27
ATOM     27  C   UNL     1       1.615  17.573  18.772  0.00  0.00    +0.000 C 
ATOM     28  C   UNL     1       0.735  17.756  17.509  0.00  0.00    +0.000 C 
ATOM     29  C   UNL     1      -0.761  17.582  17.779  0.00  0.00    +0.000 C 
ATOM     30  C   UNL     1      -1.272  18.479  18.903  0.00  0.00    +0.000 C 
ATOM     31  C   UNL     1      -0.369  18.496  20.134  0.00  0.00    +0.000 C 
ATOM     32  C   UNL     1       1.112  18.630  19.786  0.00  0.00    +0.000 C 
ENDBRANCH  26  27
ENDBRANCH   3  18
TORSDOF 4
ENDMDL
MODEL 7
REMARK VINA RESULT:      -6.8      2.166      3.888
REMARK  Name = 
REMARK  5 active torsions:
REMARK  status: ('A' for Active; 'I' for Inactive)
REMARK    1  A    between atoms: C_1  and  O_2
REMARK    2  A    between atoms: O_2  and  C_3
REMARK    3  A    between atoms: C_4  and  C_5
REMARK    4  A    between atoms: N_7  and  C_8
REMARK    5  A    between atoms: N_16  and  C_17
REMARK                            x       y       z     vdW  Elec       q    Type
REMARK                         _______ _______ _______ _____ _____    ______ ____
ROOT
ATOM      1  C   UNL     1       2.061   9.877  18.325  0.00  0.00    +0.000 C 
ATOM      2  O   UNL     1       2.798  10.538  17.609  0.00  0.00    +0.000 OA
ATOM      3  N   UNL     1       1.018  10.415  19.056  0.00  0.00    +0.000 N 
ATOM      4  H   UNL     1       0.532   9.824  19.717  0.00  0.00    +0.000 HD
ENDROOT
BRANCH   1   6
ATOM      5  C   UNL     1       1.718   7.661  19.487  0.00  0.00    +0.000 A 
ATOM      6  C   UNL     1       2.247   8.412  18.427  0.00  0.00    +0.000 A 
ATOM      7  C   UNL     1       3.154   7.839  17.533  0.00  0.00    +0.000 A 
ATOM      8  C   UNL     1       3.610   6.535  17.736  0.00  0.00    +0.000 A 
ATOM      9 BR   UNL     1       4.869   5.884  16.460  0.00  0.00    +0.000 Br
ATOM     10  C   UNL     1       3.192   5.782  18.860  0.00  0.00    +0.000 A 
ATOM     11  C   UNL     1       3.723   4.505  19.171  0.00  0.00    +0.000 A 
ATOM     12  C   UNL     1       3.330   3.804  20.311  0.00  0.00    +0.000 A 
ATOM     13  C   UNL     1       2.372   4.345  21.151  0.00  0.00    +0.000 A 
ATOM     14  C   UNL     1       1.822   5.595  20.862  0.00  0.00    +0.000 A 
ATOM     15  C   UNL     1       2.227   6.351  19.734  0.00  0.00    +0.000 A 
BRANCH   5  17
ATOM     16  C   UNL     1       1.292   8.630  21.632  0.00  0.00    +0.000 C 
ATOM     17  O   UNL     1       0.791   8.125  20.394  0.00  0.00    +0.000 OA
ENDBRANCH   5  17
ENDBRANCH   1   6
BRANCH   3  18
ATOM     18  C   UNL     1       0.864  11.864  19.180  0.00  0.00    +0.000 C 
ATOM     19  C   UNL     1      -0.478  12.315  18.607  0.00  0.00    +0.000 C 
ATOM     20  C   UNL     1      -1.213  13.400  19.408  0.00  0.00    +0.000 C 
ATOM     21  C   UNL     1      -2.284  12.786  20.337  0.00  0.00    +0.000 C 
ATOM     22  C   UNL     1      -1.738  12.172  21.618  0.00  0.00    +0.000 C 
ATOM     23  C   UNL     1      -0.614  13.009  22.217  0.00  0.00    +0.000 C 
ATOM     24  C   UNL     1       0.407  13.491  21.163  0.00  0.00    +0.000 C 
ATOM     25  C   UNL     1       1.198  12.295  20.610  0.00  0.00    +0.000 C 
ATOM     26  N   UNL     1      -0.311  14.297  20.162  0.00  0.00    +0.000 NA
BRANCH  26  27
ATOM     27  C   UNL     1       0.516  15.187  19.301  0.00  0.00    +0.000 C 
ATOM     28  C   UNL     1      -0.354  16.207  18.523  0.00  0.00    +0.000 C 
ATOM     29  C   UNL     1      -0.998  17.267  19.419  0.00  0.00    +0.000 C 
ATOM     30  C   UNL     1       0.015  18.005  20.290  0.00  0.00    +0.000 C 
ATOM     31  C   UNL     1       1.029  17.086  20.966  0.00  0.00    +0.000 C 
ATOM     32  C   UNL     1       1.597  16.028  20.023  0.00  0.00    +0.000 C 
ENDBRANCH  26  27
ENDBRANCH   3  18
TORSDOF 4
ENDMDL
MODEL 8
REMARK VINA RESULT:      -6.7      4.799      7.828
REMARK  Name = 
REMARK  5 active torsions:
REMARK  status: ('A' for Active; 'I' for Inactive)
REMARK    1  A    between atoms: C_1  and  O_2
REMARK    2  A    between atoms: O_2  and  C_3
REMARK    3  A    between atoms: C_4  and  C_5
REMARK    4  A    between atoms: N_7  and  C_8
REMARK    5  A    between atoms: N_16  and  C_17
REMARK                            x       y       z     vdW  Elec       q    Type
REMARK                         _______ _______ _______ _____ _____    ______ ____
ROOT
ATOM      1  C   UNL     1       0.989  12.410  20.181  0.00  0.00    +0.000 C 
ATOM      2  O   UNL     1       1.397  12.188  21.311  0.00  0.00    +0.000 OA
ATOM      3  N   UNL     1       1.703  13.120  19.234  0.00  0.00    +0.000 N 
ATOM      4  H   UNL     1       1.249  13.367  18.366  0.00  0.00    +0.000 HD
ENDROOT
BRANCH   1   6
ATOM      5  C   UNL     1      -0.468  10.966  18.707  0.00  0.00    +0.000 A 
ATOM      6  C   UNL     1      -0.329  11.889  19.754  0.00  0.00    +0.000 A 
ATOM      7  C   UNL     1      -1.450  12.518  20.299  0.00  0.00    +0.000 A 
ATOM      8  C   UNL     1      -2.714  12.299  19.749  0.00  0.00    +0.000 A 
ATOM      9 BR   UNL     1      -4.154  13.243  20.568  0.00  0.00    +0.000 Br
ATOM     10  C   UNL     1      -2.884  11.467  18.617  0.00  0.00    +0.000 A 
ATOM     11  C   UNL     1      -4.127  11.314  17.953  0.00  0.00    +0.000 A 
ATOM     12  C   UNL     1      -4.257  10.525  16.810  0.00  0.00    +0.000 A 
ATOM     13  C   UNL     1      -3.158   9.841  16.321  0.00  0.00    +0.000 A 
ATOM     14  C   UNL     1      -1.923   9.962  16.963  0.00  0.00    +0.000 A 
ATOM     15  C   UNL     1      -1.748  10.785  18.103  0.00  0.00    +0.000 A 
BRANCH   5  17
ATOM     16  C   UNL     1       1.197   9.264  18.934  0.00  0.00    +0.000 C 
ATOM     17  O   UNL     1       0.571  10.266  18.133  0.00  0.00    +0.000 OA
ENDBRANCH   5  17
ENDBRANCH   1   6
BRANCH   3  18
ATOM     18  C   UNL     1       2.922  13.839  19.606  0.00  0.00    +0.000 C 
ATOM     19  C   UNL     1       3.737  14.196  18.364  0.00  0.00    +0.000 C 
ATOM     20  C   UNL     1       4.377  15.592  18.365  0.00  0.00    +0.000 C 
ATOM     21  C   UNL     1       3.513  16.608  17.585  0.00  0.00    +0.000 C 
ATOM     22  C   UNL     1       2.304  17.132  18.346  0.00  0.00    +0.000 C 
ATOM     23  C   UNL     1       2.620  17.387  19.814  0.00  0.00    +0.000 C 
ATOM     24  C   UNL     1       3.434  16.246  20.463  0.00  0.00    +0.000 C 
ATOM     25  C   UNL     1       2.573  14.977  20.567  0.00  0.00    +0.000 C 
ATOM     26  N   UNL     1       4.696  16.099  19.718  0.00  0.00    +0.000 NA
BRANCH  26  27
ATOM     27  C   UNL     1       5.793  15.358  20.398  0.00  0.00    +0.000 C 
ATOM     28  C   UNL     1       7.098  15.362  19.561  0.00  0.00    +0.000 C 
ATOM     29  C   UNL     1       7.757  16.740  19.469  0.00  0.00    +0.000 C 
ATOM     30  C   UNL     1       8.014  17.369  20.835  0.00  0.00    +0.000 C 
ATOM     31  C   UNL     1       6.832  17.259  21.795  0.00  0.00    +0.000 C 
ATOM     32  C   UNL     1       6.198  15.870  21.803  0.00  0.00    +0.000 C 
ENDBRANCH  26  27
ENDBRANCH   3  18
TORSDOF 4
ENDMDL
MODEL 9
REMARK VINA RESULT:      -6.6      2.843      9.268
REMARK  Name = 
REMARK  5 active torsions:
REMARK  status: ('A' for Active; 'I' for Inactive)
REMARK    1  A    between atoms: C_1  and  O_2
REMARK    2  A    between atoms: O_2  and  C_3
REMARK    3  A    between atoms: C_4  and  C_5
REMARK    4  A    between atoms: N_7  and  C_8
REMARK    5  A    between atoms: N_16  and  C_17
REMARK                            x       y       z     vdW  Elec       q    Type
REMARK                         _______ _______ _______ _____ _____    ______ ____
ROOT
ATOM      1  C   UNL     1       0.825   9.855  18.969  0.00  0.00    +0.000 C 
ATOM      2  O   UNL     1       1.524  10.515  18.215  0.00  0.00    +0.000 OA
ATOM      3  N   UNL     1       1.159   8.588  19.411  0.00  0.00    +0.000 N 
ATOM      4  H   UNL     1       0.474   8.058  19.933  0.00  0.00    +0.000 HD
ENDROOT
BRANCH   1   6
ATOM      5  C   UNL     1      -1.632  10.387  18.727  0.00  0.00    +0.000 A 
ATOM      6  C   UNL     1      -0.447  10.413  19.479  0.00  0.00    +0.000 A 
ATOM      7  C   UNL     1      -0.369  11.159  20.656  0.00  0.00    +0.000 A 
ATOM      8  C   UNL     1      -1.443  11.957  21.054  0.00  0.00    +0.000 A 
ATOM      9 BR   UNL     1      -1.195  12.948  22.664  0.00  0.00    +0.000 Br
ATOM     10  C   UNL     1      -2.614  12.052  20.264  0.00  0.00    +0.000 A 
ATOM     11  C   UNL     1      -3.676  12.942  20.564  0.00  0.00    +0.000 A 
ATOM     12  C   UNL     1      -4.798  13.052  19.743  0.00  0.00    +0.000 A 
ATOM     13  C   UNL     1      -4.904  12.252  18.619  0.00  0.00    +0.000 A 
ATOM     14  C   UNL     1      -3.879  11.356  18.305  0.00  0.00    +0.000 A 
ATOM     15  C   UNL     1      -2.709  11.247  19.096  0.00  0.00    +0.000 A 
BRANCH   5  17
ATOM     16  C   UNL     1      -2.135  10.378  16.390  0.00  0.00    +0.000 C 
ATOM     17  O   UNL     1      -1.818   9.652  17.577  0.00  0.00    +0.000 OA
ENDBRANCH   5  17
ENDBRANCH   1   6
BRANCH   3  18
ATOM     18  C   UNL     1       2.288   7.867  18.823  0.00  0.00    +0.000 C 
ATOM     19  C   UNL     1       3.124   7.195  19.911  0.00  0.00    +0.000 C 
ATOM     20  C   UNL     1       3.634   5.784  19.584  0.00  0.00    +0.000 C 
ATOM     21  C   UNL     1       2.718   4.700  20.194  0.00  0.00    +0.000 C 
ATOM     22  C   UNL     1       1.433   4.444  19.422  0.00  0.00    +0.000 C 
ATOM     23  C   UNL     1       1.656   4.476  17.915  0.00  0.00    +0.000 C 
ATOM     24  C   UNL     1       2.540   5.659  17.462  0.00  0.00    +0.000 C 
ATOM     25  C   UNL     1       1.793   6.986  17.674  0.00  0.00    +0.000 C 
ATOM     26  N   UNL     1       3.842   5.547  18.139  0.00  0.00    +0.000 NA
BRANCH  26  27
ATOM     27  C   UNL     1       4.969   6.325  17.555  0.00  0.00    +0.000 C 
ATOM     28  C   UNL     1       6.337   5.888  18.142  0.00  0.00    +0.000 C 
ATOM     29  C   UNL     1       6.763   4.483  17.712  0.00  0.00    +0.000 C 
ATOM     30  C   UNL     1       6.765   4.299  16.197  0.00  0.00    +0.000 C 
ATOM     31  C   UNL     1       5.524   4.860  15.508  0.00  0.00    +0.000 C 
ATOM     32  C   UNL     1       5.133   6.245  16.017  0.00  0.00    +0.000 C 
ENDBRANCH  26  27
ENDBRANCH   3  18
TORSDOF 4
ENDMDL
