MODEL 1
REMARK VINA RESULT:      -6.8      0.000      0.000
REMARK  Name = 
REMARK  7 active torsions:
REMARK  status: ('A' for Active; 'I' for Inactive)
REMARK    1  A    between atoms: C_1  and  C_2
REMARK    2  A    between atoms: C_5  and  C_6
REMARK    3  A    between atoms: C_6  and  S_7
REMARK    4  A    between atoms: S_7  and  C_8
REMARK    5  A    between atoms: CA_10  and  C_11
REMARK    6  A    between atoms: C_11  and  OXT_13
REMARK    7  A    between atoms: C_16  and  C_17
REMARK                            x       y       z     vdW  Elec       q    Type
REMARK                         _______ _______ _______ _____ _____    ______ ____
ROOT
ATOM      1  C   UNL     1       3.978   4.555  18.631  0.00  0.00    +0.000 A 
ATOM      2  N   UNL     1       3.291   4.298  19.780  0.00  0.00    +0.000 NA
ATOM      3  CA  UNL     1       2.778   3.029  19.909  0.00  0.00    +0.000 A 
ATOM      4  C   UNL     1       2.911   2.021  18.965  0.00  0.00    +0.000 A 
ATOM      5  C   UNL     1       3.615   2.309  17.807  0.00  0.00    +0.000 A 
ATOM      6  C   UNL     1       4.160   3.586  17.629  0.00  0.00    +0.000 A 
ENDROOT
BRANCH   3   7
ATOM      7  C   UNL     1       2.028   2.732  21.167  0.00  0.00    +0.000 C 
ATOM      8  O   UNL     1       2.549   2.395  22.215  0.00  0.00    +0.000 OA
BRANCH   7   9
ATOM      9  OXT UNL     1       0.697   2.886  20.990  0.00  0.00    +0.000 OA
ATOM     10  HXT UNL     1       0.305   3.295  21.794  0.00  0.00    +0.000 HD
ENDBRANCH   7   9
ENDBRANCH   3   7
BRANCH   6  11
ATOM     11  C   UNL     1       4.886   3.844  16.422  0.00  0.00    +0.000 C 
ATOM     12  N   UNL     1       5.517   4.044  15.467  0.00  0.00    +0.000 NA
ENDBRANCH   6  11
BRANCH   1  13
ATOM     13  S   UNL     1       4.672   6.195  18.385  0.00  0.00    +0.000 S 
BRANCH  13  14
ATOM     14  C   UNL     1       3.431   7.068  17.380  0.00  0.00    +0.000 C 
BRANCH  14  19
ATOM     15  C   UNL     1      -0.019  10.269  20.853  0.00  0.00    +0.000 C 
ATOM     16  C   UNL     1       0.868   9.457  19.955  0.00  0.00    +0.000 A 
ATOM     17  C   UNL     1       1.135   9.862  18.643  0.00  0.00    +0.000 A 
ATOM     18  C   UNL     1       1.955   9.088  17.812  0.00  0.00    +0.000 A 
ATOM     19  C   UNL     1       2.521   7.890  18.272  0.00  0.00    +0.000 A 
ATOM     20  C   UNL     1       2.264   7.498  19.594  0.00  0.00    +0.000 A 
ATOM     21  C   UNL     1       1.443   8.272  20.424  0.00  0.00    +0.000 A 
ENDBRANCH  14  19
ENDBRANCH  13  14
ENDBRANCH   1  13
TORSDOF 6
ENDMDL
MODEL 2
REMARK VINA RESULT:      -6.8      3.095      5.842
REMARK  Name = 
REMARK  7 active torsions:
REMARK  status: ('A' for Active; 'I' for Inactive)
REMARK    1  A    between atoms: C_1  and  C_2
REMARK    2  A    between atoms: C_5  and  C_6
REMARK    3  A    between atoms: C_6  and  S_7
REMARK    4  A    between atoms: S_7  and  C_8
REMARK    5  A    between atoms: CA_10  and  C_11
REMARK    6  A    between atoms: C_11  and  OXT_13
REMARK    7  A    between atoms: C_16  and  C_17
REMARK                            x       y       z     vdW  Elec       q    Type
REMARK                         _______ _______ _______ _____ _____    ______ ____
ROOT
ATOM      1  C   UNL     1       1.955   4.490  18.934  0.00  0.00    +0.000 A 
ATOM      2  N   UNL     1       2.140   5.580  18.136  0.00  0.00    +0.000 NA
ATOM      3  CA  UNL     1       2.187   6.797  18.773  0.00  0.00    +0.000 A 
ATOM      4  C   UNL     1       2.057   6.980  20.142  0.00  0.00    +0.000 A 
ATOM      5  C   UNL     1       1.871   5.855  20.929  0.00  0.00    +0.000 A 
ATOM      6  C   UNL     1       1.819   4.591  20.329  0.00  0.00    +0.000 A 
ENDROOT
BRANCH   3   7
ATOM      7  C   UNL     1       2.396   7.999  17.911  0.00  0.00    +0.000 C 
ATOM      8  O   UNL     1       1.575   8.886  17.756  0.00  0.00    +0.000 OA
BRANCH   7   9
ATOM      9  OXT UNL     1       3.613   7.976  17.325  0.00  0.00    +0.000 OA
ATOM     10  HXT UNL     1       4.217   8.591  17.799  0.00  0.00    +0.000 HD
ENDBRANCH   7   9
ENDBRANCH   3   7
BRANCH   6  11
ATOM     11  C   UNL     1       1.632   3.453  21.177  0.00  0.00    +0.000 C 
ATOM     12  N   UNL     1       1.483   2.559  21.904  0.00  0.00    +0.000 NA
ENDBRANCH   6  11
BRANCH   1  13
ATOM     13  S   UNL     1       1.875   2.863  18.173  0.00  0.00    +0.000 S 
BRANCH  13  14
ATOM     14  C   UNL     1       3.594   2.266  18.194  0.00  0.00    +0.000 C 
BRANCH  14  19
ATOM     15  C   UNL     1       7.228   6.777  17.382  0.00  0.00    +0.000 C 
ATOM     16  C   UNL     1       6.294   5.623  17.601  0.00  0.00    +0.000 A 
ATOM     17  C   UNL     1       6.043   5.128  18.886  0.00  0.00    +0.000 A 
ATOM     18  C   UNL     1       5.179   4.043  19.075  0.00  0.00    +0.000 A 
ATOM     19  C   UNL     1       4.552   3.423  17.984  0.00  0.00    +0.000 A 
ATOM     20  C   UNL     1       4.792   3.934  16.700  0.00  0.00    +0.000 A 
ATOM     21  C   UNL     1       5.658   5.019  16.512  0.00  0.00    +0.000 A 
ENDBRANCH  14  19
ENDBRANCH  13  14
ENDBRANCH   1  13
TORSDOF 6
ENDMDL
MODEL 3
REMARK VINA RESULT:      -6.7      3.216      4.282
REMARK  Name = 
REMARK  7 active torsions:
REMARK  status: ('A' for Active; 'I' for Inactive)
REMARK    1  A    between atoms: C_1  and  C_2
REMARK    2  A    between atoms: C_5  and  C_6
REMARK    3  A    between atoms: C_6  and  S_7
REMARK    4  A    between atoms: S_7  and  C_8
REMARK    5  A    between atoms: CA_10  and  C_11
REMARK    6  A    between atoms: C_11  and  OXT_13
REMARK    7  A    between atoms: C_16  and  C_17
REMARK                            x       y       z     vdW  Elec       q    Type
REMARK                         _______ _______ _______ _____ _____    ______ ____
ROOT
ATOM      1  C   UNL     1       3.701   5.526  18.295  0.00  0.00    +0.000 A 
ATOM      2  N   UNL     1       4.891   6.156  18.081  0.00  0.00    +0.000 NA
ATOM      3  CA  UNL     1       5.726   5.577  17.156  0.00  0.00    +0.000 A 
ATOM      4  C   UNL     1       5.442   4.419  16.447  0.00  0.00    +0.000 A 
ATOM      5  C   UNL     1       4.225   3.799  16.684  0.00  0.00    +0.000 A 
ATOM      6  C   UNL     1       3.337   4.351  17.615  0.00  0.00    +0.000 A 
ENDROOT
BRANCH   3   7
ATOM      7  C   UNL     1       7.031   6.261  16.907  0.00  0.00    +0.000 C 
ATOM      8  O   UNL     1       7.526   7.089  17.651  0.00  0.00    +0.000 OA
BRANCH   7   9
ATOM      9  OXT UNL     1       7.590   5.842  15.751  0.00  0.00    +0.000 OA
ATOM     10  HXT UNL     1       8.546   6.073  15.746  0.00  0.00    +0.000 HD
ENDBRANCH   7   9
ENDBRANCH   3   7
BRANCH   6  11
ATOM     11  C   UNL     1       2.088   3.685  17.827  0.00  0.00    +0.000 C 
ATOM     12  N   UNL     1       1.088   3.135  18.045  0.00  0.00    +0.000 NA
ENDBRANCH   6  11
BRANCH   1  13
ATOM     13  S   UNL     1       2.557   6.218  19.498  0.00  0.00    +0.000 S 
BRANCH  13  14
ATOM     14  C   UNL     1       2.221   7.901  18.889  0.00  0.00    +0.000 C 
BRANCH  14  19
ATOM     15  C   UNL     1      -0.935  10.858  22.828  0.00  0.00    +0.000 C 
ATOM     16  C   UNL     1      -0.125  10.090  21.824  0.00  0.00    +0.000 A 
ATOM     17  C   UNL     1       0.593   8.947  22.195  0.00  0.00    +0.000 A 
ATOM     18  C   UNL     1       1.354   8.247  21.250  0.00  0.00    +0.000 A 
ATOM     19  C   UNL     1       1.419   8.677  19.916  0.00  0.00    +0.000 A 
ATOM     20  C   UNL     1       0.683   9.812  19.546  0.00  0.00    +0.000 A 
ATOM     21  C   UNL     1      -0.077  10.512  20.492  0.00  0.00    +0.000 A 
ENDBRANCH  14  19
ENDBRANCH  13  14
ENDBRANCH   1  13
TORSDOF 6
ENDMDL
MODEL 4
REMARK VINA RESULT:      -6.7      3.150      4.047
REMARK  Name = 
REMARK  7 active torsions:
REMARK  status: ('A' for Active; 'I' for Inactive)
REMARK    1  A    between atoms: C_1  and  C_2
REMARK    2  A    between atoms: C_5  and  C_6
REMARK    3  A    between atoms: C_6  and  S_7
REMARK    4  A    between atoms: S_7  and  C_8
REMARK    5  A    between atoms: CA_10  and  C_11
REMARK    6  A    between atoms: C_11  and  OXT_13
REMARK    7  A    between atoms: C_16  and  C_17
REMARK                            x       y       z     vdW  Elec       q    Type
REMARK                         _______ _______ _______ _____ _____    ______ ____
ROOT
ATOM      1  C   UNL     1       3.745   5.316  18.344  0.00  0.00    +0.000 A 
ATOM      2  N   UNL     1       4.995   5.793  18.082  0.00  0.00    +0.000 NA
ATOM      3  CA  UNL     1       5.714   5.117  17.125  0.00  0.00    +0.000 A 
ATOM      4  C   UNL     1       5.257   4.006  16.430  0.00  0.00    +0.000 A 
ATOM      5  C   UNL     1       3.983   3.543  16.716  0.00  0.00    +0.000 A 
ATOM      6  C   UNL     1       3.209   4.199  17.681  0.00  0.00    +0.000 A 
ENDROOT
BRANCH   3   7
ATOM      7  C   UNL     1       7.083   5.632  16.823  0.00  0.00    +0.000 C 
ATOM      8  O   UNL     1       7.367   6.812  16.723  0.00  0.00    +0.000 OA
BRANCH   7   9
ATOM      9  OXT UNL     1       7.965   4.619  16.675  0.00  0.00    +0.000 OA
ATOM     10  HXT UNL     1       7.477   3.774  16.557  0.00  0.00    +0.000 HD
ENDBRANCH   7   9
ENDBRANCH   3   7
BRANCH   6  11
ATOM     11  C   UNL     1       1.896   3.695  17.943  0.00  0.00    +0.000 C 
ATOM     12  N   UNL     1       0.850   3.251  18.186  0.00  0.00    +0.000 NA
ENDBRANCH   6  11
BRANCH   1  13
ATOM     13  S   UNL     1       2.747   6.143  19.590  0.00  0.00    +0.000 S 
BRANCH  13  14
ATOM     14  C   UNL     1       2.290   7.731  18.827  0.00  0.00    +0.000 C 
BRANCH  14  19
ATOM     15  C   UNL     1      -0.837  10.944  22.584  0.00  0.00    +0.000 C 
ATOM     16  C   UNL     1      -0.033  10.129  21.614  0.00  0.00    +0.000 A 
ATOM     17  C   UNL     1       0.117  10.531  20.282  0.00  0.00    +0.000 A 
ATOM     18  C   UNL     1       0.860   9.754  19.383  0.00  0.00    +0.000 A 
ATOM     19  C   UNL     1       1.463   8.556  19.795  0.00  0.00    +0.000 A 
ATOM     20  C   UNL     1       1.324   8.168  21.135  0.00  0.00    +0.000 A 
ATOM     21  C   UNL     1       0.580   8.944  22.033  0.00  0.00    +0.000 A 
ENDBRANCH  14  19
ENDBRANCH  13  14
ENDBRANCH   1  13
TORSDOF 6
ENDMDL
MODEL 5
REMARK VINA RESULT:      -6.7      3.108      5.711
REMARK  Name = 
REMARK  7 active torsions:
REMARK  status: ('A' for Active; 'I' for Inactive)
REMARK    1  A    between atoms: C_1  and  C_2
REMARK    2  A    between atoms: C_5  and  C_6
REMARK    3  A    between atoms: C_6  and  S_7
REMARK    4  A    between atoms: S_7  and  C_8
REMARK    5  A    between atoms: CA_10  and  C_11
REMARK    6  A    between atoms: C_11  and  OXT_13
REMARK    7  A    between atoms: C_16  and  C_17
REMARK                            x       y       z     vdW  Elec       q    Type
REMARK                         _______ _______ _______ _____ _____    ______ ____
ROOT
ATOM      1  C   UNL     1       2.008   4.616  18.916  0.00  0.00    +0.000 A 
ATOM      2  N   UNL     1       2.170   5.721  18.134  0.00  0.00    +0.000 NA
ATOM      3  CA  UNL     1       2.162   6.931  18.786  0.00  0.00    +0.000 A 
ATOM      4  C   UNL     1       2.001   7.093  20.154  0.00  0.00    +0.000 A 
ATOM      5  C   UNL     1       1.838   5.953  20.925  0.00  0.00    +0.000 A 
ATOM      6  C   UNL     1       1.842   4.696  20.310  0.00  0.00    +0.000 A 
ENDROOT
BRANCH   3   7
ATOM      7  C   UNL     1       2.346   8.151  17.942  0.00  0.00    +0.000 C 
ATOM      8  O   UNL     1       3.168   8.252  17.049  0.00  0.00    +0.000 OA
BRANCH   7   9
ATOM      9  OXT UNL     1       1.481   9.126  18.297  0.00  0.00    +0.000 OA
ATOM     10  HXT UNL     1       0.894   8.798  19.015  0.00  0.00    +0.000 HD
ENDBRANCH   7   9
ENDBRANCH   3   7
BRANCH   6  11
ATOM     11  C   UNL     1       1.678   3.541  21.140  0.00  0.00    +0.000 C 
ATOM     12  N   UNL     1       1.590   2.613  21.834  0.00  0.00    +0.000 NA
ENDBRANCH   6  11
BRANCH   1  13
ATOM     13  S   UNL     1       1.998   2.996  18.135  0.00  0.00    +0.000 S 
BRANCH  13  14
ATOM     14  C   UNL     1       3.740   2.470  18.159  0.00  0.00    +0.000 C 
BRANCH  14  19
ATOM     15  C   UNL     1       7.314   7.056  17.522  0.00  0.00    +0.000 C 
ATOM     16  C   UNL     1       6.399   5.877  17.674  0.00  0.00    +0.000 A 
ATOM     17  C   UNL     1       5.771   5.299  16.565  0.00  0.00    +0.000 A 
ATOM     18  C   UNL     1       4.910   4.206  16.723  0.00  0.00    +0.000 A 
ATOM     19  C   UNL     1       4.652   3.671  17.993  0.00  0.00    +0.000 A 
ATOM     20  C   UNL     1       5.297   4.242  19.100  0.00  0.00    +0.000 A 
ATOM     21  C   UNL     1       6.158   5.336  18.941  0.00  0.00    +0.000 A 
ENDBRANCH  14  19
ENDBRANCH  13  14
ENDBRANCH   1  13
TORSDOF 6
ENDMDL
MODEL 6
REMARK VINA RESULT:      -6.7      0.221      1.099
REMARK  Name = 
REMARK  7 active torsions:
REMARK  status: ('A' for Active; 'I' for Inactive)
REMARK    1  A    between atoms: C_1  and  C_2
REMARK    2  A    between atoms: C_5  and  C_6
REMARK    3  A    between atoms: C_6  and  S_7
REMARK    4  A    between atoms: S_7  and  C_8
REMARK    5  A    between atoms: CA_10  and  C_11
REMARK    6  A    between atoms: C_11  and  OXT_13
REMARK    7  A    between atoms: C_16  and  C_17
REMARK                            x       y       z     vdW  Elec       q    Type
REMARK                         _______ _______ _______ _____ _____    ______ ____
ROOT
ATOM      1  C   UNL     1       3.851   4.660  18.564  0.00  0.00    +0.000 A 
ATOM      2  N   UNL     1       3.186   4.382  19.722  0.00  0.00    +0.000 NA
ATOM      3  CA  UNL     1       2.744   3.089  19.872  0.00  0.00    +0.000 A 
ATOM      4  C   UNL     1       2.927   2.076  18.942  0.00  0.00    +0.000 A 
ATOM      5  C   UNL     1       3.608   2.386  17.775  0.00  0.00    +0.000 A 
ATOM      6  C   UNL     1       4.080   3.688  17.575  0.00  0.00    +0.000 A 
ENDROOT
BRANCH   3   7
ATOM      7  C   UNL     1       2.019   2.770  21.139  0.00  0.00    +0.000 C 
ATOM      8  O   UNL     1       2.562   2.451  22.181  0.00  0.00    +0.000 OA
BRANCH   7   9
ATOM      9  OXT UNL     1       0.682   2.882  20.978  0.00  0.00    +0.000 OA
ATOM     10  HXT UNL     1       0.431   3.833  20.969  0.00  0.00    +0.000 HD
ENDBRANCH   7   9
ENDBRANCH   3   7
BRANCH   6  11
ATOM     11  C   UNL     1       4.784   3.967  16.360  0.00  0.00    +0.000 C 
ATOM     12  N   UNL     1       5.394   4.166  15.391  0.00  0.00    +0.000 NA
ENDBRANCH   6  11
BRANCH   1  13
ATOM     13  S   UNL     1       4.452   6.332  18.291  0.00  0.00    +0.000 S 
BRANCH  13  14
ATOM     14  C   UNL     1       3.094   7.165  17.411  0.00  0.00    +0.000 C 
BRANCH  14  19
ATOM     15  C   UNL     1       0.057  10.578  21.064  0.00  0.00    +0.000 C 
ATOM     16  C   UNL     1       0.834   9.693  20.134  0.00  0.00    +0.000 A 
ATOM     17  C   UNL     1       1.335   8.458  20.559  0.00  0.00    +0.000 A 
ATOM     18  C   UNL     1       2.069   7.648  19.683  0.00  0.00    +0.000 A 
ATOM     19  C   UNL     1       2.323   8.057  18.366  0.00  0.00    +0.000 A 
ATOM     20  C   UNL     1       1.803   9.288  17.939  0.00  0.00    +0.000 A 
ATOM     21  C   UNL     1       1.070  10.098  18.816  0.00  0.00    +0.000 A 
ENDBRANCH  14  19
ENDBRANCH  13  14
ENDBRANCH   1  13
TORSDOF 6
ENDMDL
MODEL 7
REMARK VINA RESULT:      -6.7      3.428      5.156
REMARK  Name = 
REMARK  7 active torsions:
REMARK  status: ('A' for Active; 'I' for Inactive)
REMARK    1  A    between atoms: C_1  and  C_2
REMARK    2  A    between atoms: C_5  and  C_6
REMARK    3  A    between atoms: C_6  and  S_7
REMARK    4  A    between atoms: S_7  and  C_8
REMARK    5  A    between atoms: CA_10  and  C_11
REMARK    6  A    between atoms: C_11  and  OXT_13
REMARK    7  A    between atoms: C_16  and  C_17
REMARK                            x       y       z     vdW  Elec       q    Type
REMARK                         _______ _______ _______ _____ _____    ______ ____
ROOT
ATOM      1  C   UNL     1       3.466   4.836  18.382  0.00  0.00    +0.000 A 
ATOM      2  N   UNL     1       3.134   6.122  18.693  0.00  0.00    +0.000 NA
ATOM      3  CA  UNL     1       2.269   6.287  19.748  0.00  0.00    +0.000 A 
ATOM      4  C   UNL     1       1.723   5.253  20.494  0.00  0.00    +0.000 A 
ATOM      5  C   UNL     1       2.078   3.956  20.156  0.00  0.00    +0.000 A 
ATOM      6  C   UNL     1       2.959   3.735  19.092  0.00  0.00    +0.000 A 
ENDROOT
BRANCH   3   7
ATOM      7  C   UNL     1       1.902   7.691  20.103  0.00  0.00    +0.000 C 
ATOM      8  O   UNL     1       1.675   8.569  19.290  0.00  0.00    +0.000 OA
BRANCH   7   9
ATOM      9  OXT UNL     1       1.855   7.860  21.443  0.00  0.00    +0.000 OA
ATOM     10  HXT UNL     1       2.748   7.705  21.824  0.00  0.00    +0.000 HD
ENDBRANCH   7   9
ENDBRANCH   3   7
BRANCH   6  11
ATOM     11  C   UNL     1       3.306   2.382  18.778  0.00  0.00    +0.000 C 
ATOM     12  N   UNL     1       3.546   1.268  18.547  0.00  0.00    +0.000 NA
ENDBRANCH   6  11
BRANCH   1  13
ATOM     13  S   UNL     1       4.587   4.539  17.008  0.00  0.00    +0.000 S 
BRANCH  13  14
ATOM     14  C   UNL     1       6.226   4.378  17.785  0.00  0.00    +0.000 C 
BRANCH  14  19
ATOM     15  C   UNL     1       8.708   9.653  18.270  0.00  0.00    +0.000 C 
ATOM     16  C   UNL     1       8.074   8.297  18.157  0.00  0.00    +0.000 A 
ATOM     17  C   UNL     1       8.445   7.251  19.008  0.00  0.00    +0.000 A 
ATOM     18  C   UNL     1       7.854   5.987  18.883  0.00  0.00    +0.000 A 
ATOM     19  C   UNL     1       6.884   5.740  17.900  0.00  0.00    +0.000 A 
ATOM     20  C   UNL     1       6.503   6.797  17.061  0.00  0.00    +0.000 A 
ATOM     21  C   UNL     1       7.095   8.060  17.186  0.00  0.00    +0.000 A 
ENDBRANCH  14  19
ENDBRANCH  13  14
ENDBRANCH   1  13
TORSDOF 6
ENDMDL
MODEL 8
REMARK VINA RESULT:      -6.7      3.323      5.049
REMARK  Name = 
REMARK  7 active torsions:
REMARK  status: ('A' for Active; 'I' for Inactive)
REMARK    1  A    between atoms: C_1  and  C_2
REMARK    2  A    between atoms: C_5  and  C_6
REMARK    3  A    between atoms: C_6  and  S_7
REMARK    4  A    between atoms: S_7  and  C_8
REMARK    5  A    between atoms: CA_10  and  C_11
REMARK    6  A    between atoms: C_11  and  OXT_13
REMARK    7  A    between atoms: C_16  and  C_17
REMARK                            x       y       z     vdW  Elec       q    Type
REMARK                         _______ _______ _______ _____ _____    ______ ____
ROOT
ATOM      1  C   UNL     1       3.182   4.899  18.453  0.00  0.00    +0.000 A 
ATOM      2  N   UNL     1       2.880   6.195  18.753  0.00  0.00    +0.000 NA
ATOM      3  CA  UNL     1       2.116   6.395  19.878  0.00  0.00    +0.000 A 
ATOM      4  C   UNL     1       1.643   5.386  20.704  0.00  0.00    +0.000 A 
ATOM      5  C   UNL     1       1.965   4.079  20.376  0.00  0.00    +0.000 A 
ATOM      6  C   UNL     1       2.744   3.822  19.242  0.00  0.00    +0.000 A 
ENDROOT
BRANCH   3   7
ATOM      7  C   UNL     1       1.784   7.811  20.221  0.00  0.00    +0.000 C 
ATOM      8  O   UNL     1       1.558   8.683  19.401  0.00  0.00    +0.000 OA
BRANCH   7   9
ATOM      9  OXT UNL     1       1.766   7.998  21.559  0.00  0.00    +0.000 OA
ATOM     10  HXT UNL     1       2.154   7.212  22.006  0.00  0.00    +0.000 HD
ENDBRANCH   7   9
ENDBRANCH   3   7
BRANCH   6  11
ATOM     11  C   UNL     1       3.060   2.459  18.940  0.00  0.00    +0.000 C 
ATOM     12  N   UNL     1       3.321   1.365  18.647  0.00  0.00    +0.000 NA
ENDBRANCH   6  11
BRANCH   1  13
ATOM     13  S   UNL     1       4.171   4.556  16.991  0.00  0.00    +0.000 S 
BRANCH  13  14
ATOM     14  C   UNL     1       5.857   4.306  17.631  0.00  0.00    +0.000 C 
BRANCH  14  19
ATOM     15  C   UNL     1       8.609   9.435  18.211  0.00  0.00    +0.000 C 
ATOM     16  C   UNL     1       7.899   8.123  18.052  0.00  0.00    +0.000 A 
ATOM     17  C   UNL     1       6.831   7.981  17.159  0.00  0.00    +0.000 A 
ATOM     18  C   UNL     1       6.169   6.753  17.029  0.00  0.00    +0.000 A 
ATOM     19  C   UNL     1       6.556   5.642  17.793  0.00  0.00    +0.000 A 
ATOM     20  C   UNL     1       7.639   5.785  18.674  0.00  0.00    +0.000 A 
ATOM     21  C   UNL     1       8.300   7.013  18.804  0.00  0.00    +0.000 A 
ENDBRANCH  14  19
ENDBRANCH  13  14
ENDBRANCH   1  13
TORSDOF 6
ENDMDL
MODEL 9
REMARK VINA RESULT:      -6.7      2.975      3.960
REMARK  Name = 
REMARK  7 active torsions:
REMARK  status: ('A' for Active; 'I' for Inactive)
REMARK    1  A    between atoms: C_1  and  C_2
REMARK    2  A    between atoms: C_5  and  C_6
REMARK    3  A    between atoms: C_6  and  S_7
REMARK    4  A    between atoms: S_7  and  C_8
REMARK    5  A    between atoms: CA_10  and  C_11
REMARK    6  A    between atoms: C_11  and  OXT_13
REMARK    7  A    between atoms: C_16  and  C_17
REMARK                            x       y       z     vdW  Elec       q    Type
REMARK                         _______ _______ _______ _____ _____    ______ ____
ROOT
ATOM      1  C   UNL     1       3.904   5.428  19.149  0.00  0.00    +0.000 A 
ATOM      2  N   UNL     1       5.126   5.873  19.559  0.00  0.00    +0.000 NA
ATOM      3  CA  UNL     1       6.213   5.351  18.899  0.00  0.00    +0.000 A 
ATOM      4  C   UNL     1       6.145   4.423  17.871  0.00  0.00    +0.000 A 
ATOM      5  C   UNL     1       4.890   3.989  17.474  0.00  0.00    +0.000 A 
ATOM      6  C   UNL     1       3.751   4.492  18.112  0.00  0.00    +0.000 A 
ENDROOT
BRANCH   3   7
ATOM      7  C   UNL     1       7.558   5.835  19.334  0.00  0.00    +0.000 C 
ATOM      8  O   UNL     1       8.219   6.663  18.733  0.00  0.00    +0.000 OA
BRANCH   7   9
ATOM      9  OXT UNL     1       7.946   5.234  20.480  0.00  0.00    +0.000 OA
ATOM     10  HXT UNL     1       7.221   5.290  21.142  0.00  0.00    +0.000 HD
ENDBRANCH   7   9
ENDBRANCH   3   7
BRANCH   6  11
ATOM     11  C   UNL     1       2.472   4.024  17.670  0.00  0.00    +0.000 C 
ATOM     12  N   UNL     1       1.414   3.664  17.351  0.00  0.00    +0.000 NA
ENDBRANCH   6  11
BRANCH   1  13
ATOM     13  S   UNL     1       2.433   6.058  19.970  0.00  0.00    +0.000 S 
BRANCH  13  14
ATOM     14  C   UNL     1       2.127   7.670  19.182  0.00  0.00    +0.000 C 
BRANCH  14  19
ATOM     15  C   UNL     1      -0.928  11.124  22.781  0.00  0.00    +0.000 C 
ATOM     16  C   UNL     1      -0.147  10.229  21.864  0.00  0.00    +0.000 A 
ATOM     17  C   UNL     1       0.341   8.992  22.302  0.00  0.00    +0.000 A 
ATOM     18  C   UNL     1       1.079   8.172  21.439  0.00  0.00    +0.000 A 
ATOM     19  C   UNL     1       1.351   8.572  20.123  0.00  0.00    +0.000 A 
ATOM     20  C   UNL     1       0.845   9.804  19.683  0.00  0.00    +0.000 A 
ATOM     21  C   UNL     1       0.108  10.624  20.547  0.00  0.00    +0.000 A 
ENDBRANCH  14  19
ENDBRANCH  13  14
ENDBRANCH   1  13
TORSDOF 6
ENDMDL
