MODEL 1
REMARK VINA RESULT:      -7.2      0.000      0.000
REMARK  Name = 
REMARK  11 active torsions:
REMARK  status: ('A' for Active; 'I' for Inactive)
REMARK    1  A    between atoms: C_1  and  C_2
REMARK    2  A    between atoms: C_2  and  O_3
REMARK    3  A    between atoms: O_3  and  C_4
REMARK    4  A    between atoms: C_4  and  C_5
REMARK    5  A    between atoms: C_5  and  C_6
REMARK    6  A    between atoms: C_6  and  N_7
REMARK    7  A    between atoms: C_8  and  C_10
REMARK    8  A    between atoms: C_13  and  C_14
REMARK    9  A    between atoms: C_14  and  N_15
REMARK   10  A    between atoms: C_25  and  O_26
REMARK   11  A    between atoms: O_26  and  C_27
REMARK                            x       y       z     vdW  Elec       q    Type
REMARK                         _______ _______ _______ _____ _____    ______ ____
ROOT
ATOM      1  N   UNL     1      -0.910  11.099  19.806  0.00  0.00    +0.000 N 
ATOM      2  C   UNL     1      -1.418  11.104  18.505  0.00  0.00    +0.000 A 
ATOM      3  S   UNL     1      -2.726  10.180  18.018  0.00  0.00    +0.000 S 
ATOM      4  N   UNL     1      -0.829  12.069  17.643  0.00  0.00    +0.000 N 
ATOM      5  C   UNL     1      -0.399  13.276  18.242  0.00  0.00    +0.000 A 
ATOM      6  C   UNL     1      -0.964  13.400  19.490  0.00  0.00    +0.000 A 
ATOM      7  N   UNL     1      -0.970  14.763  19.595  0.00  0.00    +0.000 N 
ATOM      8  C   UNL     1       0.390  15.028  19.468  0.00  0.00    +0.000 A 
ATOM      9  C   UNL     1       1.104  15.898  20.251  0.00  0.00    +0.000 A 
ATOM     10  C   UNL     1       2.441  15.606  20.374  0.00  0.00    +0.000 A 
ATOM     11  C   UNL     1       3.058  14.561  19.671  0.00  0.00    +0.000 A 
ATOM     12  C   UNL     1       2.314  13.750  18.754  0.00  0.00    +0.000 A 
ATOM     13  C   UNL     1       0.879  13.970  18.654  0.00  0.00    +0.000 A 
ATOM     14  C   UNL     1      -0.507  12.298  20.336  0.00  0.00    +0.000 A 
ATOM     15  O   UNL     1       0.374  12.411  21.227  0.00  0.00    +0.000 OA
ATOM     16  H   UNL     1      -1.518  12.222  16.902  0.00  0.00    +0.000 HD
ATOM     17  H   UNL     1      -1.614  15.351  19.079  0.00  0.00    +0.000 HD
ENDROOT
BRANCH  11  18
ATOM     18  O   UNL     1       4.337  14.518  20.134  0.00  0.00    +0.000 OA
ATOM     19  C   UNL     1       5.360  15.466  20.002  0.00  0.00    +0.000 C 
ENDBRANCH  11  18
BRANCH   1  20
ATOM     20  C   UNL     1      -0.558   9.838  20.438  0.00  0.00    +0.000 C 
BRANCH  20  24
ATOM     21  C   UNL     1       2.612   7.603  18.583  0.00  0.00    +0.000 A 
ATOM     22  C   UNL     1       2.287   7.343  19.921  0.00  0.00    +0.000 A 
ATOM     23  C   UNL     1       1.309   8.098  20.562  0.00  0.00    +0.000 A 
ATOM     24  C   UNL     1       0.687   9.168  19.887  0.00  0.00    +0.000 A 
ATOM     25  C   UNL     1       1.124   9.491  18.592  0.00  0.00    +0.000 A 
ATOM     26  C   UNL     1       2.015   8.671  17.916  0.00  0.00    +0.000 A 
BRANCH  21  28
ATOM     27  N   UNL     1       3.668   5.449  18.285  0.00  0.00    +0.000 N 
ATOM     28  C   UNL     1       3.571   6.750  17.849  0.00  0.00    +0.000 C 
ATOM     29  O   UNL     1       4.201   7.212  16.906  0.00  0.00    +0.000 OA
ATOM     30  H   UNL     1       3.076   5.102  19.036  0.00  0.00    +0.000 HD
BRANCH  27  31
ATOM     31  C   UNL     1       4.520   4.523  17.597  0.00  0.00    +0.000 C 
BRANCH  31  32
ATOM     32  C   UNL     1       3.821   3.198  17.329  0.00  0.00    +0.000 C 
BRANCH  32  33
ATOM     33  C   UNL     1       2.835   2.920  18.450  0.00  0.00    +0.000 C 
BRANCH  33  34
ATOM     34  O   UNL     1       1.508   3.049  17.945  0.00  0.00    +0.000 OA
BRANCH  34  36
ATOM     35  C   UNL     1       1.148   3.234  20.297  0.00  0.00    +0.000 C 
ATOM     36  C   UNL     1       0.543   2.833  18.969  0.00  0.00    +0.000 C 
ENDBRANCH  34  36
ENDBRANCH  33  34
ENDBRANCH  32  33
ENDBRANCH  31  32
ENDBRANCH  27  31
ENDBRANCH  21  28
ENDBRANCH  20  24
ENDBRANCH   1  20
TORSDOF 9
ENDMDL
MODEL 2
REMARK VINA RESULT:      -7.2      2.778      4.855
REMARK  Name = 
REMARK  11 active torsions:
REMARK  status: ('A' for Active; 'I' for Inactive)
REMARK    1  A    between atoms: C_1  and  C_2
REMARK    2  A    between atoms: C_2  and  O_3
REMARK    3  A    between atoms: O_3  and  C_4
REMARK    4  A    between atoms: C_4  and  C_5
REMARK    5  A    between atoms: C_5  and  C_6
REMARK    6  A    between atoms: C_6  and  N_7
REMARK    7  A    between atoms: C_8  and  C_10
REMARK    8  A    between atoms: C_13  and  C_14
REMARK    9  A    between atoms: C_14  and  N_15
REMARK   10  A    between atoms: C_25  and  O_26
REMARK   11  A    between atoms: O_26  and  C_27
REMARK                            x       y       z     vdW  Elec       q    Type
REMARK                         _______ _______ _______ _____ _____    ______ ____
ROOT
ATOM      1  N   UNL     1       0.566  11.414  19.910  0.00  0.00    +0.000 N 
ATOM      2  C   UNL     1       1.099  12.585  19.366  0.00  0.00    +0.000 A 
ATOM      3  S   UNL     1       2.347  12.602  18.251  0.00  0.00    +0.000 S 
ATOM      4  N   UNL     1       0.404  13.772  19.722  0.00  0.00    +0.000 N 
ATOM      5  C   UNL     1      -0.991  13.655  19.924  0.00  0.00    +0.000 A 
ATOM      6  C   UNL     1      -1.437  12.469  19.390  0.00  0.00    +0.000 A 
ATOM      7  N   UNL     1      -2.729  12.822  19.117  0.00  0.00    +0.000 N 
ATOM      8  C   UNL     1      -3.167  13.166  20.392  0.00  0.00    +0.000 A 
ATOM      9  C   UNL     1      -4.364  12.793  20.946  0.00  0.00    +0.000 A 
ATOM     10  C   UNL     1      -4.371  12.715  22.318  0.00  0.00    +0.000 A 
ATOM     11  C   UNL     1      -3.272  13.090  23.105  0.00  0.00    +0.000 A 
ATOM     12  C   UNL     1      -2.078  13.605  22.505  0.00  0.00    +0.000 A 
ATOM     13  C   UNL     1      -1.996  13.628  21.052  0.00  0.00    +0.000 A 
ATOM     14  C   UNL     1      -0.793  11.355  20.086  0.00  0.00    +0.000 A 
ATOM     15  O   UNL     1      -1.358  10.646  20.957  0.00  0.00    +0.000 OA
ATOM     16  H   UNL     1       0.639  14.449  18.990  0.00  0.00    +0.000 HD
ATOM     17  H   UNL     1      -2.981  13.436  18.352  0.00  0.00    +0.000 HD
ENDROOT
BRANCH  11  18
ATOM     18  O   UNL     1      -3.616  12.770  24.383  0.00  0.00    +0.000 OA
ATOM     19  C   UNL     1      -4.840  12.304  24.881  0.00  0.00    +0.000 C 
ENDBRANCH  11  18
BRANCH   1  20
ATOM     20  C   UNL     1       1.450  10.438  20.528  0.00  0.00    +0.000 C 
BRANCH  20  24
ATOM     21  C   UNL     1       2.329   6.717  18.563  0.00  0.00    +0.000 A 
ATOM     22  C   UNL     1       2.106   7.862  17.786  0.00  0.00    +0.000 A 
ATOM     23  C   UNL     1       1.756   9.062  18.397  0.00  0.00    +0.000 A 
ATOM     24  C   UNL     1       1.563   9.116  19.792  0.00  0.00    +0.000 A 
ATOM     25  C   UNL     1       1.665   7.926  20.531  0.00  0.00    +0.000 A 
ATOM     26  C   UNL     1       2.123   6.758  19.940  0.00  0.00    +0.000 A 
BRANCH  21  28
ATOM     27  N   UNL     1       4.059   5.501  17.391  0.00  0.00    +0.000 N 
ATOM     28  C   UNL     1       2.803   5.457  17.950  0.00  0.00    +0.000 C 
ATOM     29  O   UNL     1       2.095   4.460  17.981  0.00  0.00    +0.000 OA
ATOM     30  H   UNL     1       4.628   6.342  17.445  0.00  0.00    +0.000 HD
BRANCH  27  31
ATOM     31  C   UNL     1       4.637   4.315  16.830  0.00  0.00    +0.000 C 
BRANCH  31  32
ATOM     32  C   UNL     1       5.541   4.626  15.646  0.00  0.00    +0.000 C 
BRANCH  32  33
ATOM     33  C   UNL     1       6.920   5.000  16.158  0.00  0.00    +0.000 C 
BRANCH  33  34
ATOM     34  O   UNL     1       6.981   6.413  16.346  0.00  0.00    +0.000 OA
BRANCH  34  36
ATOM     35  C   UNL     1       7.844   8.211  17.654  0.00  0.00    +0.000 C 
ATOM     36  C   UNL     1       7.485   6.741  17.635  0.00  0.00    +0.000 C 
ENDBRANCH  34  36
ENDBRANCH  33  34
ENDBRANCH  32  33
ENDBRANCH  31  32
ENDBRANCH  27  31
ENDBRANCH  21  28
ENDBRANCH  20  24
ENDBRANCH   1  20
TORSDOF 9
ENDMDL
MODEL 3
REMARK VINA RESULT:      -7.2      2.499      3.823
REMARK  Name = 
REMARK  11 active torsions:
REMARK  status: ('A' for Active; 'I' for Inactive)
REMARK    1  A    between atoms: C_1  and  C_2
REMARK    2  A    between atoms: C_2  and  O_3
REMARK    3  A    between atoms: O_3  and  C_4
REMARK    4  A    between atoms: C_4  and  C_5
REMARK    5  A    between atoms: C_5  and  C_6
REMARK    6  A    between atoms: C_6  and  N_7
REMARK    7  A    between atoms: C_8  and  C_10
REMARK    8  A    between atoms: C_13  and  C_14
REMARK    9  A    between atoms: C_14  and  N_15
REMARK   10  A    between atoms: C_25  and  O_26
REMARK   11  A    between atoms: O_26  and  C_27
REMARK                            x       y       z     vdW  Elec       q    Type
REMARK                         _______ _______ _______ _____ _____    ______ ____
ROOT
ATOM      1  N   UNL     1      -0.392  11.515  19.829  0.00  0.00    +0.000 N 
ATOM      2  C   UNL     1      -1.459  11.670  18.941  0.00  0.00    +0.000 A 
ATOM      3  S   UNL     1      -1.862  10.543  17.772  0.00  0.00    +0.000 S 
ATOM      4  N   UNL     1      -2.279  12.803  19.196  0.00  0.00    +0.000 N 
ATOM      5  C   UNL     1      -2.417  13.196  20.547  0.00  0.00    +0.000 A 
ATOM      6  C   UNL     1      -1.998  12.178  21.370  0.00  0.00    +0.000 A 
ATOM      7  N   UNL     1      -2.754  12.459  22.473  0.00  0.00    +0.000 N 
ATOM      8  C   UNL     1      -2.310  13.747  22.756  0.00  0.00    +0.000 A 
ATOM      9  C   UNL     1      -1.988  14.218  24.003  0.00  0.00    +0.000 A 
ATOM     10  C   UNL     1      -1.066  15.236  24.019  0.00  0.00    +0.000 A 
ATOM     11  C   UNL     1      -0.565  15.827  22.849  0.00  0.00    +0.000 A 
ATOM     12  C   UNL     1      -1.022  15.406  21.559  0.00  0.00    +0.000 A 
ATOM     13  C   UNL     1      -1.936  14.275  21.490  0.00  0.00    +0.000 A 
ATOM     14  C   UNL     1      -0.580  11.914  21.127  0.00  0.00    +0.000 A 
ATOM     15  O   UNL     1       0.348  12.294  21.886  0.00  0.00    +0.000 OA
ATOM     16  H   UNL     1      -3.178  12.586  18.757  0.00  0.00    +0.000 HD
ATOM     17  H   UNL     1      -3.751  12.286  22.515  0.00  0.00    +0.000 HD
ENDROOT
BRANCH  11  18
ATOM     18  O   UNL     1       0.390  16.702  23.265  0.00  0.00    +0.000 OA
ATOM     19  C   UNL     1       1.278  17.474  22.504  0.00  0.00    +0.000 C 
ENDBRANCH  11  18
BRANCH   1  20
ATOM     20  C   UNL     1       0.937  11.220  19.314  0.00  0.00    +0.000 C 
BRANCH  20  24
ATOM     21  C   UNL     1       2.325   7.162  19.023  0.00  0.00    +0.000 A 
ATOM     22  C   UNL     1       2.263   7.946  17.864  0.00  0.00    +0.000 A 
ATOM     23  C   UNL     1       1.756   9.241  17.922  0.00  0.00    +0.000 A 
ATOM     24  C   UNL     1       1.245   9.746  19.135  0.00  0.00    +0.000 A 
ATOM     25  C   UNL     1       1.199   8.894  20.251  0.00  0.00    +0.000 A 
ATOM     26  C   UNL     1       1.805   7.648  20.221  0.00  0.00    +0.000 A 
BRANCH  21  28
ATOM     27  N   UNL     1       4.327   5.809  19.101  0.00  0.00    +0.000 N 
ATOM     28  C   UNL     1       2.954   5.824  19.009  0.00  0.00    +0.000 C 
ATOM     29  O   UNL     1       2.255   4.822  18.940  0.00  0.00    +0.000 OA
ATOM     30  H   UNL     1       4.854   6.670  19.217  0.00  0.00    +0.000 HD
BRANCH  27  31
ATOM     31  C   UNL     1       5.028   4.559  19.163  0.00  0.00    +0.000 C 
BRANCH  31  32
ATOM     32  C   UNL     1       5.636   4.180  17.820  0.00  0.00    +0.000 C 
BRANCH  32  33
ATOM     33  C   UNL     1       7.076   4.659  17.774  0.00  0.00    +0.000 C 
BRANCH  33  34
ATOM     34  O   UNL     1       7.391   5.311  19.002  0.00  0.00    +0.000 OA
BRANCH  34  36
ATOM     35  C   UNL     1       7.460   7.223  17.576  0.00  0.00    +0.000 C 
ATOM     36  C   UNL     1       8.078   6.537  18.775  0.00  0.00    +0.000 C 
ENDBRANCH  34  36
ENDBRANCH  33  34
ENDBRANCH  32  33
ENDBRANCH  31  32
ENDBRANCH  27  31
ENDBRANCH  21  28
ENDBRANCH  20  24
ENDBRANCH   1  20
TORSDOF 9
ENDMDL
MODEL 4
REMARK VINA RESULT:      -7.0      2.819      4.866
REMARK  Name = 
REMARK  11 active torsions:
REMARK  status: ('A' for Active; 'I' for Inactive)
REMARK    1  A    between atoms: C_1  and  C_2
REMARK    2  A    between atoms: C_2  and  O_3
REMARK    3  A    between atoms: O_3  and  C_4
REMARK    4  A    between atoms: C_4  and  C_5
REMARK    5  A    between atoms: C_5  and  C_6
REMARK    6  A    between atoms: C_6  and  N_7
REMARK    7  A    between atoms: C_8  and  C_10
REMARK    8  A    between atoms: C_13  and  C_14
REMARK    9  A    between atoms: C_14  and  N_15
REMARK   10  A    between atoms: C_25  and  O_26
REMARK   11  A    between atoms: O_26  and  C_27
REMARK                            x       y       z     vdW  Elec       q    Type
REMARK                         _______ _______ _______ _____ _____    ______ ____
ROOT
ATOM      1  N   UNL     1      -0.291  10.679  19.711  0.00  0.00    +0.000 N 
ATOM      2  C   UNL     1       0.104  11.999  19.940  0.00  0.00    +0.000 A 
ATOM      3  S   UNL     1       1.685  12.452  20.250  0.00  0.00    +0.000 S 
ATOM      4  N   UNL     1      -0.922  12.964  19.749  0.00  0.00    +0.000 N 
ATOM      5  C   UNL     1      -1.889  12.674  18.759  0.00  0.00    +0.000 A 
ATOM      6  C   UNL     1      -1.430  11.666  17.944  0.00  0.00    +0.000 A 
ATOM      7  N   UNL     1      -2.118  11.973  16.804  0.00  0.00    +0.000 N 
ATOM      8  C   UNL     1      -3.425  11.885  17.271  0.00  0.00    +0.000 A 
ATOM      9  C   UNL     1      -4.460  11.264  16.620  0.00  0.00    +0.000 A 
ATOM     10  C   UNL     1      -5.455  10.783  17.435  0.00  0.00    +0.000 A 
ATOM     11  C   UNL     1      -5.473  11.000  18.821  0.00  0.00    +0.000 A 
ATOM     12  C   UNL     1      -4.447  11.770  19.459  0.00  0.00    +0.000 A 
ATOM     13  C   UNL     1      -3.329  12.229  18.647  0.00  0.00    +0.000 A 
ATOM     14  C   UNL     1      -1.234  10.455  18.741  0.00  0.00    +0.000 A 
ATOM     15  O   UNL     1      -2.021   9.474  18.740  0.00  0.00    +0.000 OA
ATOM     16  H   UNL     1      -0.430  13.844  19.571  0.00  0.00    +0.000 HD
ATOM     17  H   UNL     1      -1.881  12.762  16.214  0.00  0.00    +0.000 HD
ENDROOT
BRANCH  11  18
ATOM     18  O   UNL     1      -6.535  10.288  19.286  0.00  0.00    +0.000 OA
ATOM     19  C   UNL     1      -7.361  10.545  20.388  0.00  0.00    +0.000 C 
ENDBRANCH  11  18
BRANCH   1  20
ATOM     20  C   UNL     1       0.070   9.642  20.666  0.00  0.00    +0.000 C 
BRANCH  20  24
ATOM     21  C   UNL     1       2.726   6.686  19.027  0.00  0.00    +0.000 A 
ATOM     22  C   UNL     1       2.260   6.531  20.339  0.00  0.00    +0.000 A 
ATOM     23  C   UNL     1       1.452   7.507  20.913  0.00  0.00    +0.000 A 
ATOM     24  C   UNL     1       1.151   8.685  20.199  0.00  0.00    +0.000 A 
ATOM     25  C   UNL     1       1.737   8.875  18.938  0.00  0.00    +0.000 A 
ATOM     26  C   UNL     1       2.448   7.855  18.323  0.00  0.00    +0.000 A 
BRANCH  21  28
ATOM     27  N   UNL     1       3.861   4.555  19.154  0.00  0.00    +0.000 N 
ATOM     28  C   UNL     1       3.498   5.617  18.358  0.00  0.00    +0.000 C 
ATOM     29  O   UNL     1       3.756   5.706  17.164  0.00  0.00    +0.000 OA
ATOM     30  H   UNL     1       3.568   4.505  20.126  0.00  0.00    +0.000 HD
BRANCH  27  31
ATOM     31  C   UNL     1       4.554   3.436  18.586  0.00  0.00    +0.000 C 
BRANCH  31  32
ATOM     32  C   UNL     1       3.597   2.336  18.149  0.00  0.00    +0.000 C 
BRANCH  32  33
ATOM     33  C   UNL     1       2.557   2.121  19.234  0.00  0.00    +0.000 C 
BRANCH  33  34
ATOM     34  O   UNL     1       1.357   2.800  18.871  0.00  0.00    +0.000 OA
BRANCH  34  36
ATOM     35  C   UNL     1       1.417   2.833  21.256  0.00  0.00    +0.000 C 
ATOM     36  C   UNL     1       0.663   3.273  20.020  0.00  0.00    +0.000 C 
ENDBRANCH  34  36
ENDBRANCH  33  34
ENDBRANCH  32  33
ENDBRANCH  31  32
ENDBRANCH  27  31
ENDBRANCH  21  28
ENDBRANCH  20  24
ENDBRANCH   1  20
TORSDOF 9
ENDMDL
MODEL 5
REMARK VINA RESULT:      -7.0      2.141      2.841
REMARK  Name = 
REMARK  11 active torsions:
REMARK  status: ('A' for Active; 'I' for Inactive)
REMARK    1  A    between atoms: C_1  and  C_2
REMARK    2  A    between atoms: C_2  and  O_3
REMARK    3  A    between atoms: O_3  and  C_4
REMARK    4  A    between atoms: C_4  and  C_5
REMARK    5  A    between atoms: C_5  and  C_6
REMARK    6  A    between atoms: C_6  and  N_7
REMARK    7  A    between atoms: C_8  and  C_10
REMARK    8  A    between atoms: C_13  and  C_14
REMARK    9  A    between atoms: C_14  and  N_15
REMARK   10  A    between atoms: C_25  and  O_26
REMARK   11  A    between atoms: O_26  and  C_27
REMARK                            x       y       z     vdW  Elec       q    Type
REMARK                         _______ _______ _______ _____ _____    ______ ____
ROOT
ATOM      1  N   UNL     1       0.339  11.366  20.591  0.00  0.00    +0.000 N 
ATOM      2  C   UNL     1      -0.330  11.345  21.816  0.00  0.00    +0.000 A 
ATOM      3  S   UNL     1      -0.443   9.986  22.786  0.00  0.00    +0.000 S 
ATOM      4  N   UNL     1      -0.795  12.614  22.258  0.00  0.00    +0.000 N 
ATOM      5  C   UNL     1      -0.017  13.737  21.893  0.00  0.00    +0.000 A 
ATOM      6  C   UNL     1       1.225  13.323  21.474  0.00  0.00    +0.000 A 
ATOM      7  N   UNL     1       1.947  14.441  21.784  0.00  0.00    +0.000 N 
ATOM      8  C   UNL     1       1.283  15.387  21.009  0.00  0.00    +0.000 A 
ATOM      9  C   UNL     1       1.887  16.342  20.232  0.00  0.00    +0.000 A 
ATOM     10  C   UNL     1       1.151  16.764  19.152  0.00  0.00    +0.000 A 
ATOM     11  C   UNL     1      -0.163  16.335  18.914  0.00  0.00    +0.000 A 
ATOM     12  C   UNL     1      -0.820  15.439  19.818  0.00  0.00    +0.000 A 
ATOM     13  C   UNL     1      -0.051  14.901  20.931  0.00  0.00    +0.000 A 
ATOM     14  C   UNL     1       1.077  12.481  20.287  0.00  0.00    +0.000 A 
ATOM     15  O   UNL     1       1.316  12.868  19.114  0.00  0.00    +0.000 OA
ATOM     16  H   UNL     1      -0.900  12.521  23.272  0.00  0.00    +0.000 HD
ATOM     17  H   UNL     1       2.186  14.696  22.735  0.00  0.00    +0.000 HD
ENDROOT
BRANCH  11  18
ATOM     18  O   UNL     1      -0.508  16.874  17.713  0.00  0.00    +0.000 OA
ATOM     19  C   UNL     1      -0.895  18.185  17.408  0.00  0.00    +0.000 C 
ENDBRANCH  11  18
BRANCH   1  20
ATOM     20  C   UNL     1       0.015  10.376  19.575  0.00  0.00    +0.000 C 
BRANCH  20  24
ATOM     21  C   UNL     1       2.716   7.205  18.514  0.00  0.00    +0.000 A 
ATOM     22  C   UNL     1       2.303   7.331  19.847  0.00  0.00    +0.000 A 
ATOM     23  C   UNL     1       1.482   8.388  20.226  0.00  0.00    +0.000 A 
ATOM     24  C   UNL     1       1.112   9.370  19.284  0.00  0.00    +0.000 A 
ATOM     25  C   UNL     1       1.646   9.292  17.988  0.00  0.00    +0.000 A 
ATOM     26  C   UNL     1       2.370   8.181  17.582  0.00  0.00    +0.000 A 
BRANCH  21  28
ATOM     27  N   UNL     1       2.771   4.974  17.585  0.00  0.00    +0.000 N 
ATOM     28  C   UNL     1       3.502   6.036  18.064  0.00  0.00    +0.000 C 
ATOM     29  O   UNL     1       4.725   6.067  18.114  0.00  0.00    +0.000 OA
ATOM     30  H   UNL     1       1.758   5.025  17.511  0.00  0.00    +0.000 HD
BRANCH  27  31
ATOM     31  C   UNL     1       3.441   3.818  17.062  0.00  0.00    +0.000 C 
BRANCH  31  32
ATOM     32  C   UNL     1       3.094   2.558  17.841  0.00  0.00    +0.000 C 
BRANCH  32  33
ATOM     33  C   UNL     1       2.001   2.879  18.845  0.00  0.00    +0.000 C 
BRANCH  33  34
ATOM     34  O   UNL     1       2.472   2.584  20.158  0.00  0.00    +0.000 OA
BRANCH  34  36
ATOM     35  C   UNL     1       0.870   4.331  20.430  0.00  0.00    +0.000 C 
ATOM     36  C   UNL     1       1.889   3.452  21.123  0.00  0.00    +0.000 C 
ENDBRANCH  34  36
ENDBRANCH  33  34
ENDBRANCH  32  33
ENDBRANCH  31  32
ENDBRANCH  27  31
ENDBRANCH  21  28
ENDBRANCH  20  24
ENDBRANCH   1  20
TORSDOF 9
ENDMDL
MODEL 6
REMARK VINA RESULT:      -7.0      2.511      3.697
REMARK  Name = 
REMARK  11 active torsions:
REMARK  status: ('A' for Active; 'I' for Inactive)
REMARK    1  A    between atoms: C_1  and  C_2
REMARK    2  A    between atoms: C_2  and  O_3
REMARK    3  A    between atoms: O_3  and  C_4
REMARK    4  A    between atoms: C_4  and  C_5
REMARK    5  A    between atoms: C_5  and  C_6
REMARK    6  A    between atoms: C_6  and  N_7
REMARK    7  A    between atoms: C_8  and  C_10
REMARK    8  A    between atoms: C_13  and  C_14
REMARK    9  A    between atoms: C_14  and  N_15
REMARK   10  A    between atoms: C_25  and  O_26
REMARK   11  A    between atoms: O_26  and  C_27
REMARK                            x       y       z     vdW  Elec       q    Type
REMARK                         _______ _______ _______ _____ _____    ______ ____
ROOT
ATOM      1  N   UNL     1      -0.338  11.453  19.646  0.00  0.00    +0.000 N 
ATOM      2  C   UNL     1      -1.459  11.576  18.822  0.00  0.00    +0.000 A 
ATOM      3  S   UNL     1      -1.907  10.426  17.691  0.00  0.00    +0.000 S 
ATOM      4  N   UNL     1      -2.287  12.694  19.113  0.00  0.00    +0.000 N 
ATOM      5  C   UNL     1      -2.353  13.100  20.466  0.00  0.00    +0.000 A 
ATOM      6  C   UNL     1      -1.864  12.101  21.273  0.00  0.00    +0.000 A 
ATOM      7  N   UNL     1      -2.560  12.380  22.416  0.00  0.00    +0.000 N 
ATOM      8  C   UNL     1      -2.128  13.680  22.658  0.00  0.00    +0.000 A 
ATOM      9  C   UNL     1      -1.743  14.173  23.878  0.00  0.00    +0.000 A 
ATOM     10  C   UNL     1      -0.843  15.210  23.829  0.00  0.00    +0.000 A 
ATOM     11  C   UNL     1      -0.426  15.797  22.625  0.00  0.00    +0.000 A 
ATOM     12  C   UNL     1      -0.949  15.351  21.368  0.00  0.00    +0.000 A 
ATOM     13  C   UNL     1      -1.841  14.200  21.366  0.00  0.00    +0.000 A 
ATOM     14  C   UNL     1      -0.458  11.865  20.949  0.00  0.00    +0.000 A 
ATOM     15  O   UNL     1       0.505  12.272  21.648  0.00  0.00    +0.000 OA
ATOM     16  H   UNL     1      -3.206  12.453  18.730  0.00  0.00    +0.000 HD
ATOM     17  H   UNL     1      -3.549  12.186  22.518  0.00  0.00    +0.000 HD
ENDROOT
BRANCH  11  18
ATOM     18  O   UNL     1       0.533  16.697  22.974  0.00  0.00    +0.000 OA
ATOM     19  C   UNL     1       0.461  18.095  23.024  0.00  0.00    +0.000 C 
ENDBRANCH  11  18
BRANCH   1  20
ATOM     20  C   UNL     1       0.963  11.180  19.057  0.00  0.00    +0.000 C 
BRANCH  20  24
ATOM     21  C   UNL     1       2.484   7.160  19.018  0.00  0.00    +0.000 A 
ATOM     22  C   UNL     1       2.506   7.908  17.834  0.00  0.00    +0.000 A 
ATOM     23  C   UNL     1       1.960   9.188  17.806  0.00  0.00    +0.000 A 
ATOM     24  C   UNL     1       1.328   9.712  18.952  0.00  0.00    +0.000 A 
ATOM     25  C   UNL     1       1.203   8.891  20.085  0.00  0.00    +0.000 A 
ATOM     26  C   UNL     1       1.844   7.663  20.148  0.00  0.00    +0.000 A 
BRANCH  21  28
ATOM     27  N   UNL     1       3.613   5.331  17.913  0.00  0.00    +0.000 N 
ATOM     28  C   UNL     1       3.148   5.841  19.103  0.00  0.00    +0.000 C 
ATOM     29  O   UNL     1       3.272   5.289  20.188  0.00  0.00    +0.000 OA
ATOM     30  H   UNL     1       3.536   5.861  17.048  0.00  0.00    +0.000 HD
BRANCH  27  31
ATOM     31  C   UNL     1       4.331   4.089  17.897  0.00  0.00    +0.000 C 
BRANCH  31  32
ATOM     32  C   UNL     1       5.812   4.284  18.187  0.00  0.00    +0.000 C 
BRANCH  32  33
ATOM     33  C   UNL     1       6.532   4.625  16.893  0.00  0.00    +0.000 C 
BRANCH  33  34
ATOM     34  O   UNL     1       5.870   3.979  15.808  0.00  0.00    +0.000 OA
BRANCH  34  36
ATOM     35  C   UNL     1       6.198   3.754  13.455  0.00  0.00    +0.000 C 
ATOM     36  C   UNL     1       6.008   4.723  14.603  0.00  0.00    +0.000 C 
ENDBRANCH  34  36
ENDBRANCH  33  34
ENDBRANCH  32  33
ENDBRANCH  31  32
ENDBRANCH  27  31
ENDBRANCH  21  28
ENDBRANCH  20  24
ENDBRANCH   1  20
TORSDOF 9
ENDMDL
MODEL 7
REMARK VINA RESULT:      -6.9      2.466      3.699
REMARK  Name = 
REMARK  11 active torsions:
REMARK  status: ('A' for Active; 'I' for Inactive)
REMARK    1  A    between atoms: C_1  and  C_2
REMARK    2  A    between atoms: C_2  and  O_3
REMARK    3  A    between atoms: O_3  and  C_4
REMARK    4  A    between atoms: C_4  and  C_5
REMARK    5  A    between atoms: C_5  and  C_6
REMARK    6  A    between atoms: C_6  and  N_7
REMARK    7  A    between atoms: C_8  and  C_10
REMARK    8  A    between atoms: C_13  and  C_14
REMARK    9  A    between atoms: C_14  and  N_15
REMARK   10  A    between atoms: C_25  and  O_26
REMARK   11  A    between atoms: O_26  and  C_27
REMARK                            x       y       z     vdW  Elec       q    Type
REMARK                         _______ _______ _______ _____ _____    ______ ____
ROOT
ATOM      1  N   UNL     1       0.212  11.904  20.559  0.00  0.00    +0.000 N 
ATOM      2  C   UNL     1      -0.517  11.952  21.749  0.00  0.00    +0.000 A 
ATOM      3  S   UNL     1      -0.723  10.636  22.762  0.00  0.00    +0.000 S 
ATOM      4  N   UNL     1      -0.961  13.251  22.118  0.00  0.00    +0.000 N 
ATOM      5  C   UNL     1      -0.129  14.334  21.751  0.00  0.00    +0.000 A 
ATOM      6  C   UNL     1       1.118  13.865  21.412  0.00  0.00    +0.000 A 
ATOM      7  N   UNL     1       1.860  14.972  21.715  0.00  0.00    +0.000 N 
ATOM      8  C   UNL     1       1.267  15.907  20.873  0.00  0.00    +0.000 A 
ATOM      9  C   UNL     1       1.940  16.811  20.092  0.00  0.00    +0.000 A 
ATOM     10  C   UNL     1       1.273  17.213  18.961  0.00  0.00    +0.000 A 
ATOM     11  C   UNL     1      -0.041  16.816  18.673  0.00  0.00    +0.000 A 
ATOM     12  C   UNL     1      -0.772  15.978  19.575  0.00  0.00    +0.000 A 
ATOM     13  C   UNL     1      -0.077  15.461  20.745  0.00  0.00    +0.000 A 
ATOM     14  C   UNL     1       1.001  12.983  20.251  0.00  0.00    +0.000 A 
ATOM     15  O   UNL     1       1.310  13.315  19.079  0.00  0.00    +0.000 OA
ATOM     16  H   UNL     1      -1.119  13.202  23.129  0.00  0.00    +0.000 HD
ATOM     17  H   UNL     1       2.060  15.256  22.667  0.00  0.00    +0.000 HD
ENDROOT
BRANCH  11  18
ATOM     18  O   UNL     1      -0.308  17.318  17.436  0.00  0.00    +0.000 OA
ATOM     19  C   UNL     1      -0.624  18.631  17.061  0.00  0.00    +0.000 C 
ENDBRANCH  11  18
BRANCH   1  20
ATOM     20  C   UNL     1      -0.094  10.885  19.566  0.00  0.00    +0.000 C 
BRANCH  20  24
ATOM     21  C   UNL     1       2.284   7.329  19.151  0.00  0.00    +0.000 A 
ATOM     22  C   UNL     1       1.835   7.703  20.424  0.00  0.00    +0.000 A 
ATOM     23  C   UNL     1       1.119   8.885  20.592  0.00  0.00    +0.000 A 
ATOM     24  C   UNL     1       0.897   9.740  19.493  0.00  0.00    +0.000 A 
ATOM     25  C   UNL     1       1.470   9.406  18.256  0.00  0.00    +0.000 A 
ATOM     26  C   UNL     1       2.085   8.177  18.064  0.00  0.00    +0.000 A 
BRANCH  21  28
ATOM     27  N   UNL     1       3.427   5.813  17.654  0.00  0.00    +0.000 N 
ATOM     28  C   UNL     1       2.955   6.030  18.928  0.00  0.00    +0.000 C 
ATOM     29  O   UNL     1       3.078   5.240  19.854  0.00  0.00    +0.000 OA
ATOM     30  H   UNL     1       3.350   6.530  16.937  0.00  0.00    +0.000 HD
BRANCH  27  31
ATOM     31  C   UNL     1       4.152   4.613  17.352  0.00  0.00    +0.000 C 
BRANCH  31  32
ATOM     32  C   UNL     1       5.090   4.798  16.168  0.00  0.00    +0.000 C 
BRANCH  32  33
ATOM     33  C   UNL     1       5.354   6.280  15.968  0.00  0.00    +0.000 C 
BRANCH  33  34
ATOM     34  O   UNL     1       6.005   6.798  17.127  0.00  0.00    +0.000 OA
BRANCH  34  36
ATOM     35  C   UNL     1       7.800   6.295  18.616  0.00  0.00    +0.000 C 
ATOM     36  C   UNL     1       7.372   6.407  17.168  0.00  0.00    +0.000 C 
ENDBRANCH  34  36
ENDBRANCH  33  34
ENDBRANCH  32  33
ENDBRANCH  31  32
ENDBRANCH  27  31
ENDBRANCH  21  28
ENDBRANCH  20  24
ENDBRANCH   1  20
TORSDOF 9
ENDMDL
MODEL 8
REMARK VINA RESULT:      -6.9      1.533      2.355
REMARK  Name = 
REMARK  11 active torsions:
REMARK  status: ('A' for Active; 'I' for Inactive)
REMARK    1  A    between atoms: C_1  and  C_2
REMARK    2  A    between atoms: C_2  and  O_3
REMARK    3  A    between atoms: O_3  and  C_4
REMARK    4  A    between atoms: C_4  and  C_5
REMARK    5  A    between atoms: C_5  and  C_6
REMARK    6  A    between atoms: C_6  and  N_7
REMARK    7  A    between atoms: C_8  and  C_10
REMARK    8  A    between atoms: C_13  and  C_14
REMARK    9  A    between atoms: C_14  and  N_15
REMARK   10  A    between atoms: C_25  and  O_26
REMARK   11  A    between atoms: O_26  and  C_27
REMARK                            x       y       z     vdW  Elec       q    Type
REMARK                         _______ _______ _______ _____ _____    ______ ____
ROOT
ATOM      1  N   UNL     1      -0.701  11.465  19.997  0.00  0.00    +0.000 N 
ATOM      2  C   UNL     1      -1.175  11.529  18.684  0.00  0.00    +0.000 A 
ATOM      3  S   UNL     1      -2.509  10.679  18.140  0.00  0.00    +0.000 S 
ATOM      4  N   UNL     1      -0.522  12.491  17.866  0.00  0.00    +0.000 N 
ATOM      5  C   UNL     1      -0.056  13.660  18.510  0.00  0.00    +0.000 A 
ATOM      6  C   UNL     1      -0.645  13.774  19.747  0.00  0.00    +0.000 A 
ATOM      7  N   UNL     1      -0.595  15.132  19.892  0.00  0.00    +0.000 N 
ATOM      8  C   UNL     1       0.778  15.340  19.806  0.00  0.00    +0.000 A 
ATOM      9  C   UNL     1       1.510  16.155  20.631  0.00  0.00    +0.000 A 
ATOM     10  C   UNL     1       2.829  15.801  20.777  0.00  0.00    +0.000 A 
ATOM     11  C   UNL     1       3.418  14.749  20.059  0.00  0.00    +0.000 A 
ATOM     12  C   UNL     1       2.662  13.999  19.101  0.00  0.00    +0.000 A 
ATOM     13  C   UNL     1       1.241  14.285  18.973  0.00  0.00    +0.000 A 
ATOM     14  C   UNL     1      -0.259  12.629  20.572  0.00  0.00    +0.000 A 
ATOM     15  O   UNL     1       0.603  12.678  21.486  0.00  0.00    +0.000 OA
ATOM     16  H   UNL     1      -1.185  12.695  17.113  0.00  0.00    +0.000 HD
ATOM     17  H   UNL     1      -1.199  15.763  19.379  0.00  0.00    +0.000 HD
ENDROOT
BRANCH  11  18
ATOM     18  O   UNL     1       4.681  14.636  20.552  0.00  0.00    +0.000 OA
ATOM     19  C   UNL     1       5.105  14.481  21.878  0.00  0.00    +0.000 C 
ENDBRANCH  11  18
BRANCH   1  20
ATOM     20  C   UNL     1      -0.420  10.172  20.600  0.00  0.00    +0.000 C 
BRANCH  20  24
ATOM     21  C   UNL     1       2.479   7.723  18.579  0.00  0.00    +0.000 A 
ATOM     22  C   UNL     1       2.194   7.469  19.927  0.00  0.00    +0.000 A 
ATOM     23  C   UNL     1       1.308   8.289  20.620  0.00  0.00    +0.000 A 
ATOM     24  C   UNL     1       0.742   9.414  19.985  0.00  0.00    +0.000 A 
ATOM     25  C   UNL     1       1.146   9.721  18.676  0.00  0.00    +0.000 A 
ATOM     26  C   UNL     1       1.939   8.844  17.952  0.00  0.00    +0.000 A 
BRANCH  21  28
ATOM     27  N   UNL     1       3.182   5.468  18.065  0.00  0.00    +0.000 N 
ATOM     28  C   UNL     1       3.334   6.808  17.793  0.00  0.00    +0.000 C 
ATOM     29  O   UNL     1       4.098   7.260  16.950  0.00  0.00    +0.000 OA
ATOM     30  H   UNL     1       2.489   5.144  18.734  0.00  0.00    +0.000 HD
BRANCH  27  31
ATOM     31  C   UNL     1       3.917   4.495  17.310  0.00  0.00    +0.000 C 
BRANCH  31  32
ATOM     32  C   UNL     1       5.034   3.864  18.130  0.00  0.00    +0.000 C 
BRANCH  32  33
ATOM     33  C   UNL     1       5.705   4.939  18.967  0.00  0.00    +0.000 C 
BRANCH  33  34
ATOM     34  O   UNL     1       7.100   4.659  19.054  0.00  0.00    +0.000 OA
BRANCH  34  36
ATOM     35  C   UNL     1       7.621   6.748  18.024  0.00  0.00    +0.000 C 
ATOM     36  C   UNL     1       7.857   5.853  19.221  0.00  0.00    +0.000 C 
ENDBRANCH  34  36
ENDBRANCH  33  34
ENDBRANCH  32  33
ENDBRANCH  31  32
ENDBRANCH  27  31
ENDBRANCH  21  28
ENDBRANCH  20  24
ENDBRANCH   1  20
TORSDOF 9
ENDMDL
MODEL 9
REMARK VINA RESULT:      -6.8      2.446      3.698
REMARK  Name = 
REMARK  11 active torsions:
REMARK  status: ('A' for Active; 'I' for Inactive)
REMARK    1  A    between atoms: C_1  and  C_2
REMARK    2  A    between atoms: C_2  and  O_3
REMARK    3  A    between atoms: O_3  and  C_4
REMARK    4  A    between atoms: C_4  and  C_5
REMARK    5  A    between atoms: C_5  and  C_6
REMARK    6  A    between atoms: C_6  and  N_7
REMARK    7  A    between atoms: C_8  and  C_10
REMARK    8  A    between atoms: C_13  and  C_14
REMARK    9  A    between atoms: C_14  and  N_15
REMARK   10  A    between atoms: C_25  and  O_26
REMARK   11  A    between atoms: O_26  and  C_27
REMARK                            x       y       z     vdW  Elec       q    Type
REMARK                         _______ _______ _______ _____ _____    ______ ____
ROOT
ATOM      1  N   UNL     1       0.951  12.030  20.086  0.00  0.00    +0.000 N 
ATOM      2  C   UNL     1       0.214  12.340  21.231  0.00  0.00    +0.000 A 
ATOM      3  S   UNL     1      -0.500  11.187  22.212  0.00  0.00    +0.000 S 
ATOM      4  N   UNL     1       0.232  13.714  21.592  0.00  0.00    +0.000 N 
ATOM      5  C   UNL     1       1.411  14.434  21.291  0.00  0.00    +0.000 A 
ATOM      6  C   UNL     1       2.433  13.555  21.019  0.00  0.00    +0.000 A 
ATOM      7  N   UNL     1       3.496  14.334  21.382  0.00  0.00    +0.000 N 
ATOM      8  C   UNL     1       3.320  15.412  20.519  0.00  0.00    +0.000 A 
ATOM      9  C   UNL     1       4.313  16.016  19.793  0.00  0.00    +0.000 A 
ATOM     10  C   UNL     1       3.899  16.618  18.629  0.00  0.00    +0.000 A 
ATOM     11  C   UNL     1       2.549  16.704  18.258  0.00  0.00    +0.000 A 
ATOM     12  C   UNL     1       1.518  16.182  19.103  0.00  0.00    +0.000 A 
ATOM     13  C   UNL     1       1.915  15.463  20.305  0.00  0.00    +0.000 A 
ATOM     14  C   UNL     1       2.085  12.761  19.842  0.00  0.00    +0.000 A 
ATOM     15  O   UNL     1       2.562  12.955  18.694  0.00  0.00    +0.000 OA
ATOM     16  H   UNL     1       0.006  13.731  22.590  0.00  0.00    +0.000 HD
ATOM     17  H   UNL     1       3.725  14.538  22.347  0.00  0.00    +0.000 HD
ENDROOT
BRANCH  11  18
ATOM     18  O   UNL     1       2.551  17.259  17.015  0.00  0.00    +0.000 OA
ATOM     19  C   UNL     1       1.621  18.129  16.431  0.00  0.00    +0.000 C 
ENDBRANCH  11  18
BRANCH   1  20
ATOM     20  C   UNL     1       0.369  11.175  19.063  0.00  0.00    +0.000 C 
BRANCH  20  24
ATOM     21  C   UNL     1       2.391   7.383  19.172  0.00  0.00    +0.000 A 
ATOM     22  C   UNL     1       2.294   8.069  17.954  0.00  0.00    +0.000 A 
ATOM     23  C   UNL     1       1.588   9.266  17.881  0.00  0.00    +0.000 A 
ATOM     24  C   UNL     1       0.916   9.761  19.017  0.00  0.00    +0.000 A 
ATOM     25  C   UNL     1       0.920   8.989  20.190  0.00  0.00    +0.000 A 
ATOM     26  C   UNL     1       1.714   7.857  20.294  0.00  0.00    +0.000 A 
BRANCH  21  28
ATOM     27  N   UNL     1       4.437   6.203  18.661  0.00  0.00    +0.000 N 
ATOM     28  C   UNL     1       3.220   6.166  19.300  0.00  0.00    +0.000 C 
ATOM     29  O   UNL     1       2.815   5.218  19.961  0.00  0.00    +0.000 OA
ATOM     30  H   UNL     1       4.749   7.040  18.175  0.00  0.00    +0.000 HD
BRANCH  27  31
ATOM     31  C   UNL     1       5.344   5.098  18.780  0.00  0.00    +0.000 C 
BRANCH  31  32
ATOM     32  C   UNL     1       6.777   5.501  18.464  0.00  0.00    +0.000 C 
BRANCH  32  33
ATOM     33  C   UNL     1       6.978   5.487  16.959  0.00  0.00    +0.000 C 
BRANCH  33  34
ATOM     34  O   UNL     1       5.816   4.939  16.339  0.00  0.00    +0.000 OA
BRANCH  34  36
ATOM     35  C   UNL     1       5.848   4.194  14.073  0.00  0.00    +0.000 C 
ATOM     36  C   UNL     1       6.146   3.830  15.511  0.00  0.00    +0.000 C 
ENDBRANCH  34  36
ENDBRANCH  33  34
ENDBRANCH  32  33
ENDBRANCH  31  32
ENDBRANCH  27  31
ENDBRANCH  21  28
ENDBRANCH  20  24
ENDBRANCH   1  20
TORSDOF 9
ENDMDL
