MODEL 1
REMARK VINA RESULT:      -7.5      0.000      0.000
REMARK  Name = 
REMARK  12 active torsions:
REMARK  status: ('A' for Active; 'I' for Inactive)
REMARK    1  A    between atoms: C_1  and  C_2
REMARK    2  A    between atoms: C_2  and  C_3
REMARK    3  A    between atoms: C_3  and  C_4
REMARK    4  A    between atoms: C_4  and  C_5
REMARK    5  A    between atoms: C_5  and  N_6
REMARK    6  A    between atoms: C_7  and  C_9
REMARK    7  A    between atoms: C_9  and  C_10
REMARK    8  A    between atoms: C_9  and  N_11
REMARK    9  A    between atoms: N_11  and  S_12
REMARK   10  A    between atoms: S_12  and  C_15
REMARK   11  A    between atoms: C_18  and  O_19
REMARK   12  A    between atoms: O_19  and  C_20
REMARK                            x       y       z     vdW  Elec       q    Type
REMARK                         _______ _______ _______ _____ _____    ______ ____
ROOT
ATOM      1  N   UNL     1       4.865   4.064  16.478  0.00  0.00    +0.000 NA
ATOM      2  H   UNL     1       4.503   3.433  15.764  0.00  0.00    +0.000 HD
ENDROOT
BRANCH   1   3
ATOM      3  S   UNL     1       4.186   3.659  17.987  0.00  0.00    +0.000 S 
ATOM      4  O   UNL     1       3.184   2.661  17.712  0.00  0.00    +0.000 OA
ATOM      5  O   UNL     1       5.274   3.414  18.910  0.00  0.00    +0.000 OA
BRANCH   3   6
ATOM      6  C   UNL     1       3.345   5.154  18.466  0.00  0.00    +0.000 A 
ATOM      7  C   UNL     1       3.362   6.262  17.620  0.00  0.00    +0.000 A 
ATOM      8  C   UNL     1       2.768   7.455  18.053  0.00  0.00    +0.000 A 
ATOM      9  C   UNL     1       2.149   7.540  19.306  0.00  0.00    +0.000 A 
ATOM     10  C   UNL     1       2.135   6.426  20.143  0.00  0.00    +0.000 A 
ATOM     11  C   UNL     1       2.717   5.229  19.716  0.00  0.00    +0.000 A 
BRANCH   9  12
ATOM     12  O   UNL     1       1.642   8.772  19.619  0.00  0.00    +0.000 OA
ATOM     13  C   UNL     1       0.956   8.866  20.865  0.00  0.00    +0.000 C 
ENDBRANCH   9  12
ENDBRANCH   3   6
ENDBRANCH   1   3
BRANCH   1  14
ATOM     14  C   UNL     1       6.350   4.248  16.434  0.00  0.00    +0.000 C 
ATOM     15  C   UNL     1       6.785   5.473  17.227  0.00  0.00    +0.000 C 
BRANCH  14  17
ATOM     16  N   UNL     1       6.219   3.542  14.075  0.00  0.00    +0.000 N 
ATOM     17  C   UNL     1       6.817   4.397  14.980  0.00  0.00    +0.000 C 
ATOM     18  O   UNL     1       7.625   5.260  14.641  0.00  0.00    +0.000 OA
ATOM     19  H   UNL     1       5.602   2.823  14.436  0.00  0.00    +0.000 HD
BRANCH  16  20
ATOM     20  C   UNL     1       6.534   3.572  12.657  0.00  0.00    +0.000 C 
BRANCH  20  21
ATOM     21  C   UNL     1       5.521   2.804  11.805  0.00  0.00    +0.000 C 
BRANCH  21  22
ATOM     22  C   UNL     1       4.203   3.569  11.654  0.00  0.00    +0.000 C 
BRANCH  22  24
ATOM     23  C   UNL     1       2.890   4.266   9.622  0.00  0.00    +0.000 C 
ATOM     24  C   UNL     1       3.396   3.092  10.446  0.00  0.00    +0.000 C 
ENDBRANCH  22  24
ENDBRANCH  21  22
ENDBRANCH  20  21
ENDBRANCH  16  20
ENDBRANCH  14  17
ENDBRANCH   1  14
TORSDOF 9
ENDMDL
MODEL 2
REMARK VINA RESULT:      -7.2      1.659      2.376
REMARK  Name = 
REMARK  12 active torsions:
REMARK  status: ('A' for Active; 'I' for Inactive)
REMARK    1  A    between atoms: C_1  and  C_2
REMARK    2  A    between atoms: C_2  and  C_3
REMARK    3  A    between atoms: C_3  and  C_4
REMARK    4  A    between atoms: C_4  and  C_5
REMARK    5  A    between atoms: C_5  and  N_6
REMARK    6  A    between atoms: C_7  and  C_9
REMARK    7  A    between atoms: C_9  and  C_10
REMARK    8  A    between atoms: C_9  and  N_11
REMARK    9  A    between atoms: N_11  and  S_12
REMARK   10  A    between atoms: S_12  and  C_15
REMARK   11  A    between atoms: C_18  and  O_19
REMARK   12  A    between atoms: O_19  and  C_20
REMARK                            x       y       z     vdW  Elec       q    Type
REMARK                         _______ _______ _______ _____ _____    ______ ____
ROOT
ATOM      1  N   UNL     1       4.994   6.464  17.191  0.00  0.00    +0.000 NA
ATOM      2  H   UNL     1       4.709   6.268  16.232  0.00  0.00    +0.000 HD
ENDROOT
BRANCH   1   3
ATOM      3  S   UNL     1       3.819   5.855  18.265  0.00  0.00    +0.000 S 
ATOM      4  O   UNL     1       3.007   4.953  17.489  0.00  0.00    +0.000 OA
ATOM      5  O   UNL     1       4.502   5.424  19.468  0.00  0.00    +0.000 OA
BRANCH   3   6
ATOM      6  C   UNL     1       2.832   7.290  18.640  0.00  0.00    +0.000 A 
ATOM      7  C   UNL     1       2.207   7.396  19.882  0.00  0.00    +0.000 A 
ATOM      8  C   UNL     1       1.366   8.491  20.126  0.00  0.00    +0.000 A 
ATOM      9  C   UNL     1       1.164   9.476  19.153  0.00  0.00    +0.000 A 
ATOM     10  C   UNL     1       1.796   9.362  17.916  0.00  0.00    +0.000 A 
ATOM     11  C   UNL     1       2.644   8.278  17.667  0.00  0.00    +0.000 A 
BRANCH   9  12
ATOM     12  O   UNL     1       0.291  10.469  19.506  0.00  0.00    +0.000 OA
ATOM     13  C   UNL     1       0.196  10.748  20.900  0.00  0.00    +0.000 C 
ENDBRANCH   9  12
ENDBRANCH   3   6
ENDBRANCH   1   3
BRANCH   1  14
ATOM     14  C   UNL     1       6.421   6.120  17.485  0.00  0.00    +0.000 C 
ATOM     15  C   UNL     1       7.264   7.370  17.697  0.00  0.00    +0.000 C 
BRANCH  14  17
ATOM     16  N   UNL     1       6.517   5.607  15.075  0.00  0.00    +0.000 N 
ATOM     17  C   UNL     1       7.013   5.303  16.329  0.00  0.00    +0.000 C 
ATOM     18  O   UNL     1       7.908   4.479  16.505  0.00  0.00    +0.000 OA
ATOM     19  H   UNL     1       5.744   6.260  15.015  0.00  0.00    +0.000 HD
BRANCH  16  20
ATOM     20  C   UNL     1       6.990   4.941  13.874  0.00  0.00    +0.000 C 
BRANCH  20  21
ATOM     21  C   UNL     1       6.185   3.684  13.534  0.00  0.00    +0.000 C 
BRANCH  21  22
ATOM     22  C   UNL     1       6.268   3.338  12.044  0.00  0.00    +0.000 C 
BRANCH  22  24
ATOM     23  C   UNL     1       3.975   3.271  11.008  0.00  0.00    +0.000 C 
ATOM     24  C   UNL     1       5.110   2.446  11.596  0.00  0.00    +0.000 C 
ENDBRANCH  22  24
ENDBRANCH  21  22
ENDBRANCH  20  21
ENDBRANCH  16  20
ENDBRANCH  14  17
ENDBRANCH   1  14
TORSDOF 9
ENDMDL
MODEL 3
REMARK VINA RESULT:      -7.2      2.270      2.890
REMARK  Name = 
REMARK  12 active torsions:
REMARK  status: ('A' for Active; 'I' for Inactive)
REMARK    1  A    between atoms: C_1  and  C_2
REMARK    2  A    between atoms: C_2  and  C_3
REMARK    3  A    between atoms: C_3  and  C_4
REMARK    4  A    between atoms: C_4  and  C_5
REMARK    5  A    between atoms: C_5  and  N_6
REMARK    6  A    between atoms: C_7  and  C_9
REMARK    7  A    between atoms: C_9  and  C_10
REMARK    8  A    between atoms: C_9  and  N_11
REMARK    9  A    between atoms: N_11  and  S_12
REMARK   10  A    between atoms: S_12  and  C_15
REMARK   11  A    between atoms: C_18  and  O_19
REMARK   12  A    between atoms: O_19  and  C_20
REMARK                            x       y       z     vdW  Elec       q    Type
REMARK                         _______ _______ _______ _____ _____    ______ ____
ROOT
ATOM      1  N   UNL     1       6.508   4.452  16.439  0.00  0.00    +0.000 NA
ATOM      2  H   UNL     1       7.282   3.797  16.340  0.00  0.00    +0.000 HD
ENDROOT
BRANCH   1   3
ATOM      3  S   UNL     1       6.487   5.066  18.028  0.00  0.00    +0.000 S 
ATOM      4  O   UNL     1       7.476   4.310  18.754  0.00  0.00    +0.000 OA
ATOM      5  O   UNL     1       6.541   6.511  17.944  0.00  0.00    +0.000 OA
BRANCH   3   6
ATOM      6  C   UNL     1       4.883   4.579  18.629  0.00  0.00    +0.000 A 
ATOM      7  C   UNL     1       4.208   5.389  19.542  0.00  0.00    +0.000 A 
ATOM      8  C   UNL     1       2.987   4.947  20.067  0.00  0.00    +0.000 A 
ATOM      9  C   UNL     1       2.434   3.722  19.676  0.00  0.00    +0.000 A 
ATOM     10  C   UNL     1       3.115   2.921  18.761  0.00  0.00    +0.000 A 
ATOM     11  C   UNL     1       4.330   3.358  18.225  0.00  0.00    +0.000 A 
BRANCH   9  12
ATOM     12  O   UNL     1       1.257   3.394  20.293  0.00  0.00    +0.000 OA
ATOM     13  C   UNL     1       1.376   2.689  21.526  0.00  0.00    +0.000 C 
ENDBRANCH   9  12
ENDBRANCH   3   6
ENDBRANCH   1   3
BRANCH   1  14
ATOM     14  C   UNL     1       6.409   5.451  15.328  0.00  0.00    +0.000 C 
ATOM     15  C   UNL     1       4.964   5.863  15.076  0.00  0.00    +0.000 C 
BRANCH  14  17
ATOM     16  N   UNL     1       6.299   3.796  13.503  0.00  0.00    +0.000 N 
ATOM     17  C   UNL     1       6.996   4.862  14.039  0.00  0.00    +0.000 C 
ATOM     18  O   UNL     1       7.985   5.347  13.493  0.00  0.00    +0.000 OA
ATOM     19  H   UNL     1       5.524   3.419  14.037  0.00  0.00    +0.000 HD
BRANCH  16  20
ATOM     20  C   UNL     1       6.711   3.141  12.274  0.00  0.00    +0.000 C 
BRANCH  20  21
ATOM     21  C   UNL     1       5.533   2.583  11.472  0.00  0.00    +0.000 C 
BRANCH  21  22
ATOM     22  C   UNL     1       4.268   3.428  11.649  0.00  0.00    +0.000 C 
BRANCH  22  24
ATOM     23  C   UNL     1       3.042   4.096   9.555  0.00  0.00    +0.000 C 
ATOM     24  C   UNL     1       3.178   3.047  10.648  0.00  0.00    +0.000 C 
ENDBRANCH  22  24
ENDBRANCH  21  22
ENDBRANCH  20  21
ENDBRANCH  16  20
ENDBRANCH  14  17
ENDBRANCH   1  14
TORSDOF 9
ENDMDL
MODEL 4
REMARK VINA RESULT:      -7.0      1.700      2.179
REMARK  Name = 
REMARK  12 active torsions:
REMARK  status: ('A' for Active; 'I' for Inactive)
REMARK    1  A    between atoms: C_1  and  C_2
REMARK    2  A    between atoms: C_2  and  C_3
REMARK    3  A    between atoms: C_3  and  C_4
REMARK    4  A    between atoms: C_4  and  C_5
REMARK    5  A    between atoms: C_5  and  N_6
REMARK    6  A    between atoms: C_7  and  C_9
REMARK    7  A    between atoms: C_9  and  C_10
REMARK    8  A    between atoms: C_9  and  N_11
REMARK    9  A    between atoms: N_11  and  S_12
REMARK   10  A    between atoms: S_12  and  C_15
REMARK   11  A    between atoms: C_18  and  O_19
REMARK   12  A    between atoms: O_19  and  C_20
REMARK                            x       y       z     vdW  Elec       q    Type
REMARK                         _______ _______ _______ _____ _____    ______ ____
ROOT
ATOM      1  N   UNL     1       5.358   6.016  18.264  0.00  0.00    +0.000 NA
ATOM      2  H   UNL     1       5.383   6.471  17.352  0.00  0.00    +0.000 HD
ENDROOT
BRANCH   1   3
ATOM      3  S   UNL     1       3.808   5.360  18.525  0.00  0.00    +0.000 S 
ATOM      4  O   UNL     1       3.380   4.841  17.250  0.00  0.00    +0.000 OA
ATOM      5  O   UNL     1       3.876   4.523  19.705  0.00  0.00    +0.000 OA
BRANCH   3   6
ATOM      6  C   UNL     1       2.816   6.795  18.887  0.00  0.00    +0.000 A 
ATOM      7  C   UNL     1       2.646   7.783  17.919  0.00  0.00    +0.000 A 
ATOM      8  C   UNL     1       1.934   8.943  18.253  0.00  0.00    +0.000 A 
ATOM      9  C   UNL     1       1.383   9.110  19.529  0.00  0.00    +0.000 A 
ATOM     10  C   UNL     1       1.557   8.115  20.489  0.00  0.00    +0.000 A 
ATOM     11  C   UNL     1       2.258   6.950  20.162  0.00  0.00    +0.000 A 
BRANCH   9  12
ATOM     12  O   UNL     1       0.746  10.304  19.734  0.00  0.00    +0.000 OA
ATOM     13  C   UNL     1       0.918  11.284  18.714  0.00  0.00    +0.000 C 
ENDBRANCH   9  12
ENDBRANCH   3   6
ENDBRANCH   1   3
BRANCH   1  14
ATOM     14  C   UNL     1       6.525   5.117  18.529  0.00  0.00    +0.000 C 
ATOM     15  C   UNL     1       7.597   5.822  19.351  0.00  0.00    +0.000 C 
BRANCH  14  17
ATOM     16  N   UNL     1       6.381   4.909  16.076  0.00  0.00    +0.000 N 
ATOM     17  C   UNL     1       7.137   4.647  17.203  0.00  0.00    +0.000 C 
ATOM     18  O   UNL     1       8.250   4.127  17.146  0.00  0.00    +0.000 OA
ATOM     19  H   UNL     1       5.451   5.292  16.206  0.00  0.00    +0.000 HD
BRANCH  16  20
ATOM     20  C   UNL     1       6.829   4.548  14.742  0.00  0.00    +0.000 C 
BRANCH  20  21
ATOM     21  C   UNL     1       5.858   3.611  14.020  0.00  0.00    +0.000 C 
BRANCH  21  22
ATOM     22  C   UNL     1       5.740   3.947  12.530  0.00  0.00    +0.000 C 
BRANCH  22  24
ATOM     23  C   UNL     1       3.929   3.195  10.952  0.00  0.00    +0.000 C 
ATOM     24  C   UNL     1       5.174   2.780  11.721  0.00  0.00    +0.000 C 
ENDBRANCH  22  24
ENDBRANCH  21  22
ENDBRANCH  20  21
ENDBRANCH  16  20
ENDBRANCH  14  17
ENDBRANCH   1  14
TORSDOF 9
ENDMDL
MODEL 5
REMARK VINA RESULT:      -6.8      3.610      6.590
REMARK  Name = 
REMARK  12 active torsions:
REMARK  status: ('A' for Active; 'I' for Inactive)
REMARK    1  A    between atoms: C_1  and  C_2
REMARK    2  A    between atoms: C_2  and  C_3
REMARK    3  A    between atoms: C_3  and  C_4
REMARK    4  A    between atoms: C_4  and  C_5
REMARK    5  A    between atoms: C_5  and  N_6
REMARK    6  A    between atoms: C_7  and  C_9
REMARK    7  A    between atoms: C_9  and  C_10
REMARK    8  A    between atoms: C_9  and  N_11
REMARK    9  A    between atoms: N_11  and  S_12
REMARK   10  A    between atoms: S_12  and  C_15
REMARK   11  A    between atoms: C_18  and  O_19
REMARK   12  A    between atoms: O_19  and  C_20
REMARK                            x       y       z     vdW  Elec       q    Type
REMARK                         _______ _______ _______ _____ _____    ______ ____
ROOT
ATOM      1  N   UNL     1       2.558   3.082  19.490  0.00  0.00    +0.000 NA
ATOM      2  H   UNL     1       2.043   3.498  18.716  0.00  0.00    +0.000 HD
ENDROOT
BRANCH   1   3
ATOM      3  S   UNL     1       4.032   2.452  18.912  0.00  0.00    +0.000 S 
ATOM      4  O   UNL     1       4.779   2.065  20.082  0.00  0.00    +0.000 OA
ATOM      5  O   UNL     1       3.727   1.511  17.855  0.00  0.00    +0.000 OA
BRANCH   3   6
ATOM      6  C   UNL     1       4.832   3.879  18.205  0.00  0.00    +0.000 A 
ATOM      7  C   UNL     1       5.763   4.596  18.956  0.00  0.00    +0.000 A 
ATOM      8  C   UNL     1       6.317   5.763  18.413  0.00  0.00    +0.000 A 
ATOM      9  C   UNL     1       5.962   6.202  17.132  0.00  0.00    +0.000 A 
ATOM     10  C   UNL     1       5.032   5.477  16.389  0.00  0.00    +0.000 A 
ATOM     11  C   UNL     1       4.481   4.306  16.919  0.00  0.00    +0.000 A 
BRANCH   9  12
ATOM     12  O   UNL     1       6.547   7.375  16.739  0.00  0.00    +0.000 OA
ATOM     13  C   UNL     1       7.654   7.813  17.523  0.00  0.00    +0.000 C 
ENDBRANCH   9  12
ENDBRANCH   3   6
ENDBRANCH   1   3
BRANCH   1  14
ATOM     14  C   UNL     1       2.625   3.945  20.712  0.00  0.00    +0.000 C 
ATOM     15  C   UNL     1       1.984   3.262  21.913  0.00  0.00    +0.000 C 
BRANCH  14  17
ATOM     16  N   UNL     1       2.724   6.306  20.008  0.00  0.00    +0.000 N 
ATOM     17  C   UNL     1       1.913   5.278  20.452  0.00  0.00    +0.000 C 
ATOM     18  O   UNL     1       0.696   5.402  20.575  0.00  0.00    +0.000 OA
ATOM     19  H   UNL     1       3.724   6.144  19.982  0.00  0.00    +0.000 HD
BRANCH  16  20
ATOM     20  C   UNL     1       2.200   7.624  19.695  0.00  0.00    +0.000 C 
BRANCH  20  21
ATOM     21  C   UNL     1       2.021   7.852  18.192  0.00  0.00    +0.000 C 
BRANCH  21  22
ATOM     22  C   UNL     1       2.223   9.322  17.808  0.00  0.00    +0.000 C 
BRANCH  22  24
ATOM     23  C   UNL     1      -0.231   9.842  18.018  0.00  0.00    +0.000 C 
ATOM     24  C   UNL     1       1.174  10.232  18.448  0.00  0.00    +0.000 C 
ENDBRANCH  22  24
ENDBRANCH  21  22
ENDBRANCH  20  21
ENDBRANCH  16  20
ENDBRANCH  14  17
ENDBRANCH   1  14
TORSDOF 9
ENDMDL
MODEL 6
REMARK VINA RESULT:      -6.8      2.316      3.139
REMARK  Name = 
REMARK  12 active torsions:
REMARK  status: ('A' for Active; 'I' for Inactive)
REMARK    1  A    between atoms: C_1  and  C_2
REMARK    2  A    between atoms: C_2  and  C_3
REMARK    3  A    between atoms: C_3  and  C_4
REMARK    4  A    between atoms: C_4  and  C_5
REMARK    5  A    between atoms: C_5  and  N_6
REMARK    6  A    between atoms: C_7  and  C_9
REMARK    7  A    between atoms: C_9  and  C_10
REMARK    8  A    between atoms: C_9  and  N_11
REMARK    9  A    between atoms: N_11  and  S_12
REMARK   10  A    between atoms: S_12  and  C_15
REMARK   11  A    between atoms: C_18  and  O_19
REMARK   12  A    between atoms: O_19  and  C_20
REMARK                            x       y       z     vdW  Elec       q    Type
REMARK                         _______ _______ _______ _____ _____    ______ ____
ROOT
ATOM      1  N   UNL     1       7.035   4.558  16.970  0.00  0.00    +0.000 NA
ATOM      2  H   UNL     1       8.026   4.494  16.742  0.00  0.00    +0.000 HD
ENDROOT
BRANCH   1   3
ATOM      3  S   UNL     1       6.848   5.372  18.455  0.00  0.00    +0.000 S 
ATOM      4  O   UNL     1       7.920   4.905  19.296  0.00  0.00    +0.000 OA
ATOM      5  O   UNL     1       6.661   6.779  18.167  0.00  0.00    +0.000 OA
BRANCH   3   6
ATOM      6  C   UNL     1       5.325   4.702  19.093  0.00  0.00    +0.000 A 
ATOM      7  C   UNL     1       5.179   3.323  19.236  0.00  0.00    +0.000 A 
ATOM      8  C   UNL     1       3.945   2.812  19.659  0.00  0.00    +0.000 A 
ATOM      9  C   UNL     1       2.874   3.664  19.953  0.00  0.00    +0.000 A 
ATOM     10  C   UNL     1       3.031   5.042  19.809  0.00  0.00    +0.000 A 
ATOM     11  C   UNL     1       4.262   5.561  19.396  0.00  0.00    +0.000 A 
BRANCH   9  12
ATOM     12  O   UNL     1       1.715   3.034  20.318  0.00  0.00    +0.000 OA
ATOM     13  C   UNL     1       1.563   2.765  21.709  0.00  0.00    +0.000 C 
ENDBRANCH   9  12
ENDBRANCH   3   6
ENDBRANCH   1   3
BRANCH   1  14
ATOM     14  C   UNL     1       6.178   5.023  15.833  0.00  0.00    +0.000 C 
ATOM     15  C   UNL     1       4.891   4.213  15.737  0.00  0.00    +0.000 C 
BRANCH  14  17
ATOM     16  N   UNL     1       6.389   4.051  13.576  0.00  0.00    +0.000 N 
ATOM     17  C   UNL     1       6.948   4.901  14.512  0.00  0.00    +0.000 C 
ATOM     18  O   UNL     1       7.960   5.562  14.284  0.00  0.00    +0.000 OA
ATOM     19  H   UNL     1       5.585   3.501  13.855  0.00  0.00    +0.000 HD
BRANCH  16  20
ATOM     20  C   UNL     1       6.983   3.843  12.267  0.00  0.00    +0.000 C 
BRANCH  20  21
ATOM     21  C   UNL     1       6.806   2.413  11.752  0.00  0.00    +0.000 C 
BRANCH  21  22
ATOM     22  C   UNL     1       5.356   2.124  11.353  0.00  0.00    +0.000 C 
BRANCH  22  24
ATOM     23  C   UNL     1       3.186   3.143  10.586  0.00  0.00    +0.000 C 
ATOM     24  C   UNL     1       4.515   3.398  11.279  0.00  0.00    +0.000 C 
ENDBRANCH  22  24
ENDBRANCH  21  22
ENDBRANCH  20  21
ENDBRANCH  16  20
ENDBRANCH  14  17
ENDBRANCH   1  14
TORSDOF 9
ENDMDL
MODEL 7
REMARK VINA RESULT:      -6.8      3.455      7.989
REMARK  Name = 
REMARK  12 active torsions:
REMARK  status: ('A' for Active; 'I' for Inactive)
REMARK    1  A    between atoms: C_1  and  C_2
REMARK    2  A    between atoms: C_2  and  C_3
REMARK    3  A    between atoms: C_3  and  C_4
REMARK    4  A    between atoms: C_4  and  C_5
REMARK    5  A    between atoms: C_5  and  N_6
REMARK    6  A    between atoms: C_7  and  C_9
REMARK    7  A    between atoms: C_9  and  C_10
REMARK    8  A    between atoms: C_9  and  N_11
REMARK    9  A    between atoms: N_11  and  S_12
REMARK   10  A    between atoms: S_12  and  C_15
REMARK   11  A    between atoms: C_18  and  O_19
REMARK   12  A    between atoms: O_19  and  C_20
REMARK                            x       y       z     vdW  Elec       q    Type
REMARK                         _______ _______ _______ _____ _____    ______ ____
ROOT
ATOM      1  N   UNL     1       2.665   4.179  18.789  0.00  0.00    +0.000 NA
ATOM      2  H   UNL     1       2.548   4.808  17.997  0.00  0.00    +0.000 HD
ENDROOT
BRANCH   1   3
ATOM      3  S   UNL     1       4.080   3.256  18.574  0.00  0.00    +0.000 S 
ATOM      4  O   UNL     1       4.489   2.848  19.894  0.00  0.00    +0.000 OA
ATOM      5  O   UNL     1       3.824   2.292  17.523  0.00  0.00    +0.000 OA
BRANCH   3   6
ATOM      6  C   UNL     1       5.260   4.454  17.985  0.00  0.00    +0.000 A 
ATOM      7  C   UNL     1       6.222   4.966  18.855  0.00  0.00    +0.000 A 
ATOM      8  C   UNL     1       7.085   5.970  18.396  0.00  0.00    +0.000 A 
ATOM      9  C   UNL     1       7.003   6.447  17.082  0.00  0.00    +0.000 A 
ATOM     10  C   UNL     1       6.039   5.927  16.220  0.00  0.00    +0.000 A 
ATOM     11  C   UNL     1       5.180   4.919  16.667  0.00  0.00    +0.000 A 
BRANCH   9  12
ATOM     12  O   UNL     1       7.879   7.453  16.776  0.00  0.00    +0.000 OA
ATOM     13  C   UNL     1       7.954   8.522  17.716  0.00  0.00    +0.000 C 
ENDBRANCH   9  12
ENDBRANCH   3   6
ENDBRANCH   1   3
BRANCH   1  14
ATOM     14  C   UNL     1       2.485   4.837  20.122  0.00  0.00    +0.000 C 
ATOM     15  C   UNL     1       1.293   4.259  20.873  0.00  0.00    +0.000 C 
BRANCH  14  17
ATOM     16  N   UNL     1       1.567   6.974  20.943  0.00  0.00    +0.000 N 
ATOM     17  C   UNL     1       2.280   6.346  19.939  0.00  0.00    +0.000 C 
ATOM     18  O   UNL     1       2.770   6.960  18.992  0.00  0.00    +0.000 OA
ATOM     19  H   UNL     1       1.151   6.394  21.663  0.00  0.00    +0.000 HD
BRANCH  16  20
ATOM     20  C   UNL     1       1.307   8.403  20.929  0.00  0.00    +0.000 C 
BRANCH  20  21
ATOM     21  C   UNL     1       1.510   9.058  22.298  0.00  0.00    +0.000 C 
BRANCH  21  22
ATOM     22  C   UNL     1       0.177   9.416  22.964  0.00  0.00    +0.000 C 
BRANCH  22  24
ATOM     23  C   UNL     1      -1.101  11.582  22.863  0.00  0.00    +0.000 C 
ATOM     24  C   UNL     1      -0.670  10.343  22.093  0.00  0.00    +0.000 C 
ENDBRANCH  22  24
ENDBRANCH  21  22
ENDBRANCH  20  21
ENDBRANCH  16  20
ENDBRANCH  14  17
ENDBRANCH   1  14
TORSDOF 9
ENDMDL
MODEL 8
REMARK VINA RESULT:      -6.7      2.233      2.960
REMARK  Name = 
REMARK  12 active torsions:
REMARK  status: ('A' for Active; 'I' for Inactive)
REMARK    1  A    between atoms: C_1  and  C_2
REMARK    2  A    between atoms: C_2  and  C_3
REMARK    3  A    between atoms: C_3  and  C_4
REMARK    4  A    between atoms: C_4  and  C_5
REMARK    5  A    between atoms: C_5  and  N_6
REMARK    6  A    between atoms: C_7  and  C_9
REMARK    7  A    between atoms: C_9  and  C_10
REMARK    8  A    between atoms: C_9  and  N_11
REMARK    9  A    between atoms: N_11  and  S_12
REMARK   10  A    between atoms: S_12  and  C_15
REMARK   11  A    between atoms: C_18  and  O_19
REMARK   12  A    between atoms: O_19  and  C_20
REMARK                            x       y       z     vdW  Elec       q    Type
REMARK                         _______ _______ _______ _____ _____    ______ ____
ROOT
ATOM      1  N   UNL     1       6.765   6.090  15.500  0.00  0.00    +0.000 NA
ATOM      2  H   UNL     1       5.778   6.326  15.415  0.00  0.00    +0.000 HD
ENDROOT
BRANCH   1   3
ATOM      3  S   UNL     1       7.172   5.950  17.149  0.00  0.00    +0.000 S 
ATOM      4  O   UNL     1       7.860   4.691  17.279  0.00  0.00    +0.000 OA
ATOM      5  O   UNL     1       7.780   7.198  17.561  0.00  0.00    +0.000 OA
BRANCH   3   6
ATOM      6  C   UNL     1       5.586   5.787  17.944  0.00  0.00    +0.000 A 
ATOM      7  C   UNL     1       5.443   4.934  19.038  0.00  0.00    +0.000 A 
ATOM      8  C   UNL     1       4.170   4.755  19.595  0.00  0.00    +0.000 A 
ATOM      9  C   UNL     1       3.056   5.430  19.082  0.00  0.00    +0.000 A 
ATOM     10  C   UNL     1       3.211   6.282  17.990  0.00  0.00    +0.000 A 
ATOM     11  C   UNL     1       4.479   6.474  17.433  0.00  0.00    +0.000 A 
BRANCH   9  12
ATOM     12  O   UNL     1       1.868   5.136  19.694  0.00  0.00    +0.000 OA
ATOM     13  C   UNL     1       1.959   4.648  21.030  0.00  0.00    +0.000 C 
ENDBRANCH   9  12
ENDBRANCH   3   6
ENDBRANCH   1   3
BRANCH   1  14
ATOM     14  C   UNL     1       7.206   4.978  14.600  0.00  0.00    +0.000 C 
ATOM     15  C   UNL     1       8.005   5.503  13.414  0.00  0.00    +0.000 C 
BRANCH  14  17
ATOM     16  N   UNL     1       6.179   3.514  12.902  0.00  0.00    +0.000 N 
ATOM     17  C   UNL     1       5.985   4.207  14.082  0.00  0.00    +0.000 C 
ATOM     18  O   UNL     1       4.928   4.163  14.708  0.00  0.00    +0.000 OA
ATOM     19  H   UNL     1       7.060   3.639  12.416  0.00  0.00    +0.000 HD
BRANCH  16  20
ATOM     20  C   UNL     1       5.130   2.716  12.292  0.00  0.00    +0.000 C 
BRANCH  20  21
ATOM     21  C   UNL     1       4.819   3.139  10.854  0.00  0.00    +0.000 C 
BRANCH  21  22
ATOM     22  C   UNL     1       3.425   3.763  10.730  0.00  0.00    +0.000 C 
BRANCH  22  24
ATOM     23  C   UNL     1       1.974   5.140   9.202  0.00  0.00    +0.000 C 
ATOM     24  C   UNL     1       3.067   4.085   9.279  0.00  0.00    +0.000 C 
ENDBRANCH  22  24
ENDBRANCH  21  22
ENDBRANCH  20  21
ENDBRANCH  16  20
ENDBRANCH  14  17
ENDBRANCH   1  14
TORSDOF 9
ENDMDL
MODEL 9
REMARK VINA RESULT:      -6.6      2.512      6.884
REMARK  Name = 
REMARK  12 active torsions:
REMARK  status: ('A' for Active; 'I' for Inactive)
REMARK    1  A    between atoms: C_1  and  C_2
REMARK    2  A    between atoms: C_2  and  C_3
REMARK    3  A    between atoms: C_3  and  C_4
REMARK    4  A    between atoms: C_4  and  C_5
REMARK    5  A    between atoms: C_5  and  N_6
REMARK    6  A    between atoms: C_7  and  C_9
REMARK    7  A    between atoms: C_9  and  C_10
REMARK    8  A    between atoms: C_9  and  N_11
REMARK    9  A    between atoms: N_11  and  S_12
REMARK   10  A    between atoms: S_12  and  C_15
REMARK   11  A    between atoms: C_18  and  O_19
REMARK   12  A    between atoms: O_19  and  C_20
REMARK                            x       y       z     vdW  Elec       q    Type
REMARK                         _______ _______ _______ _____ _____    ______ ____
ROOT
ATOM      1  N   UNL     1       4.404   5.714  19.257  0.00  0.00    +0.000 NA
ATOM      2  H   UNL     1       3.841   5.387  20.041  0.00  0.00    +0.000 HD
ENDROOT
BRANCH   1   3
ATOM      3  S   UNL     1       5.791   4.736  19.110  0.00  0.00    +0.000 S 
ATOM      4  O   UNL     1       6.845   5.444  19.790  0.00  0.00    +0.000 OA
ATOM      5  O   UNL     1       5.420   3.385  19.477  0.00  0.00    +0.000 OA
BRANCH   3   6
ATOM      6  C   UNL     1       6.140   4.788  17.364  0.00  0.00    +0.000 A 
ATOM      7  C   UNL     1       5.744   3.730  16.545  0.00  0.00    +0.000 A 
ATOM      8  C   UNL     1       6.103   3.751  15.191  0.00  0.00    +0.000 A 
ATOM      9  C   UNL     1       6.832   4.818  14.653  0.00  0.00    +0.000 A 
ATOM     10  C   UNL     1       7.220   5.871  15.480  0.00  0.00    +0.000 A 
ATOM     11  C   UNL     1       6.859   5.864  16.830  0.00  0.00    +0.000 A 
BRANCH   9  12
ATOM     12  O   UNL     1       7.148   4.694  13.328  0.00  0.00    +0.000 OA
ATOM     13  C   UNL     1       6.434   3.694  12.608  0.00  0.00    +0.000 C 
ENDBRANCH   9  12
ENDBRANCH   3   6
ENDBRANCH   1   3
BRANCH   1  14
ATOM     14  C   UNL     1       3.619   5.963  18.006  0.00  0.00    +0.000 C 
ATOM     15  C   UNL     1       3.001   7.356  18.004  0.00  0.00    +0.000 C 
BRANCH  14  17
ATOM     16  N   UNL     1       2.907   3.602  17.994  0.00  0.00    +0.000 N 
ATOM     17  C   UNL     1       2.504   4.919  17.869  0.00  0.00    +0.000 C 
ATOM     18  O   UNL     1       1.326   5.238  17.719  0.00  0.00    +0.000 OA
ATOM     19  H   UNL     1       3.901   3.415  18.064  0.00  0.00    +0.000 HD
BRANCH  16  20
ATOM     20  C   UNL     1       1.970   2.496  17.912  0.00  0.00    +0.000 C 
BRANCH  20  21
ATOM     21  C   UNL     1       1.704   1.838  19.269  0.00  0.00    +0.000 C 
BRANCH  21  22
ATOM     22  C   UNL     1       0.883   2.743  20.192  0.00  0.00    +0.000 C 
BRANCH  22  24
ATOM     23  C   UNL     1       2.358   4.237  21.581  0.00  0.00    +0.000 C 
ATOM     24  C   UNL     1       1.557   2.944  21.549  0.00  0.00    +0.000 C 
ENDBRANCH  22  24
ENDBRANCH  21  22
ENDBRANCH  20  21
ENDBRANCH  16  20
ENDBRANCH  14  17
ENDBRANCH   1  14
TORSDOF 9
ENDMDL
