MODEL 1
REMARK VINA RESULT:      -7.9      0.000      0.000
REMARK  Name = 
REMARK  6 active torsions:
REMARK  status: ('A' for Active; 'I' for Inactive)
REMARK    1  A    between atoms: C_1  and  O_2
REMARK    2  A    between atoms: O_2  and  C_3
REMARK    3  A    between atoms: C_8  and  N_9
REMARK    4  A    between atoms: N_9  and  C_10
REMARK    5  A    between atoms: C_14  and  C_15
REMARK    6  A    between atoms: C_20  and  C_21
REMARK                            x       y       z     vdW  Elec       q    Type
REMARK                         _______ _______ _______ _____ _____    ______ ____
ROOT
ATOM      1  C   UNL     1       3.476   4.906  18.759  0.00  0.00    +0.000 A 
ATOM      2  N   UNL     1       3.569   6.211  18.442  0.00  0.00    +0.000 NA
ATOM      3  C   UNL     1       2.754   7.070  19.053  0.00  0.00    +0.000 A 
ATOM      4  C   UNL     1       2.344   8.213  18.378  0.00  0.00    +0.000 A 
ATOM      5  C   UNL     1       1.323   8.994  18.907  0.00  0.00    +0.000 A 
ATOM      6  C   UNL     1       0.487   9.824  17.978  0.00  0.00    +0.000 C 
ATOM      7  C   UNL     1       0.981   8.866  20.255  0.00  0.00    +0.000 A 
ATOM      8  C   UNL     1       1.397   7.734  20.952  0.00  0.00    +0.000 A 
ATOM      9  C   UNL     1       2.112   6.752  20.254  0.00  0.00    +0.000 A 
ATOM     10  C   UNL     1       2.001   5.393  20.558  0.00  0.00    +0.000 A 
ATOM     11  C   UNL     1       2.438   4.487  19.581  0.00  0.00    +0.000 A 
ENDROOT
BRANCH   1  12
ATOM     12  N   UNL     1       4.408   3.972  18.230  0.00  0.00    +0.000 N 
ATOM     13  H   UNL     1       4.961   3.558  18.981  0.00  0.00    +0.000 HD
BRANCH  12  19
ATOM     14  C   UNL     1       6.646   4.537  17.337  0.00  0.00    +0.000 A 
ATOM     15  C   UNL     1       7.481   4.766  16.233  0.00  0.00    +0.000 A 
ATOM     16  C   UNL     1       6.974   4.714  14.933  0.00  0.00    +0.000 A 
ATOM     17  C   UNL     1       5.640   4.400  14.721  0.00  0.00    +0.000 A 
ATOM     18  C   UNL     1       4.812   4.132  15.809  0.00  0.00    +0.000 A 
ATOM     19  C   UNL     1       5.281   4.229  17.129  0.00  0.00    +0.000 A 
BRANCH  14  21
ATOM     20  C   UNL     1       7.652   5.836  19.056  0.00  0.00    +0.000 C 
ATOM     21  O   UNL     1       7.073   4.596  18.646  0.00  0.00    +0.000 OA
ENDBRANCH  14  21
ENDBRANCH  12  19
ENDBRANCH   1  12
BRANCH  11  22
ATOM     22  C   UNL     1       1.363   3.753  18.915  0.00  0.00    +0.000 C 
ATOM     23  N   UNL     1       0.631   3.079  18.328  0.00  0.00    +0.000 NA
ENDBRANCH  11  22
TORSDOF 4
ENDMDL
MODEL 2
REMARK VINA RESULT:      -7.4      2.512      6.302
REMARK  Name = 
REMARK  6 active torsions:
REMARK  status: ('A' for Active; 'I' for Inactive)
REMARK    1  A    between atoms: C_1  and  O_2
REMARK    2  A    between atoms: O_2  and  C_3
REMARK    3  A    between atoms: C_8  and  N_9
REMARK    4  A    between atoms: N_9  and  C_10
REMARK    5  A    between atoms: C_14  and  C_15
REMARK    6  A    between atoms: C_20  and  C_21
REMARK                            x       y       z     vdW  Elec       q    Type
REMARK                         _______ _______ _______ _____ _____    ______ ____
ROOT
ATOM      1  C   UNL     1       5.357   4.878  18.106  0.00  0.00    +0.000 A 
ATOM      2  N   UNL     1       5.516   3.878  17.219  0.00  0.00    +0.000 NA
ATOM      3  C   UNL     1       6.052   4.162  16.033  0.00  0.00    +0.000 A 
ATOM      4  C   UNL     1       5.672   3.419  14.921  0.00  0.00    +0.000 A 
ATOM      5  C   UNL     1       6.041   3.848  13.651  0.00  0.00    +0.000 A 
ATOM      6  C   UNL     1       5.194   3.454  12.478  0.00  0.00    +0.000 C 
ATOM      7  C   UNL     1       7.083   4.767  13.506  0.00  0.00    +0.000 A 
ATOM      8  C   UNL     1       7.488   5.509  14.613  0.00  0.00    +0.000 A 
ATOM      9  C   UNL     1       6.802   5.323  15.821  0.00  0.00    +0.000 A 
ATOM     10  C   UNL     1       6.609   6.363  16.734  0.00  0.00    +0.000 A 
ATOM     11  C   UNL     1       5.606   6.182  17.697  0.00  0.00    +0.000 A 
ENDROOT
BRANCH   1  12
ATOM     12  N   UNL     1       4.911   4.602  19.426  0.00  0.00    +0.000 N 
ATOM     13  H   UNL     1       5.525   3.922  19.875  0.00  0.00    +0.000 HD
BRANCH  12  19
ATOM     14  C   UNL     1       3.130   2.935  19.848  0.00  0.00    +0.000 A 
ATOM     15  C   UNL     1       1.806   2.651  20.214  0.00  0.00    +0.000 A 
ATOM     16  C   UNL     1       0.906   3.683  20.490  0.00  0.00    +0.000 A 
ATOM     17  C   UNL     1       1.328   5.003  20.435  0.00  0.00    +0.000 A 
ATOM     18  C   UNL     1       2.651   5.293  20.111  0.00  0.00    +0.000 A 
ATOM     19  C   UNL     1       3.564   4.280  19.778  0.00  0.00    +0.000 A 
BRANCH  14  21
ATOM     20  C   UNL     1       3.762   1.151  18.408  0.00  0.00    +0.000 C 
ATOM     21  O   UNL     1       4.063   1.969  19.540  0.00  0.00    +0.000 OA
ENDBRANCH  14  21
ENDBRANCH  12  19
ENDBRANCH   1  12
BRANCH  11  22
ATOM     22  C   UNL     1       4.422   7.017  17.498  0.00  0.00    +0.000 C 
ATOM     23  N   UNL     1       3.456   7.651  17.499  0.00  0.00    +0.000 NA
ENDBRANCH  11  22
TORSDOF 4
ENDMDL
MODEL 3
REMARK VINA RESULT:      -7.3      1.619      2.615
REMARK  Name = 
REMARK  6 active torsions:
REMARK  status: ('A' for Active; 'I' for Inactive)
REMARK    1  A    between atoms: C_1  and  O_2
REMARK    2  A    between atoms: O_2  and  C_3
REMARK    3  A    between atoms: C_8  and  N_9
REMARK    4  A    between atoms: N_9  and  C_10
REMARK    5  A    between atoms: C_14  and  C_15
REMARK    6  A    between atoms: C_20  and  C_21
REMARK                            x       y       z     vdW  Elec       q    Type
REMARK                         _______ _______ _______ _____ _____    ______ ____
ROOT
ATOM      1  C   UNL     1       3.384   7.195  17.567  0.00  0.00    +0.000 A 
ATOM      2  N   UNL     1       2.863   8.436  17.530  0.00  0.00    +0.000 NA
ATOM      3  C   UNL     1       1.988   8.784  18.472  0.00  0.00    +0.000 A 
ATOM      4  C   UNL     1       0.988   9.699  18.165  0.00  0.00    +0.000 A 
ATOM      5  C   UNL     1      -0.060   9.895  19.057  0.00  0.00    +0.000 A 
ATOM      6  C   UNL     1      -1.382  10.372  18.531  0.00  0.00    +0.000 C 
ATOM      7  C   UNL     1       0.077   9.489  20.386  0.00  0.00    +0.000 A 
ATOM      8  C   UNL     1       1.083   8.584  20.715  0.00  0.00    +0.000 A 
ATOM      9  C   UNL     1       1.894   8.092  19.684  0.00  0.00    +0.000 A 
ATOM     10  C   UNL     1       2.417   6.796  19.701  0.00  0.00    +0.000 A 
ATOM     11  C   UNL     1       2.876   6.282  18.481  0.00  0.00    +0.000 A 
ENDROOT
BRANCH   1  12
ATOM     12  N   UNL     1       4.414   6.823  16.662  0.00  0.00    +0.000 N 
ATOM     13  H   UNL     1       4.015   6.415  15.816  0.00  0.00    +0.000 HD
BRANCH  12  19
ATOM     14  C   UNL     1       6.037   5.016  16.183  0.00  0.00    +0.000 A 
ATOM     15  C   UNL     1       7.187   4.299  16.549  0.00  0.00    +0.000 A 
ATOM     16  C   UNL     1       7.860   4.590  17.737  0.00  0.00    +0.000 A 
ATOM     17  C   UNL     1       7.415   5.621  18.551  0.00  0.00    +0.000 A 
ATOM     18  C   UNL     1       6.298   6.365  18.176  0.00  0.00    +0.000 A 
ATOM     19  C   UNL     1       5.571   6.060  17.015  0.00  0.00    +0.000 A 
BRANCH  14  21
ATOM     20  C   UNL     1       5.997   4.051  14.010  0.00  0.00    +0.000 C 
ATOM     21  O   UNL     1       5.311   4.766  15.039  0.00  0.00    +0.000 OA
ENDBRANCH  14  21
ENDBRANCH  12  19
ENDBRANCH   1  12
BRANCH  11  22
ATOM     22  C   UNL     1       2.033   5.228  17.916  0.00  0.00    +0.000 C 
ATOM     23  N   UNL     1       1.422   4.303  17.591  0.00  0.00    +0.000 NA
ENDBRANCH  11  22
TORSDOF 4
ENDMDL
MODEL 4
REMARK VINA RESULT:      -7.2      2.503      6.402
REMARK  Name = 
REMARK  6 active torsions:
REMARK  status: ('A' for Active; 'I' for Inactive)
REMARK    1  A    between atoms: C_1  and  O_2
REMARK    2  A    between atoms: O_2  and  C_3
REMARK    3  A    between atoms: C_8  and  N_9
REMARK    4  A    between atoms: N_9  and  C_10
REMARK    5  A    between atoms: C_14  and  C_15
REMARK    6  A    between atoms: C_20  and  C_21
REMARK                            x       y       z     vdW  Elec       q    Type
REMARK                         _______ _______ _______ _____ _____    ______ ____
ROOT
ATOM      1  C   UNL     1       2.273   6.389  19.946  0.00  0.00    +0.000 A 
ATOM      2  N   UNL     1       3.341   6.732  19.201  0.00  0.00    +0.000 NA
ATOM      3  C   UNL     1       3.836   5.832  18.352  0.00  0.00    +0.000 A 
ATOM      4  C   UNL     1       5.197   5.845  18.068  0.00  0.00    +0.000 A 
ATOM      5  C   UNL     1       5.762   4.781  17.374  0.00  0.00    +0.000 A 
ATOM      6  C   UNL     1       7.217   4.475  17.573  0.00  0.00    +0.000 C 
ATOM      7  C   UNL     1       4.943   3.919  16.641  0.00  0.00    +0.000 A 
ATOM      8  C   UNL     1       3.575   3.905  16.901  0.00  0.00    +0.000 A 
ATOM      9  C   UNL     1       3.085   4.736  17.917  0.00  0.00    +0.000 A 
ATOM     10  C   UNL     1       1.995   4.375  18.713  0.00  0.00    +0.000 A 
ATOM     11  C   UNL     1       1.832   5.072  19.918  0.00  0.00    +0.000 A 
ENDROOT
BRANCH   1  12
ATOM     12  N   UNL     1       1.633   7.354  20.769  0.00  0.00    +0.000 N 
ATOM     13  H   UNL     1       0.804   6.953  21.208  0.00  0.00    +0.000 HD
BRANCH  12  19
ATOM     14  C   UNL     1       1.078   9.703  21.319  0.00  0.00    +0.000 A 
ATOM     15  C   UNL     1       0.788  11.006  20.887  0.00  0.00    +0.000 A 
ATOM     16  C   UNL     1       0.710  11.306  19.526  0.00  0.00    +0.000 A 
ATOM     17  C   UNL     1       0.955  10.317  18.584  0.00  0.00    +0.000 A 
ATOM     18  C   UNL     1       1.283   9.030  19.002  0.00  0.00    +0.000 A 
ATOM     19  C   UNL     1       1.316   8.687  20.363  0.00  0.00    +0.000 A 
BRANCH  14  21
ATOM     20  C   UNL     1      -0.052   9.504  23.401  0.00  0.00    +0.000 C 
ATOM     21  O   UNL     1       1.147   9.332  22.644  0.00  0.00    +0.000 OA
ENDBRANCH  14  21
ENDBRANCH  12  19
ENDBRANCH   1  12
BRANCH  11  22
ATOM     22  C   UNL     1       2.126   4.284  21.115  0.00  0.00    +0.000 C 
ATOM     23  N   UNL     1       2.317   3.533  21.971  0.00  0.00    +0.000 NA
ENDBRANCH  11  22
TORSDOF 4
ENDMDL
MODEL 5
REMARK VINA RESULT:      -7.0      2.100      6.375
REMARK  Name = 
REMARK  6 active torsions:
REMARK  status: ('A' for Active; 'I' for Inactive)
REMARK    1  A    between atoms: C_1  and  O_2
REMARK    2  A    between atoms: O_2  and  C_3
REMARK    3  A    between atoms: C_8  and  N_9
REMARK    4  A    between atoms: N_9  and  C_10
REMARK    5  A    between atoms: C_14  and  C_15
REMARK    6  A    between atoms: C_20  and  C_21
REMARK                            x       y       z     vdW  Elec       q    Type
REMARK                         _______ _______ _______ _____ _____    ______ ____
ROOT
ATOM      1  C   UNL     1       5.301   4.543  17.714  0.00  0.00    +0.000 A 
ATOM      2  N   UNL     1       5.367   3.592  16.763  0.00  0.00    +0.000 NA
ATOM      3  C   UNL     1       5.935   3.901  15.598  0.00  0.00    +0.000 A 
ATOM      4  C   UNL     1       5.492   3.274  14.440  0.00  0.00    +0.000 A 
ATOM      5  C   UNL     1       5.909   3.747  13.201  0.00  0.00    +0.000 A 
ATOM      6  C   UNL     1       5.035   3.517  12.004  0.00  0.00    +0.000 C 
ATOM      7  C   UNL     1       7.036   4.567  13.117  0.00  0.00    +0.000 A 
ATOM      8  C   UNL     1       7.504   5.191  14.270  0.00  0.00    +0.000 A 
ATOM      9  C   UNL     1       6.796   4.994  15.464  0.00  0.00    +0.000 A 
ATOM     10  C   UNL     1       6.700   5.985  16.444  0.00  0.00    +0.000 A 
ATOM     11  C   UNL     1       5.678   5.840  17.393  0.00  0.00    +0.000 A 
ENDROOT
BRANCH   1  12
ATOM     12  N   UNL     1       4.821   4.225  19.014  0.00  0.00    +0.000 N 
ATOM     13  H   UNL     1       5.466   3.591  19.486  0.00  0.00    +0.000 HD
BRANCH  12  19
ATOM     14  C   UNL     1       2.548   4.686  19.879  0.00  0.00    +0.000 A 
ATOM     15  C   UNL     1       1.243   4.240  20.137  0.00  0.00    +0.000 A 
ATOM     16  C   UNL     1       0.870   2.925  19.856  0.00  0.00    +0.000 A 
ATOM     17  C   UNL     1       1.784   2.052  19.283  0.00  0.00    +0.000 A 
ATOM     18  C   UNL     1       3.071   2.497  18.986  0.00  0.00    +0.000 A 
ATOM     19  C   UNL     1       3.489   3.798  19.306  0.00  0.00    +0.000 A 
BRANCH  14  21
ATOM     20  C   UNL     1       1.980   6.969  20.219  0.00  0.00    +0.000 C 
ATOM     21  O   UNL     1       2.991   5.962  20.153  0.00  0.00    +0.000 OA
ENDBRANCH  14  21
ENDBRANCH  12  19
ENDBRANCH   1  12
BRANCH  11  22
ATOM     22  C   UNL     1       4.582   6.798  17.251  0.00  0.00    +0.000 C 
ATOM     23  N   UNL     1       3.794   7.642  17.251  0.00  0.00    +0.000 NA
ENDBRANCH  11  22
TORSDOF 4
ENDMDL
MODEL 6
REMARK VINA RESULT:      -6.9      1.785      2.535
REMARK  Name = 
REMARK  6 active torsions:
REMARK  status: ('A' for Active; 'I' for Inactive)
REMARK    1  A    between atoms: C_1  and  O_2
REMARK    2  A    between atoms: O_2  and  C_3
REMARK    3  A    between atoms: C_8  and  N_9
REMARK    4  A    between atoms: N_9  and  C_10
REMARK    5  A    between atoms: C_14  and  C_15
REMARK    6  A    between atoms: C_20  and  C_21
REMARK                            x       y       z     vdW  Elec       q    Type
REMARK                         _______ _______ _______ _____ _____    ______ ____
ROOT
ATOM      1  C   UNL     1       3.249   7.098  17.835  0.00  0.00    +0.000 A 
ATOM      2  N   UNL     1       2.782   8.347  17.652  0.00  0.00    +0.000 NA
ATOM      3  C   UNL     1       1.849   8.802  18.486  0.00  0.00    +0.000 A 
ATOM      4  C   UNL     1       0.914   9.721  18.023  0.00  0.00    +0.000 A 
ATOM      5  C   UNL     1      -0.194  10.026  18.805  0.00  0.00    +0.000 A 
ATOM      6  C   UNL     1      -1.449  10.499  18.133  0.00  0.00    +0.000 C 
ATOM      7  C   UNL     1      -0.180   9.731  20.170  0.00  0.00    +0.000 A 
ATOM      8  C   UNL     1       0.760   8.826  20.655  0.00  0.00    +0.000 A 
ATOM      9  C   UNL     1       1.631   8.221  19.739  0.00  0.00    +0.000 A 
ATOM     10  C   UNL     1       2.099   6.915  19.908  0.00  0.00    +0.000 A 
ATOM     11  C   UNL     1       2.633   6.283  18.776  0.00  0.00    +0.000 A 
ENDROOT
BRANCH   1  12
ATOM     12  N   UNL     1       4.333   6.615  17.053  0.00  0.00    +0.000 N 
ATOM     13  H   UNL     1       4.043   5.804  16.505  0.00  0.00    +0.000 HD
BRANCH  12  19
ATOM     14  C   UNL     1       6.035   5.065  17.961  0.00  0.00    +0.000 A 
ATOM     15  C   UNL     1       7.340   4.847  18.430  0.00  0.00    +0.000 A 
ATOM     16  C   UNL     1       8.251   5.901  18.518  0.00  0.00    +0.000 A 
ATOM     17  C   UNL     1       7.881   7.173  18.108  0.00  0.00    +0.000 A 
ATOM     18  C   UNL     1       6.601   7.392  17.603  0.00  0.00    +0.000 A 
ATOM     19  C   UNL     1       5.648   6.363  17.553  0.00  0.00    +0.000 A 
BRANCH  14  21
ATOM     20  C   UNL     1       4.780   3.388  19.086  0.00  0.00    +0.000 C 
ATOM     21  O   UNL     1       5.079   4.077  17.871  0.00  0.00    +0.000 OA
ENDBRANCH  14  21
ENDBRANCH  12  19
ENDBRANCH   1  12
BRANCH  11  22
ATOM     22  C   UNL     1       1.798   5.213  18.233  0.00  0.00    +0.000 C 
ATOM     23  N   UNL     1       1.233   4.376  17.672  0.00  0.00    +0.000 NA
ENDBRANCH  11  22
TORSDOF 4
ENDMDL
MODEL 7
REMARK VINA RESULT:      -6.9      2.750      4.621
REMARK  Name = 
REMARK  6 active torsions:
REMARK  status: ('A' for Active; 'I' for Inactive)
REMARK    1  A    between atoms: C_1  and  O_2
REMARK    2  A    between atoms: O_2  and  C_3
REMARK    3  A    between atoms: C_8  and  N_9
REMARK    4  A    between atoms: N_9  and  C_10
REMARK    5  A    between atoms: C_14  and  C_15
REMARK    6  A    between atoms: C_20  and  C_21
REMARK                            x       y       z     vdW  Elec       q    Type
REMARK                         _______ _______ _______ _____ _____    ______ ____
ROOT
ATOM      1  C   UNL     1       4.853   3.896  17.864  0.00  0.00    +0.000 A 
ATOM      2  N   UNL     1       4.609   3.073  18.901  0.00  0.00    +0.000 NA
ATOM      3  C   UNL     1       3.344   2.769  19.183  0.00  0.00    +0.000 A 
ATOM      4  C   UNL     1       2.986   2.507  20.500  0.00  0.00    +0.000 A 
ATOM      5  C   UNL     1       1.641   2.417  20.841  0.00  0.00    +0.000 A 
ATOM      6  C   UNL     1       1.226   2.732  22.248  0.00  0.00    +0.000 C 
ATOM      7  C   UNL     1       0.687   2.203  19.844  0.00  0.00    +0.000 A 
ATOM      8  C   UNL     1       1.032   2.445  18.517  0.00  0.00    +0.000 A 
ATOM      9  C   UNL     1       2.319   2.929  18.245  0.00  0.00    +0.000 A 
ATOM     10  C   UNL     1       2.576   3.806  17.188  0.00  0.00    +0.000 A 
ATOM     11  C   UNL     1       3.783   4.518  17.235  0.00  0.00    +0.000 A 
ENDROOT
BRANCH   1  12
ATOM     12  N   UNL     1       6.188   4.147  17.446  0.00  0.00    +0.000 N 
ATOM     13  H   UNL     1       6.794   3.368  17.704  0.00  0.00    +0.000 HD
BRANCH  12  19
ATOM     14  C   UNL     1       6.997   6.363  16.696  0.00  0.00    +0.000 A 
ATOM     15  C   UNL     1       7.689   7.552  16.974  0.00  0.00    +0.000 A 
ATOM     16  C   UNL     1       8.304   7.746  18.212  0.00  0.00    +0.000 A 
ATOM     17  C   UNL     1       8.204   6.773  19.195  0.00  0.00    +0.000 A 
ATOM     18  C   UNL     1       7.485   5.607  18.943  0.00  0.00    +0.000 A 
ATOM     19  C   UNL     1       6.902   5.361  17.690  0.00  0.00    +0.000 A 
BRANCH  14  21
ATOM     20  C   UNL     1       7.012   5.090  14.688  0.00  0.00    +0.000 C 
ATOM     21  O   UNL     1       6.388   6.095  15.489  0.00  0.00    +0.000 OA
ENDBRANCH  14  21
ENDBRANCH  12  19
ENDBRANCH   1  12
BRANCH  11  22
ATOM     22  C   UNL     1       3.630   5.945  17.516  0.00  0.00    +0.000 C 
ATOM     23  N   UNL     1       3.670   7.080  17.729  0.00  0.00    +0.000 NA
ENDBRANCH  11  22
TORSDOF 4
ENDMDL
MODEL 8
REMARK VINA RESULT:      -6.8      1.670      2.486
REMARK  Name = 
REMARK  6 active torsions:
REMARK  status: ('A' for Active; 'I' for Inactive)
REMARK    1  A    between atoms: C_1  and  O_2
REMARK    2  A    between atoms: O_2  and  C_3
REMARK    3  A    between atoms: C_8  and  N_9
REMARK    4  A    between atoms: N_9  and  C_10
REMARK    5  A    between atoms: C_14  and  C_15
REMARK    6  A    between atoms: C_20  and  C_21
REMARK                            x       y       z     vdW  Elec       q    Type
REMARK                         _______ _______ _______ _____ _____    ______ ____
ROOT
ATOM      1  C   UNL     1       3.011   6.784  19.334  0.00  0.00    +0.000 A 
ATOM      2  N   UNL     1       2.681   7.823  18.544  0.00  0.00    +0.000 NA
ATOM      3  C   UNL     1       1.661   8.598  18.910  0.00  0.00    +0.000 A 
ATOM      4  C   UNL     1       0.892   9.215  17.930  0.00  0.00    +0.000 A 
ATOM      5  C   UNL     1      -0.303   9.831  18.283  0.00  0.00    +0.000 A 
ATOM      6  C   UNL     1      -1.387   9.957  17.254  0.00  0.00    +0.000 C 
ATOM      7  C   UNL     1      -0.540  10.169  19.617  0.00  0.00    +0.000 A 
ATOM      8  C   UNL     1       0.231   9.573  20.612  0.00  0.00    +0.000 A 
ATOM      9  C   UNL     1       1.192   8.628  20.227  0.00  0.00    +0.000 A 
ATOM     10  C   UNL     1       1.521   7.531  21.028  0.00  0.00    +0.000 A 
ATOM     11  C   UNL     1       2.184   6.466  20.403  0.00  0.00    +0.000 A 
ENDROOT
BRANCH   1  12
ATOM     12  N   UNL     1       4.168   6.009  19.053  0.00  0.00    +0.000 N 
ATOM     13  H   UNL     1       4.991   6.427  19.487  0.00  0.00    +0.000 HD
BRANCH  12  19
ATOM     14  C   UNL     1       4.381   4.190  17.388  0.00  0.00    +0.000 A 
ATOM     15  C   UNL     1       4.740   3.772  16.097  0.00  0.00    +0.000 A 
ATOM     16  C   UNL     1       5.275   4.677  15.178  0.00  0.00    +0.000 A 
ATOM     17  C   UNL     1       5.425   6.012  15.526  0.00  0.00    +0.000 A 
ATOM     18  C   UNL     1       5.033   6.444  16.792  0.00  0.00    +0.000 A 
ATOM     19  C   UNL     1       4.542   5.547  17.753  0.00  0.00    +0.000 A 
BRANCH  14  21
ATOM     20  C   UNL     1       2.960   2.349  17.885  0.00  0.00    +0.000 C 
ATOM     21  O   UNL     1       3.871   3.347  18.351  0.00  0.00    +0.000 OA
ENDBRANCH  14  21
ENDBRANCH  12  19
ENDBRANCH   1  12
BRANCH  11  22
ATOM     22  C   UNL     1       1.369   5.264  20.234  0.00  0.00    +0.000 C 
ATOM     23  N   UNL     1       0.775   4.273  20.250  0.00  0.00    +0.000 NA
ENDBRANCH  11  22
TORSDOF 4
ENDMDL
MODEL 9
REMARK VINA RESULT:      -6.8      2.650      4.094
REMARK  Name = 
REMARK  6 active torsions:
REMARK  status: ('A' for Active; 'I' for Inactive)
REMARK    1  A    between atoms: C_1  and  O_2
REMARK    2  A    between atoms: O_2  and  C_3
REMARK    3  A    between atoms: C_8  and  N_9
REMARK    4  A    between atoms: N_9  and  C_10
REMARK    5  A    between atoms: C_14  and  C_15
REMARK    6  A    between atoms: C_20  and  C_21
REMARK                            x       y       z     vdW  Elec       q    Type
REMARK                         _______ _______ _______ _____ _____    ______ ____
ROOT
ATOM      1  C   UNL     1       4.715   3.941  17.747  0.00  0.00    +0.000 A 
ATOM      2  N   UNL     1       4.466   3.053  18.728  0.00  0.00    +0.000 NA
ATOM      3  C   UNL     1       3.201   2.848  19.091  0.00  0.00    +0.000 A 
ATOM      4  C   UNL     1       2.920   2.502  20.407  0.00  0.00    +0.000 A 
ATOM      5  C   UNL     1       1.603   2.512  20.853  0.00  0.00    +0.000 A 
ATOM      6  C   UNL     1       1.332   2.734  22.312  0.00  0.00    +0.000 C 
ATOM      7  C   UNL     1       0.558   2.485  19.927  0.00  0.00    +0.000 A 
ATOM      8  C   UNL     1       0.824   2.814  18.600  0.00  0.00    +0.000 A 
ATOM      9  C   UNL     1       2.130   3.194  18.261  0.00  0.00    +0.000 A 
ATOM     10  C   UNL     1       2.396   4.136  17.263  0.00  0.00    +0.000 A 
ATOM     11  C   UNL     1       3.670   4.720  17.267  0.00  0.00    +0.000 A 
ENDROOT
BRANCH   1  12
ATOM     12  N   UNL     1       6.033   4.099  17.239  0.00  0.00    +0.000 N 
ATOM     13  H   UNL     1       6.550   4.778  17.797  0.00  0.00    +0.000 HD
BRANCH  12  19
ATOM     14  C   UNL     1       7.267   5.331  15.483  0.00  0.00    +0.000 A 
ATOM     15  C   UNL     1       7.574   5.512  14.126  0.00  0.00    +0.000 A 
ATOM     16  C   UNL     1       6.970   4.720  13.147  0.00  0.00    +0.000 A 
ATOM     17  C   UNL     1       6.082   3.721  13.515  0.00  0.00    +0.000 A 
ATOM     18  C   UNL     1       5.801   3.507  14.863  0.00  0.00    +0.000 A 
ATOM     19  C   UNL     1       6.353   4.321  15.864  0.00  0.00    +0.000 A 
BRANCH  14  21
ATOM     20  C   UNL     1       7.052   7.241  16.884  0.00  0.00    +0.000 C 
ATOM     21  O   UNL     1       7.807   6.091  16.498  0.00  0.00    +0.000 OA
ENDBRANCH  14  21
ENDBRANCH  12  19
ENDBRANCH   1  12
BRANCH  11  22
ATOM     22  C   UNL     1       3.689   6.123  17.679  0.00  0.00    +0.000 C 
ATOM     23  N   UNL     1       3.554   7.240  17.942  0.00  0.00    +0.000 NA
ENDBRANCH  11  22
TORSDOF 4
ENDMDL
