MODEL 1
REMARK VINA RESULT:      -7.2      0.000      0.000
REMARK  Name = 
REMARK  7 active torsions:
REMARK  status: ('A' for Active; 'I' for Inactive)
REMARK    1  A    between atoms: C_1  and  C_2
REMARK    2  A    between atoms: C_6  and  C_7
REMARK    3  A    between atoms: C_7  and  N_8
REMARK    4  A    between atoms: N_8  and  C_9
REMARK    5  A    between atoms: C_15  and  C_16
REMARK    6  A    between atoms: C_16  and  C_17
REMARK    7  A    between atoms: C_16  and  C_18
REMARK                            x       y       z     vdW  Elec       q    Type
REMARK                         _______ _______ _______ _____ _____    ______ ____
ROOT
ATOM      1  N   UNL     1       3.250   5.000  18.750  0.00  0.00    +0.000 N 
ATOM      2  C   UNL     1       2.779   4.048  19.750  0.00  0.00    +0.000 C 
ATOM      3  C   UNL     1       2.928   6.365  18.775  0.00  0.00    +0.000 C 
ATOM      4  O   UNL     1       3.111   7.074  17.790  0.00  0.00    +0.000 OA
ATOM      5  N   UNL     1       2.391   6.804  19.965  0.00  0.00    +0.000 N 
ATOM      6  C   UNL     1       1.797   8.041  20.158  0.00  0.00    +0.000 A 
ATOM      7  C   UNL     1       1.267   8.474  21.402  0.00  0.00    +0.000 A 
ATOM      8  C   UNL     1       0.714   9.708  21.139  0.00  0.00    +0.000 A 
ATOM      9  O   UNL     1       0.928  10.010  19.831  0.00  0.00    +0.000 OA
ATOM     10  N   UNL     1       1.589   8.966  19.215  0.00  0.00    +0.000 NA
ATOM     11  H   UNL     1       2.511   6.239  20.787  0.00  0.00    +0.000 HD
ENDROOT
BRANCH   8  12
ATOM     12  C   UNL     1      -0.049  10.705  21.942  0.00  0.00    +0.000 C 
ATOM     13  C   UNL     1      -1.053  11.462  21.073  0.00  0.00    +0.000 C 
ATOM     14  C   UNL     1      -0.755  10.025  23.118  0.00  0.00    +0.000 C 
ENDBRANCH   8  12
BRANCH   1  15
ATOM     15  C   UNL     1       3.800   4.455  17.501  0.00  0.00    +0.000 C 
BRANCH  15  21
ATOM     16  C   UNL     1       5.751   4.151  14.871  0.00  0.00    +0.000 C 
ATOM     17  C   UNL     1       6.125   4.467  16.278  0.00  0.00    +0.000 A 
ATOM     18  N   UNL     1       7.483   4.572  16.557  0.00  0.00    +0.000 NA
ATOM     19  C   UNL     1       7.664   4.786  17.838  0.00  0.00    +0.000 A 
ATOM     20  S   UNL     1       6.248   4.921  18.781  0.00  0.00    +0.000 S 
ATOM     21  C   UNL     1       5.287   4.630  17.377  0.00  0.00    +0.000 A 
ENDBRANCH  15  21
ENDBRANCH   1  15
TORSDOF 3
ENDMDL
MODEL 2
REMARK VINA RESULT:      -6.8      5.013      6.915
REMARK  Name = 
REMARK  7 active torsions:
REMARK  status: ('A' for Active; 'I' for Inactive)
REMARK    1  A    between atoms: C_1  and  C_2
REMARK    2  A    between atoms: C_6  and  C_7
REMARK    3  A    between atoms: C_7  and  N_8
REMARK    4  A    between atoms: N_8  and  C_9
REMARK    5  A    between atoms: C_15  and  C_16
REMARK    6  A    between atoms: C_16  and  C_17
REMARK    7  A    between atoms: C_16  and  C_18
REMARK                            x       y       z     vdW  Elec       q    Type
REMARK                         _______ _______ _______ _____ _____    ______ ____
ROOT
ATOM      1  N   UNL     1       7.404   6.109  18.321  0.00  0.00    +0.000 N 
ATOM      2  C   UNL     1       7.586   5.657  19.696  0.00  0.00    +0.000 C 
ATOM      3  C   UNL     1       7.734   7.400  17.884  0.00  0.00    +0.000 C 
ATOM      4  O   UNL     1       7.325   7.826  16.808  0.00  0.00    +0.000 OA
ATOM      5  N   UNL     1       8.517   8.117  18.762  0.00  0.00    +0.000 N 
ATOM      6  C   UNL     1       8.785   9.473  18.658  0.00  0.00    +0.000 A 
ATOM      7  C   UNL     1       9.612  10.183  19.569  0.00  0.00    +0.000 A 
ATOM      8  C   UNL     1       9.550  11.494  19.150  0.00  0.00    +0.000 A 
ATOM      9  O   UNL     1       8.766  11.560  18.042  0.00  0.00    +0.000 OA
ATOM     10  N   UNL     1       8.276  10.306  17.744  0.00  0.00    +0.000 NA
ATOM     11  H   UNL     1       9.013   7.623  19.482  0.00  0.00    +0.000 HD
ENDROOT
BRANCH   8  12
ATOM     12  C   UNL     1      10.112  12.780  19.653  0.00  0.00    +0.000 C 
ATOM     13  C   UNL     1       9.790  12.982  21.133  0.00  0.00    +0.000 C 
ATOM     14  C   UNL     1      11.623  12.839  19.415  0.00  0.00    +0.000 C 
ENDBRANCH   8  12
BRANCH   1  15
ATOM     15  C   UNL     1       6.546   5.295  17.448  0.00  0.00    +0.000 C 
BRANCH  15  21
ATOM     16  C   UNL     1       3.931   7.291  17.456  0.00  0.00    +0.000 C 
ATOM     17  C   UNL     1       4.067   5.928  18.043  0.00  0.00    +0.000 A 
ATOM     18  N   UNL     1       2.982   5.448  18.767  0.00  0.00    +0.000 NA
ATOM     19  C   UNL     1       3.266   4.274  19.278  0.00  0.00    +0.000 A 
ATOM     20  S   UNL     1       4.807   3.647  18.899  0.00  0.00    +0.000 S 
ATOM     21  C   UNL     1       5.167   5.077  18.002  0.00  0.00    +0.000 A 
ENDBRANCH  15  21
ENDBRANCH   1  15
TORSDOF 3
ENDMDL
MODEL 3
REMARK VINA RESULT:      -6.7      3.965      6.392
REMARK  Name = 
REMARK  7 active torsions:
REMARK  status: ('A' for Active; 'I' for Inactive)
REMARK    1  A    between atoms: C_1  and  C_2
REMARK    2  A    between atoms: C_6  and  C_7
REMARK    3  A    between atoms: C_7  and  N_8
REMARK    4  A    between atoms: N_8  and  C_9
REMARK    5  A    between atoms: C_15  and  C_16
REMARK    6  A    between atoms: C_16  and  C_17
REMARK    7  A    between atoms: C_16  and  C_18
REMARK                            x       y       z     vdW  Elec       q    Type
REMARK                         _______ _______ _______ _____ _____    ______ ____
ROOT
ATOM      1  N   UNL     1       5.663   4.864  17.488  0.00  0.00    +0.000 N 
ATOM      2  C   UNL     1       5.889   4.234  18.785  0.00  0.00    +0.000 C 
ATOM      3  C   UNL     1       6.187   6.117  17.140  0.00  0.00    +0.000 C 
ATOM      4  O   UNL     1       5.764   6.729  16.163  0.00  0.00    +0.000 OA
ATOM      5  N   UNL     1       7.174   6.579  17.984  0.00  0.00    +0.000 N 
ATOM      6  C   UNL     1       7.682   7.868  17.978  0.00  0.00    +0.000 A 
ATOM      7  C   UNL     1       8.713   8.312  18.848  0.00  0.00    +0.000 A 
ATOM      8  C   UNL     1       8.860   9.652  18.565  0.00  0.00    +0.000 A 
ATOM      9  O   UNL     1       7.998   9.982  17.567  0.00  0.00    +0.000 OA
ATOM     10  N   UNL     1       7.254   8.877  17.211  0.00  0.00    +0.000 NA
ATOM     11  H   UNL     1       7.634   5.925  18.592  0.00  0.00    +0.000 HD
ENDROOT
BRANCH   8  12
ATOM     12  C   UNL     1       9.701  10.751  19.118  0.00  0.00    +0.000 C 
ATOM     13  C   UNL     1       9.514  12.043  18.322  0.00  0.00    +0.000 C 
ATOM     14  C   UNL     1       9.390  10.978  20.599  0.00  0.00    +0.000 C 
ENDBRANCH   8  12
BRANCH   1  15
ATOM     15  C   UNL     1       4.586   4.321  16.649  0.00  0.00    +0.000 C 
BRANCH  15  21
ATOM     16  C   UNL     1       2.523   6.371  18.186  0.00  0.00    +0.000 C 
ATOM     17  C   UNL     1       2.467   4.884  18.096  0.00  0.00    +0.000 A 
ATOM     18  N   UNL     1       1.462   4.251  18.818  0.00  0.00    +0.000 NA
ATOM     19  C   UNL     1       1.574   2.950  18.699  0.00  0.00    +0.000 A 
ATOM     20  S   UNL     1       2.839   2.397  17.694  0.00  0.00    +0.000 S 
ATOM     21  C   UNL     1       3.325   4.029  17.411  0.00  0.00    +0.000 A 
ENDBRANCH  15  21
ENDBRANCH   1  15
TORSDOF 3
ENDMDL
MODEL 4
REMARK VINA RESULT:      -6.7      4.955      7.021
REMARK  Name = 
REMARK  7 active torsions:
REMARK  status: ('A' for Active; 'I' for Inactive)
REMARK    1  A    between atoms: C_1  and  C_2
REMARK    2  A    between atoms: C_6  and  C_7
REMARK    3  A    between atoms: C_7  and  N_8
REMARK    4  A    between atoms: N_8  and  C_9
REMARK    5  A    between atoms: C_15  and  C_16
REMARK    6  A    between atoms: C_16  and  C_17
REMARK    7  A    between atoms: C_16  and  C_18
REMARK                            x       y       z     vdW  Elec       q    Type
REMARK                         _______ _______ _______ _____ _____    ______ ____
ROOT
ATOM      1  N   UNL     1       7.285   6.010  18.364  0.00  0.00    +0.000 N 
ATOM      2  C   UNL     1       7.562   5.599  19.736  0.00  0.00    +0.000 C 
ATOM      3  C   UNL     1       7.586   7.286  17.867  0.00  0.00    +0.000 C 
ATOM      4  O   UNL     1       7.103   7.682  16.810  0.00  0.00    +0.000 OA
ATOM      5  N   UNL     1       8.431   8.026  18.666  0.00  0.00    +0.000 N 
ATOM      6  C   UNL     1       8.694   9.377  18.503  0.00  0.00    +0.000 A 
ATOM      7  C   UNL     1       9.585  10.110  19.331  0.00  0.00    +0.000 A 
ATOM      8  C   UNL     1       9.497  11.409  18.879  0.00  0.00    +0.000 A 
ATOM      9  O   UNL     1       8.636  11.445  17.827  0.00  0.00    +0.000 OA
ATOM     10  N   UNL     1       8.124  10.184  17.602  0.00  0.00    +0.000 NA
ATOM     11  H   UNL     1       8.975   7.551  19.363  0.00  0.00    +0.000 HD
ENDROOT
BRANCH   8  12
ATOM     12  C   UNL     1      10.096  12.706  19.302  0.00  0.00    +0.000 C 
ATOM     13  C   UNL     1      11.089  12.509  20.447  0.00  0.00    +0.000 C 
ATOM     14  C   UNL     1      10.769  13.403  18.117  0.00  0.00    +0.000 C 
ENDBRANCH   8  12
BRANCH   1  15
ATOM     15  C   UNL     1       6.365   5.175  17.579  0.00  0.00    +0.000 C 
BRANCH  15  21
ATOM     16  C   UNL     1       4.686   3.049  19.444  0.00  0.00    +0.000 C 
ATOM     17  C   UNL     1       4.216   4.319  18.823  0.00  0.00    +0.000 A 
ATOM     18  N   UNL     1       2.868   4.626  18.970  0.00  0.00    +0.000 NA
ATOM     19  C   UNL     1       2.585   5.730  18.321  0.00  0.00    +0.000 A 
ATOM     20  S   UNL     1       3.895   6.495  17.538  0.00  0.00    +0.000 S 
ATOM     21  C   UNL     1       4.946   5.231  18.066  0.00  0.00    +0.000 A 
ENDBRANCH  15  21
ENDBRANCH   1  15
TORSDOF 3
ENDMDL
MODEL 5
REMARK VINA RESULT:      -6.6      1.312      1.618
REMARK  Name = 
REMARK  7 active torsions:
REMARK  status: ('A' for Active; 'I' for Inactive)
REMARK    1  A    between atoms: C_1  and  C_2
REMARK    2  A    between atoms: C_6  and  C_7
REMARK    3  A    between atoms: C_7  and  N_8
REMARK    4  A    between atoms: N_8  and  C_9
REMARK    5  A    between atoms: C_15  and  C_16
REMARK    6  A    between atoms: C_16  and  C_17
REMARK    7  A    between atoms: C_16  and  C_18
REMARK                            x       y       z     vdW  Elec       q    Type
REMARK                         _______ _______ _______ _____ _____    ______ ____
ROOT
ATOM      1  N   UNL     1       3.400   6.317  18.184  0.00  0.00    +0.000 N 
ATOM      2  C   UNL     1       4.008   7.297  17.292  0.00  0.00    +0.000 C 
ATOM      3  C   UNL     1       2.523   6.660  19.223  0.00  0.00    +0.000 C 
ATOM      4  O   UNL     1       2.248   5.856  20.108  0.00  0.00    +0.000 OA
ATOM      5  N   UNL     1       2.037   7.948  19.158  0.00  0.00    +0.000 N 
ATOM      6  C   UNL     1       1.341   8.584  20.173  0.00  0.00    +0.000 A 
ATOM      7  C   UNL     1       0.835   9.907  20.071  0.00  0.00    +0.000 A 
ATOM      8  C   UNL     1       0.287  10.170  21.307  0.00  0.00    +0.000 A 
ATOM      9  O   UNL     1       0.424   9.066  22.088  0.00  0.00    +0.000 OA
ATOM     10  N   UNL     1       1.093   8.083  21.388  0.00  0.00    +0.000 NA
ATOM     11  H   UNL     1       2.101   8.445  18.287  0.00  0.00    +0.000 HD
ENDROOT
BRANCH   8  12
ATOM     12  C   UNL     1      -0.361  11.358  21.932  0.00  0.00    +0.000 C 
ATOM     13  C   UNL     1      -1.209  12.123  20.916  0.00  0.00    +0.000 C 
ATOM     14  C   UNL     1      -1.207  10.941  23.138  0.00  0.00    +0.000 C 
ENDBRANCH   8  12
BRANCH   1  15
ATOM     15  C   UNL     1       3.982   4.967  18.205  0.00  0.00    +0.000 C 
BRANCH  15  21
ATOM     16  C   UNL     1       5.669   3.975  15.562  0.00  0.00    +0.000 C 
ATOM     17  C   UNL     1       6.187   4.499  16.857  0.00  0.00    +0.000 A 
ATOM     18  N   UNL     1       7.567   4.502  17.024  0.00  0.00    +0.000 NA
ATOM     19  C   UNL     1       7.874   4.924  18.227  0.00  0.00    +0.000 A 
ATOM     20  S   UNL     1       6.561   5.385  19.215  0.00  0.00    +0.000 S 
ATOM     21  C   UNL     1       5.463   4.951  17.956  0.00  0.00    +0.000 A 
ENDBRANCH  15  21
ENDBRANCH   1  15
TORSDOF 3
ENDMDL
MODEL 6
REMARK VINA RESULT:      -6.6      1.501      2.091
REMARK  Name = 
REMARK  7 active torsions:
REMARK  status: ('A' for Active; 'I' for Inactive)
REMARK    1  A    between atoms: C_1  and  C_2
REMARK    2  A    between atoms: C_6  and  C_7
REMARK    3  A    between atoms: C_7  and  N_8
REMARK    4  A    between atoms: N_8  and  C_9
REMARK    5  A    between atoms: C_15  and  C_16
REMARK    6  A    between atoms: C_16  and  C_17
REMARK    7  A    between atoms: C_16  and  C_18
REMARK                            x       y       z     vdW  Elec       q    Type
REMARK                         _______ _______ _______ _____ _____    ______ ____
ROOT
ATOM      1  N   UNL     1       3.665   6.103  18.327  0.00  0.00    +0.000 N 
ATOM      2  C   UNL     1       4.260   7.052  17.391  0.00  0.00    +0.000 C 
ATOM      3  C   UNL     1       2.750   6.474  19.322  0.00  0.00    +0.000 C 
ATOM      4  O   UNL     1       2.481   5.714  20.248  0.00  0.00    +0.000 OA
ATOM      5  N   UNL     1       2.219   7.737  19.168  0.00  0.00    +0.000 N 
ATOM      6  C   UNL     1       1.475   8.405  20.127  0.00  0.00    +0.000 A 
ATOM      7  C   UNL     1       0.925   9.700  19.934  0.00  0.00    +0.000 A 
ATOM      8  C   UNL     1       0.336  10.016  21.139  0.00  0.00    +0.000 A 
ATOM      9  O   UNL     1       0.493   8.965  21.988  0.00  0.00    +0.000 OA
ATOM     10  N   UNL     1       1.215   7.968  21.364  0.00  0.00    +0.000 NA
ATOM     11  H   UNL     1       2.288   8.184  18.272  0.00  0.00    +0.000 HD
ENDROOT
BRANCH   8  12
ATOM     12  C   UNL     1      -0.370  11.213  21.677  0.00  0.00    +0.000 C 
ATOM     13  C   UNL     1      -1.376  11.762  20.665  0.00  0.00    +0.000 C 
ATOM     14  C   UNL     1      -1.062  10.883  23.002  0.00  0.00    +0.000 C 
ENDBRANCH   8  12
BRANCH   1  15
ATOM     15  C   UNL     1       4.294   4.780  18.442  0.00  0.00    +0.000 C 
BRANCH  15  21
ATOM     16  C   UNL     1       7.446   5.542  18.986  0.00  0.00    +0.000 C 
ATOM     17  C   UNL     1       6.824   4.963  17.762  0.00  0.00    +0.000 A 
ATOM     18  N   UNL     1       7.654   4.789  16.661  0.00  0.00    +0.000 NA
ATOM     19  C   UNL     1       6.962   4.337  15.643  0.00  0.00    +0.000 A 
ATOM     20  S   UNL     1       5.306   4.048  15.935  0.00  0.00    +0.000 S 
ATOM     21  C   UNL     1       5.494   4.610  17.556  0.00  0.00    +0.000 A 
ENDBRANCH  15  21
ENDBRANCH   1  15
TORSDOF 3
ENDMDL
MODEL 7
REMARK VINA RESULT:      -6.5      1.004      1.026
REMARK  Name = 
REMARK  7 active torsions:
REMARK  status: ('A' for Active; 'I' for Inactive)
REMARK    1  A    between atoms: C_1  and  C_2
REMARK    2  A    between atoms: C_6  and  C_7
REMARK    3  A    between atoms: C_7  and  N_8
REMARK    4  A    between atoms: N_8  and  C_9
REMARK    5  A    between atoms: C_15  and  C_16
REMARK    6  A    between atoms: C_16  and  C_17
REMARK    7  A    between atoms: C_16  and  C_18
REMARK                            x       y       z     vdW  Elec       q    Type
REMARK                         _______ _______ _______ _____ _____    ______ ____
ROOT
ATOM      1  N   UNL     1       2.988   5.738  19.270  0.00  0.00    +0.000 N 
ATOM      2  C   UNL     1       2.546   4.840  20.332  0.00  0.00    +0.000 C 
ATOM      3  C   UNL     1       2.604   7.083  19.190  0.00  0.00    +0.000 C 
ATOM      4  O   UNL     1       2.769   7.727  18.157  0.00  0.00    +0.000 OA
ATOM      5  N   UNL     1       2.029   7.583  20.338  0.00  0.00    +0.000 N 
ATOM      6  C   UNL     1       1.376   8.802  20.432  0.00  0.00    +0.000 A 
ATOM      7  C   UNL     1       0.809   9.300  21.635  0.00  0.00    +0.000 A 
ATOM      8  C   UNL     1       0.205  10.485  21.274  0.00  0.00    +0.000 A 
ATOM      9  O   UNL     1       0.424  10.699  19.950  0.00  0.00    +0.000 OA
ATOM     10  N   UNL     1       1.141   9.646  19.421  0.00  0.00    +0.000 NA
ATOM     11  H   UNL     1       2.163   7.086  21.201  0.00  0.00    +0.000 HD
ENDROOT
BRANCH   8  12
ATOM     12  C   UNL     1      -0.615  11.501  21.993  0.00  0.00    +0.000 C 
ATOM     13  C   UNL     1      -1.551  12.235  21.032  0.00  0.00    +0.000 C 
ATOM     14  C   UNL     1      -1.407  10.851  23.130  0.00  0.00    +0.000 C 
ENDBRANCH   8  12
BRANCH   1  15
ATOM     15  C   UNL     1       3.581   5.128  18.071  0.00  0.00    +0.000 C 
BRANCH  15  21
ATOM     16  C   UNL     1       5.327   5.844  15.378  0.00  0.00    +0.000 C 
ATOM     17  C   UNL     1       5.801   5.680  16.781  0.00  0.00    +0.000 A 
ATOM     18  N   UNL     1       7.173   5.755  16.991  0.00  0.00    +0.000 NA
ATOM     19  C   UNL     1       7.448   5.528  18.253  0.00  0.00    +0.000 A 
ATOM     20  S   UNL     1       6.108   5.258  19.274  0.00  0.00    +0.000 S 
ATOM     21  C   UNL     1       5.048   5.413  17.920  0.00  0.00    +0.000 A 
ENDBRANCH  15  21
ENDBRANCH   1  15
TORSDOF 3
ENDMDL
MODEL 8
REMARK VINA RESULT:      -6.5      0.923      1.142
REMARK  Name = 
REMARK  7 active torsions:
REMARK  status: ('A' for Active; 'I' for Inactive)
REMARK    1  A    between atoms: C_1  and  C_2
REMARK    2  A    between atoms: C_6  and  C_7
REMARK    3  A    between atoms: C_7  and  N_8
REMARK    4  A    between atoms: N_8  and  C_9
REMARK    5  A    between atoms: C_15  and  C_16
REMARK    6  A    between atoms: C_16  and  C_17
REMARK    7  A    between atoms: C_16  and  C_18
REMARK                            x       y       z     vdW  Elec       q    Type
REMARK                         _______ _______ _______ _____ _____    ______ ____
ROOT
ATOM      1  N   UNL     1       3.274   5.204  18.408  0.00  0.00    +0.000 N 
ATOM      2  C   UNL     1       2.649   4.346  19.409  0.00  0.00    +0.000 C 
ATOM      3  C   UNL     1       3.003   6.574  18.292  0.00  0.00    +0.000 C 
ATOM      4  O   UNL     1       3.331   7.200  17.288  0.00  0.00    +0.000 OA
ATOM      5  N   UNL     1       2.341   7.120  19.370  0.00  0.00    +0.000 N 
ATOM      6  C   UNL     1       1.774   8.384  19.395  0.00  0.00    +0.000 A 
ATOM      7  C   UNL     1       1.113   8.928  20.529  0.00  0.00    +0.000 A 
ATOM      8  C   UNL     1       0.643  10.152  20.108  0.00  0.00    +0.000 A 
ATOM      9  O   UNL     1       1.027  10.345  18.818  0.00  0.00    +0.000 OA
ATOM     10  N   UNL     1       1.718   9.239  18.368  0.00  0.00    +0.000 NA
ATOM     11  H   UNL     1       2.338   6.617  20.240  0.00  0.00    +0.000 HD
ENDROOT
BRANCH   8  12
ATOM     12  C   UNL     1      -0.175  11.230  20.734  0.00  0.00    +0.000 C 
ATOM     13  C   UNL     1       0.663  12.484  20.984  0.00  0.00    +0.000 C 
ATOM     14  C   UNL     1      -1.393  11.557  19.866  0.00  0.00    +0.000 C 
ENDBRANCH   8  12
BRANCH   1  15
ATOM     15  C   UNL     1       3.952   4.547  17.281  0.00  0.00    +0.000 C 
BRANCH  15  21
ATOM     16  C   UNL     1       6.196   3.962  14.950  0.00  0.00    +0.000 C 
ATOM     17  C   UNL     1       6.407   4.395  16.360  0.00  0.00    +0.000 A 
ATOM     18  N   UNL     1       7.724   4.493  16.794  0.00  0.00    +0.000 NA
ATOM     19  C   UNL     1       7.755   4.817  18.064  0.00  0.00    +0.000 A 
ATOM     20  S   UNL     1       6.241   5.071  18.809  0.00  0.00    +0.000 S 
ATOM     21  C   UNL     1       5.448   4.676  17.328  0.00  0.00    +0.000 A 
ENDBRANCH  15  21
ENDBRANCH   1  15
TORSDOF 3
ENDMDL
MODEL 9
REMARK VINA RESULT:      -6.5      2.760      3.738
REMARK  Name = 
REMARK  7 active torsions:
REMARK  status: ('A' for Active; 'I' for Inactive)
REMARK    1  A    between atoms: C_1  and  C_2
REMARK    2  A    between atoms: C_6  and  C_7
REMARK    3  A    between atoms: C_7  and  N_8
REMARK    4  A    between atoms: N_8  and  C_9
REMARK    5  A    between atoms: C_15  and  C_16
REMARK    6  A    between atoms: C_16  and  C_17
REMARK    7  A    between atoms: C_16  and  C_18
REMARK                            x       y       z     vdW  Elec       q    Type
REMARK                         _______ _______ _______ _____ _____    ______ ____
ROOT
ATOM      1  N   UNL     1       3.136   6.631  18.808  0.00  0.00    +0.000 N 
ATOM      2  C   UNL     1       3.831   7.125  17.624  0.00  0.00    +0.000 C 
ATOM      3  C   UNL     1       2.204   7.392  19.526  0.00  0.00    +0.000 C 
ATOM      4  O   UNL     1       1.846   7.055  20.652  0.00  0.00    +0.000 OA
ATOM      5  N   UNL     1       1.762   8.522  18.872  0.00  0.00    +0.000 N 
ATOM      6  C   UNL     1       1.020   9.536  19.456  0.00  0.00    +0.000 A 
ATOM      7  C   UNL     1       0.562  10.681  18.751  0.00  0.00    +0.000 A 
ATOM      8  C   UNL     1      -0.058  11.457  19.706  0.00  0.00    +0.000 A 
ATOM      9  O   UNL     1      -0.006  10.804  20.897  0.00  0.00    +0.000 OA
ATOM     10  N   UNL     1       0.678   9.616  20.746  0.00  0.00    +0.000 NA
ATOM     11  H   UNL     1       1.898   8.589  17.879  0.00  0.00    +0.000 HD
ENDROOT
BRANCH   8  12
ATOM     12  C   UNL     1      -0.710  12.798  19.702  0.00  0.00    +0.000 C 
ATOM     13  C   UNL     1      -0.357  13.580  18.437  0.00  0.00    +0.000 C 
ATOM     14  C   UNL     1      -2.227  12.661  19.848  0.00  0.00    +0.000 C 
ENDBRANCH   8  12
BRANCH   1  15
ATOM     15  C   UNL     1       3.674   5.427  19.457  0.00  0.00    +0.000 C 
BRANCH  15  21
ATOM     16  C   UNL     1       1.049   3.710  20.444  0.00  0.00    +0.000 C 
ATOM     17  C   UNL     1       2.011   3.397  19.350  0.00  0.00    +0.000 A 
ATOM     18  N   UNL     1       1.844   2.180  18.699  0.00  0.00    +0.000 NA
ATOM     19  C   UNL     1       2.795   2.010  17.813  0.00  0.00    +0.000 A 
ATOM     20  S   UNL     1       3.913   3.290  17.661  0.00  0.00    +0.000 S 
ATOM     21  C   UNL     1       3.098   4.149  18.917  0.00  0.00    +0.000 A 
ENDBRANCH  15  21
ENDBRANCH   1  15
TORSDOF 3
ENDMDL
