MODEL 1
REMARK VINA RESULT:      -8.8      0.000      0.000
REMARK  Name = 
REMARK  8 active torsions:
REMARK  status: ('A' for Active; 'I' for Inactive)
REMARK    1  A    between atoms: C_2  and  C_21
REMARK    2  A    between atoms: N_3  and  C_4
REMARK    3  A    between atoms: C_8  and  N_9
REMARK    4  A    between atoms: C_10  and  C_12
REMARK    5  A    between atoms: C_16  and  O_17
REMARK    6  A    between atoms: C_18  and  O_19
REMARK    7  A    between atoms: C_25  and  O_26
REMARK    8  A    between atoms: C_27  and  O_28
REMARK                            x       y       z     vdW  Elec       q    Type
REMARK                         _______ _______ _______ _____ _____    ______ ____
ROOT
ATOM      1  C   UNL     1       4.078   5.921  17.612  0.00  0.00    +0.000 A 
ATOM      2  C   UNL     1       4.053   5.015  18.673  0.00  0.00    +0.000 A 
ATOM      3  C   UNL     1       3.287   5.268  19.798  0.00  0.00    +0.000 A 
ATOM      4  C   UNL     1       2.540   6.438  19.880  0.00  0.00    +0.000 A 
ATOM      5  C   UNL     1       2.555   7.385  18.851  0.00  0.00    +0.000 A 
ATOM      6  C   UNL     1       3.342   7.121  17.719  0.00  0.00    +0.000 A 
ENDROOT
BRANCH   1   9
ATOM      7  O   UNL     1       4.822   3.341  16.384  0.00  0.00    +0.000 OA
ATOM      8  C   UNL     1       5.145   4.432  15.920  0.00  0.00    +0.000 C 
ATOM      9  N   UNL     1       4.820   5.676  16.437  0.00  0.00    +0.000 N 
ATOM     10  H   UNL     1       5.049   6.475  15.850  0.00  0.00    +0.000 HD
BRANCH   8  11
ATOM     11  C   UNL     1       5.959   4.418  14.675  0.00  0.00    +0.000 A 
ATOM     12  C   UNL     1       5.489   3.638  13.602  0.00  0.00    +0.000 A 
ATOM     13  C   UNL     1       6.174   3.603  12.385  0.00  0.00    +0.000 A 
ATOM     14  C   UNL     1       7.333   4.358  12.217  0.00  0.00    +0.000 A 
ATOM     15  C   UNL     1       7.796   5.133  13.276  0.00  0.00    +0.000 A 
ATOM     16  C   UNL     1       7.124   5.161  14.500  0.00  0.00    +0.000 A 
BRANCH  15  17
ATOM     17  O   UNL     1       8.919   5.909  13.161  0.00  0.00    +0.000 OA
ATOM     18  H   UNL     1       9.669   5.325  12.950  0.00  0.00    +0.000 HD
ENDBRANCH  15  17
BRANCH  16  19
ATOM     19  O   UNL     1       7.638   5.952  15.498  0.00  0.00    +0.000 OA
ATOM     20  H   UNL     1       8.381   5.427  15.865  0.00  0.00    +0.000 HD
ENDBRANCH  16  19
ENDBRANCH   8  11
ENDBRANCH   1   9
BRANCH   5  21
ATOM     21  N   UNL     1       1.790   8.579  18.906  0.00  0.00    +0.000 N 
ATOM     22  C   UNL     1       1.083   9.041  20.007  0.00  0.00    +0.000 C 
ATOM     23  O   UNL     1       1.050   8.497  21.110  0.00  0.00    +0.000 OA
ATOM     24  H   UNL     1       1.733   9.149  18.064  0.00  0.00    +0.000 HD
BRANCH  22  25
ATOM     25  C   UNL     1       0.284  10.293  19.867  0.00  0.00    +0.000 A 
ATOM     26  C   UNL     1       0.024  11.007  21.056  0.00  0.00    +0.000 A 
ATOM     27  C   UNL     1      -0.734  12.179  21.058  0.00  0.00    +0.000 A 
ATOM     28  C   UNL     1      -1.253  12.664  19.862  0.00  0.00    +0.000 A 
ATOM     29  C   UNL     1      -1.001  11.968  18.684  0.00  0.00    +0.000 A 
ATOM     30  C   UNL     1      -0.235  10.793  18.675  0.00  0.00    +0.000 A 
BRANCH  29  31
ATOM     31  O   UNL     1      -1.503  12.401  17.486  0.00  0.00    +0.000 OA
ATOM     32  H   UNL     1      -1.710  13.349  17.573  0.00  0.00    +0.000 HD
ENDBRANCH  29  31
BRANCH  30  33
ATOM     33  O   UNL     1      -0.033  10.171  17.469  0.00  0.00    +0.000 OA
ATOM     34  H   UNL     1      -0.907   9.783  17.249  0.00  0.00    +0.000 HD
ENDBRANCH  30  33
ENDBRANCH  22  25
ENDBRANCH   5  21
TORSDOF 8
ENDMDL
MODEL 2
REMARK VINA RESULT:      -8.7      1.633      9.319
REMARK  Name = 
REMARK  8 active torsions:
REMARK  status: ('A' for Active; 'I' for Inactive)
REMARK    1  A    between atoms: C_2  and  C_21
REMARK    2  A    between atoms: N_3  and  C_4
REMARK    3  A    between atoms: C_8  and  N_9
REMARK    4  A    between atoms: C_10  and  C_12
REMARK    5  A    between atoms: C_16  and  O_17
REMARK    6  A    between atoms: C_18  and  O_19
REMARK    7  A    between atoms: C_25  and  O_26
REMARK    8  A    between atoms: C_27  and  O_28
REMARK                            x       y       z     vdW  Elec       q    Type
REMARK                         _______ _______ _______ _____ _____    ______ ____
ROOT
ATOM      1  C   UNL     1       2.169   5.310  20.373  0.00  0.00    +0.000 A 
ATOM      2  C   UNL     1       2.209   4.163  21.166  0.00  0.00    +0.000 A 
ATOM      3  C   UNL     1       2.865   3.025  20.727  0.00  0.00    +0.000 A 
ATOM      4  C   UNL     1       3.483   3.018  19.482  0.00  0.00    +0.000 A 
ATOM      5  C   UNL     1       3.446   4.137  18.644  0.00  0.00    +0.000 A 
ATOM      6  C   UNL     1       2.771   5.282  19.097  0.00  0.00    +0.000 A 
ENDROOT
BRANCH   1   9
ATOM      7  O   UNL     1       2.299   8.021  19.210  0.00  0.00    +0.000 OA
ATOM      8  C   UNL     1       1.653   7.746  20.218  0.00  0.00    +0.000 C 
ATOM      9  N   UNL     1       1.539   6.497  20.807  0.00  0.00    +0.000 N 
ATOM     10  H   UNL     1       0.852   6.419  21.554  0.00  0.00    +0.000 HD
BRANCH   8  11
ATOM     11  C   UNL     1       0.913   8.860  20.867  0.00  0.00    +0.000 A 
ATOM     12  C   UNL     1       0.641   8.742  22.243  0.00  0.00    +0.000 A 
ATOM     13  C   UNL     1      -0.015   9.763  22.935  0.00  0.00    +0.000 A 
ATOM     14  C   UNL     1      -0.398  10.924  22.266  0.00  0.00    +0.000 A 
ATOM     15  C   UNL     1      -0.125  11.043  20.906  0.00  0.00    +0.000 A 
ATOM     16  C   UNL     1       0.517  10.020  20.205  0.00  0.00    +0.000 A 
BRANCH  15  17
ATOM     17  O   UNL     1      -0.462  12.168  20.202  0.00  0.00    +0.000 OA
ATOM     18  H   UNL     1      -0.190  12.944  20.725  0.00  0.00    +0.000 HD
ENDBRANCH  15  17
BRANCH  16  19
ATOM     19  O   UNL     1       0.756  10.210  18.866  0.00  0.00    +0.000 OA
ATOM     20  H   UNL     1      -0.138  10.266  18.466  0.00  0.00    +0.000 HD
ENDBRANCH  16  19
ENDBRANCH   8  11
ENDBRANCH   1   9
BRANCH   5  21
ATOM     21  N   UNL     1       4.081   4.158  17.375  0.00  0.00    +0.000 N 
ATOM     22  C   UNL     1       5.432   4.381  17.147  0.00  0.00    +0.000 C 
ATOM     23  O   UNL     1       6.281   4.555  18.019  0.00  0.00    +0.000 OA
ATOM     24  H   UNL     1       3.503   4.015  16.549  0.00  0.00    +0.000 HD
BRANCH  22  25
ATOM     25  C   UNL     1       5.919   4.426  15.738  0.00  0.00    +0.000 A 
ATOM     26  C   UNL     1       5.225   3.620  14.809  0.00  0.00    +0.000 A 
ATOM     27  C   UNL     1       5.602   3.558  13.466  0.00  0.00    +0.000 A 
ATOM     28  C   UNL     1       6.688   4.304  13.021  0.00  0.00    +0.000 A 
ATOM     29  C   UNL     1       7.377   5.102  13.929  0.00  0.00    +0.000 A 
ATOM     30  C   UNL     1       7.000   5.174  15.278  0.00  0.00    +0.000 A 
BRANCH  29  31
ATOM     31  O   UNL     1       8.460   5.844  13.538  0.00  0.00    +0.000 OA
ATOM     32  H   UNL     1       8.765   5.500  12.679  0.00  0.00    +0.000 HD
ENDBRANCH  29  31
BRANCH  30  33
ATOM     33  O   UNL     1       7.732   5.989  16.104  0.00  0.00    +0.000 OA
ATOM     34  H   UNL     1       7.198   6.812  16.164  0.00  0.00    +0.000 HD
ENDBRANCH  30  33
ENDBRANCH  22  25
ENDBRANCH   5  21
TORSDOF 8
ENDMDL
MODEL 3
REMARK VINA RESULT:      -8.6      1.645      2.085
REMARK  Name = 
REMARK  8 active torsions:
REMARK  status: ('A' for Active; 'I' for Inactive)
REMARK    1  A    between atoms: C_2  and  C_21
REMARK    2  A    between atoms: N_3  and  C_4
REMARK    3  A    between atoms: C_8  and  N_9
REMARK    4  A    between atoms: C_10  and  C_12
REMARK    5  A    between atoms: C_16  and  O_17
REMARK    6  A    between atoms: C_18  and  O_19
REMARK    7  A    between atoms: C_25  and  O_26
REMARK    8  A    between atoms: C_27  and  O_28
REMARK                            x       y       z     vdW  Elec       q    Type
REMARK                         _______ _______ _______ _____ _____    ______ ____
ROOT
ATOM      1  C   UNL     1       3.481   4.112  18.720  0.00  0.00    +0.000 A 
ATOM      2  C   UNL     1       3.426   2.966  19.514  0.00  0.00    +0.000 A 
ATOM      3  C   UNL     1       2.758   2.980  20.726  0.00  0.00    +0.000 A 
ATOM      4  C   UNL     1       2.142   4.147  21.165  0.00  0.00    +0.000 A 
ATOM      5  C   UNL     1       2.193   5.324  20.413  0.00  0.00    +0.000 A 
ATOM      6  C   UNL     1       2.881   5.300  19.189  0.00  0.00    +0.000 A 
ENDROOT
BRANCH   1   9
ATOM      7  O   UNL     1       6.328   4.577  18.085  0.00  0.00    +0.000 OA
ATOM      8  C   UNL     1       5.470   4.357  17.234  0.00  0.00    +0.000 C 
ATOM      9  N   UNL     1       4.124   4.119  17.463  0.00  0.00    +0.000 N 
ATOM     10  H   UNL     1       3.583   3.817  16.656  0.00  0.00    +0.000 HD
BRANCH   8  11
ATOM     11  C   UNL     1       5.919   4.337  15.816  0.00  0.00    +0.000 A 
ATOM     12  C   UNL     1       5.191   3.535  14.917  0.00  0.00    +0.000 A 
ATOM     13  C   UNL     1       5.525   3.493  13.561  0.00  0.00    +0.000 A 
ATOM     14  C   UNL     1       6.583   4.260  13.080  0.00  0.00    +0.000 A 
ATOM     15  C   UNL     1       7.301   5.056  13.968  0.00  0.00    +0.000 A 
ATOM     16  C   UNL     1       6.982   5.093  15.327  0.00  0.00    +0.000 A 
BRANCH  15  17
ATOM     17  O   UNL     1       8.339   5.845  13.548  0.00  0.00    +0.000 OA
ATOM     18  H   UNL     1       9.016   5.267  13.152  0.00  0.00    +0.000 HD
ENDBRANCH  15  17
BRANCH  16  19
ATOM     19  O   UNL     1       7.732   5.904  16.142  0.00  0.00    +0.000 OA
ATOM     20  H   UNL     1       7.665   5.488  17.027  0.00  0.00    +0.000 HD
ENDBRANCH  16  19
ENDBRANCH   8  11
ENDBRANCH   1   9
BRANCH   5  21
ATOM     21  N   UNL     1       1.560   6.523  20.833  0.00  0.00    +0.000 N 
ATOM     22  C   UNL     1       1.675   7.761  20.217  0.00  0.00    +0.000 C 
ATOM     23  O   UNL     1       2.315   7.989  19.192  0.00  0.00    +0.000 OA
ATOM     24  H   UNL     1       0.980   6.489  21.669  0.00  0.00    +0.000 HD
BRANCH  22  25
ATOM     25  C   UNL     1       0.981   8.930  20.832  0.00  0.00    +0.000 A 
ATOM     26  C   UNL     1       0.655   8.817  22.200  0.00  0.00    +0.000 A 
ATOM     27  C   UNL     1      -0.016   9.834  22.881  0.00  0.00    +0.000 A 
ATOM     28  C   UNL     1      -0.380  10.992  22.203  0.00  0.00    +0.000 A 
ATOM     29  C   UNL     1      -0.061  11.114  20.854  0.00  0.00    +0.000 A 
ATOM     30  C   UNL     1       0.619  10.099  20.165  0.00  0.00    +0.000 A 
BRANCH  29  31
ATOM     31  O   UNL     1      -0.410  12.232  20.143  0.00  0.00    +0.000 OA
ATOM     32  H   UNL     1      -1.375  12.344  20.216  0.00  0.00    +0.000 HD
ENDBRANCH  29  31
BRANCH  30  33
ATOM     33  O   UNL     1       0.897  10.302  18.837  0.00  0.00    +0.000 OA
ATOM     34  H   UNL     1       0.260  10.996  18.562  0.00  0.00    +0.000 HD
ENDBRANCH  30  33
ENDBRANCH  22  25
ENDBRANCH   5  21
TORSDOF 8
ENDMDL
MODEL 4
REMARK VINA RESULT:      -8.5      1.279      1.421
REMARK  Name = 
REMARK  8 active torsions:
REMARK  status: ('A' for Active; 'I' for Inactive)
REMARK    1  A    between atoms: C_2  and  C_21
REMARK    2  A    between atoms: N_3  and  C_4
REMARK    3  A    between atoms: C_8  and  N_9
REMARK    4  A    between atoms: C_10  and  C_12
REMARK    5  A    between atoms: C_16  and  O_17
REMARK    6  A    between atoms: C_18  and  O_19
REMARK    7  A    between atoms: C_25  and  O_26
REMARK    8  A    between atoms: C_27  and  O_28
REMARK                            x       y       z     vdW  Elec       q    Type
REMARK                         _______ _______ _______ _____ _____    ______ ____
ROOT
ATOM      1  C   UNL     1       4.011   5.513  17.690  0.00  0.00    +0.000 A 
ATOM      2  C   UNL     1       3.877   4.462  18.598  0.00  0.00    +0.000 A 
ATOM      3  C   UNL     1       3.108   4.611  19.739  0.00  0.00    +0.000 A 
ATOM      4  C   UNL     1       2.469   5.819  19.993  0.00  0.00    +0.000 A 
ATOM      5  C   UNL     1       2.596   6.906  19.122  0.00  0.00    +0.000 A 
ATOM      6  C   UNL     1       3.385   6.746  17.972  0.00  0.00    +0.000 A 
ENDROOT
BRANCH   1   9
ATOM      7  O   UNL     1       4.912   3.059  16.317  0.00  0.00    +0.000 OA
ATOM      8  C   UNL     1       5.159   4.192  15.913  0.00  0.00    +0.000 C 
ATOM      9  N   UNL     1       4.759   5.382  16.499  0.00  0.00    +0.000 N 
ATOM     10  H   UNL     1       4.931   6.225  15.957  0.00  0.00    +0.000 HD
BRANCH   8  11
ATOM     11  C   UNL     1       5.963   4.300  14.666  0.00  0.00    +0.000 A 
ATOM     12  C   UNL     1       5.508   3.590  13.539  0.00  0.00    +0.000 A 
ATOM     13  C   UNL     1       6.183   3.670  12.319  0.00  0.00    +0.000 A 
ATOM     14  C   UNL     1       7.317   4.472  12.202  0.00  0.00    +0.000 A 
ATOM     15  C   UNL     1       7.764   5.178  13.315  0.00  0.00    +0.000 A 
ATOM     16  C   UNL     1       7.103   5.091  14.542  0.00  0.00    +0.000 A 
BRANCH  15  17
ATOM     17  O   UNL     1       8.861   5.995  13.253  0.00  0.00    +0.000 OA
ATOM     18  H   UNL     1       8.722   6.735  13.871  0.00  0.00    +0.000 HD
ENDBRANCH  15  17
BRANCH  16  19
ATOM     19  O   UNL     1       7.600   5.819  15.594  0.00  0.00    +0.000 OA
ATOM     20  H   UNL     1       8.571   5.812  15.456  0.00  0.00    +0.000 HD
ENDBRANCH  16  19
ENDBRANCH   8  11
ENDBRANCH   1   9
BRANCH   5  21
ATOM     21  N   UNL     1       1.941   8.144  19.352  0.00  0.00    +0.000 N 
ATOM     22  C   UNL     1       1.756   9.151  18.415  0.00  0.00    +0.000 C 
ATOM     23  O   UNL     1       2.102   9.098  17.236  0.00  0.00    +0.000 OA
ATOM     24  H   UNL     1       1.585   8.330  20.288  0.00  0.00    +0.000 HD
BRANCH  22  25
ATOM     25  C   UNL     1       1.094  10.415  18.849  0.00  0.00    +0.000 A 
ATOM     26  C   UNL     1      -0.021  10.278  19.704  0.00  0.00    +0.000 A 
ATOM     27  C   UNL     1      -0.739  11.385  20.157  0.00  0.00    +0.000 A 
ATOM     28  C   UNL     1      -0.357  12.662  19.761  0.00  0.00    +0.000 A 
ATOM     29  C   UNL     1       0.742  12.808  18.920  0.00  0.00    +0.000 A 
ATOM     30  C   UNL     1       1.472  11.700  18.466  0.00  0.00    +0.000 A 
BRANCH  29  31
ATOM     31  O   UNL     1       1.146  14.046  18.495  0.00  0.00    +0.000 OA
ATOM     32  H   UNL     1       1.483  14.534  19.268  0.00  0.00    +0.000 HD
ENDBRANCH  29  31
BRANCH  30  33
ATOM     33  O   UNL     1       2.543  11.935  17.642  0.00  0.00    +0.000 OA
ATOM     34  H   UNL     1       2.275  12.719  17.116  0.00  0.00    +0.000 HD
ENDBRANCH  30  33
ENDBRANCH  22  25
ENDBRANCH   5  21
TORSDOF 8
ENDMDL
MODEL 5
REMARK VINA RESULT:      -8.4      0.976      9.453
REMARK  Name = 
REMARK  8 active torsions:
REMARK  status: ('A' for Active; 'I' for Inactive)
REMARK    1  A    between atoms: C_2  and  C_21
REMARK    2  A    between atoms: N_3  and  C_4
REMARK    3  A    between atoms: C_8  and  N_9
REMARK    4  A    between atoms: C_10  and  C_12
REMARK    5  A    between atoms: C_16  and  O_17
REMARK    6  A    between atoms: C_18  and  O_19
REMARK    7  A    between atoms: C_25  and  O_26
REMARK    8  A    between atoms: C_27  and  O_28
REMARK                            x       y       z     vdW  Elec       q    Type
REMARK                         _______ _______ _______ _____ _____    ______ ____
ROOT
ATOM      1  C   UNL     1       2.384   7.070  19.262  0.00  0.00    +0.000 A 
ATOM      2  C   UNL     1       2.461   6.081  20.244  0.00  0.00    +0.000 A 
ATOM      3  C   UNL     1       3.242   4.954  20.050  0.00  0.00    +0.000 A 
ATOM      4  C   UNL     1       3.950   4.797  18.864  0.00  0.00    +0.000 A 
ATOM      5  C   UNL     1       3.882   5.751  17.844  0.00  0.00    +0.000 A 
ATOM      6  C   UNL     1       3.081   6.886  18.049  0.00  0.00    +0.000 A 
ENDROOT
BRANCH   1   9
ATOM      7  O   UNL     1       1.980   9.332  17.407  0.00  0.00    +0.000 OA
ATOM      8  C   UNL     1       1.487   9.280  18.532  0.00  0.00    +0.000 C 
ATOM      9  N   UNL     1       1.626   8.246  19.444  0.00  0.00    +0.000 N 
ATOM     10  H   UNL     1       1.036   8.302  20.272  0.00  0.00    +0.000 HD
BRANCH   8  11
ATOM     11  C   UNL     1       0.652  10.436  18.954  0.00  0.00    +0.000 A 
ATOM     12  C   UNL     1       1.087  11.176  20.069  0.00  0.00    +0.000 A 
ATOM     13  C   UNL     1       0.381  12.300  20.504  0.00  0.00    +0.000 A 
ATOM     14  C   UNL     1      -0.765  12.709  19.824  0.00  0.00    +0.000 A 
ATOM     15  C   UNL     1      -1.193  11.980  18.719  0.00  0.00    +0.000 A 
ATOM     16  C   UNL     1      -0.500  10.847  18.287  0.00  0.00    +0.000 A 
BRANCH  15  17
ATOM     17  O   UNL     1      -2.301  12.346  18.003  0.00  0.00    +0.000 OA
ATOM     18  H   UNL     1      -2.883  11.569  17.928  0.00  0.00    +0.000 HD
ENDBRANCH  15  17
BRANCH  16  19
ATOM     19  O   UNL     1      -0.980  10.180  17.187  0.00  0.00    +0.000 OA
ATOM     20  H   UNL     1      -1.405   9.377  17.557  0.00  0.00    +0.000 HD
ENDBRANCH  16  19
ENDBRANCH   8  11
ENDBRANCH   1   9
BRANCH   5  21
ATOM     21  N   UNL     1       4.608   5.620  16.631  0.00  0.00    +0.000 N 
ATOM     22  C   UNL     1       5.042   4.428  16.069  0.00  0.00    +0.000 C 
ATOM     23  O   UNL     1       4.826   3.306  16.525  0.00  0.00    +0.000 OA
ATOM     24  H   UNL     1       4.853   6.470  16.126  0.00  0.00    +0.000 HD
BRANCH  22  25
ATOM     25  C   UNL     1       5.846   4.483  14.813  0.00  0.00    +0.000 A 
ATOM     26  C   UNL     1       5.383   3.694  13.738  0.00  0.00    +0.000 A 
ATOM     27  C   UNL     1       6.063   3.643  12.520  0.00  0.00    +0.000 A 
ATOM     28  C   UNL     1       7.228   4.382  12.350  0.00  0.00    +0.000 A 
ATOM     29  C   UNL     1       7.691   5.164  13.404  0.00  0.00    +0.000 A 
ATOM     30  C   UNL     1       7.010   5.225  14.628  0.00  0.00    +0.000 A 
BRANCH  29  31
ATOM     31  O   UNL     1       8.841   5.899  13.286  0.00  0.00    +0.000 OA
ATOM     32  H   UNL     1       8.605   6.770  12.919  0.00  0.00    +0.000 HD
ENDBRANCH  29  31
BRANCH  30  33
ATOM     33  O   UNL     1       7.534   6.024  15.613  0.00  0.00    +0.000 OA
ATOM     34  H   UNL     1       8.399   5.610  15.824  0.00  0.00    +0.000 HD
ENDBRANCH  30  33
ENDBRANCH  22  25
ENDBRANCH   5  21
TORSDOF 8
ENDMDL
MODEL 6
REMARK VINA RESULT:      -8.4      1.515      1.849
REMARK  Name = 
REMARK  8 active torsions:
REMARK  status: ('A' for Active; 'I' for Inactive)
REMARK    1  A    between atoms: C_2  and  C_21
REMARK    2  A    between atoms: N_3  and  C_4
REMARK    3  A    between atoms: C_8  and  N_9
REMARK    4  A    between atoms: C_10  and  C_12
REMARK    5  A    between atoms: C_16  and  O_17
REMARK    6  A    between atoms: C_18  and  O_19
REMARK    7  A    between atoms: C_25  and  O_26
REMARK    8  A    between atoms: C_27  and  O_28
REMARK                            x       y       z     vdW  Elec       q    Type
REMARK                         _______ _______ _______ _____ _____    ______ ____
ROOT
ATOM      1  C   UNL     1       4.027   5.442  17.727  0.00  0.00    +0.000 A 
ATOM      2  C   UNL     1       3.915   4.384  18.630  0.00  0.00    +0.000 A 
ATOM      3  C   UNL     1       3.155   4.516  19.780  0.00  0.00    +0.000 A 
ATOM      4  C   UNL     1       2.504   5.715  20.047  0.00  0.00    +0.000 A 
ATOM      5  C   UNL     1       2.608   6.809  19.182  0.00  0.00    +0.000 A 
ATOM      6  C   UNL     1       3.387   6.665  18.023  0.00  0.00    +0.000 A 
ENDROOT
BRANCH   1   9
ATOM      7  O   UNL     1       5.003   3.009  16.367  0.00  0.00    +0.000 OA
ATOM      8  C   UNL     1       5.202   4.147  15.949  0.00  0.00    +0.000 C 
ATOM      9  N   UNL     1       4.763   5.326  16.529  0.00  0.00    +0.000 N 
ATOM     10  H   UNL     1       4.897   6.170  15.976  0.00  0.00    +0.000 HD
BRANCH   8  11
ATOM     11  C   UNL     1       5.985   4.272  14.691  0.00  0.00    +0.000 A 
ATOM     12  C   UNL     1       5.521   3.565  13.566  0.00  0.00    +0.000 A 
ATOM     13  C   UNL     1       6.176   3.661  12.336  0.00  0.00    +0.000 A 
ATOM     14  C   UNL     1       7.299   4.477  12.208  0.00  0.00    +0.000 A 
ATOM     15  C   UNL     1       7.756   5.180  13.319  0.00  0.00    +0.000 A 
ATOM     16  C   UNL     1       7.114   5.076  14.555  0.00  0.00    +0.000 A 
BRANCH  15  17
ATOM     17  O   UNL     1       8.843   6.009  13.246  0.00  0.00    +0.000 OA
ATOM     18  H   UNL     1       8.895   6.512  14.079  0.00  0.00    +0.000 HD
ENDBRANCH  15  17
BRANCH  16  19
ATOM     19  O   UNL     1       7.619   5.802  15.605  0.00  0.00    +0.000 OA
ATOM     20  H   UNL     1       6.888   5.823  16.259  0.00  0.00    +0.000 HD
ENDBRANCH  16  19
ENDBRANCH   8  11
ENDBRANCH   1   9
BRANCH   5  21
ATOM     21  N   UNL     1       1.941   8.037  19.426  0.00  0.00    +0.000 N 
ATOM     22  C   UNL     1       1.242   8.367  20.578  0.00  0.00    +0.000 C 
ATOM     23  O   UNL     1       1.132   7.652  21.573  0.00  0.00    +0.000 OA
ATOM     24  H   UNL     1       1.954   8.742  18.690  0.00  0.00    +0.000 HD
BRANCH  22  25
ATOM     25  C   UNL     1       0.550   9.688  20.638  0.00  0.00    +0.000 A 
ATOM     26  C   UNL     1       0.101  10.218  19.409  0.00  0.00    +0.000 A 
ATOM     27  C   UNL     1      -0.537  11.456  19.334  0.00  0.00    +0.000 A 
ATOM     28  C   UNL     1      -0.741  12.197  20.493  0.00  0.00    +0.000 A 
ATOM     29  C   UNL     1      -0.304  11.683  21.709  0.00  0.00    +0.000 A 
ATOM     30  C   UNL     1       0.333  10.436  21.793  0.00  0.00    +0.000 A 
BRANCH  29  31
ATOM     31  O   UNL     1      -0.472  12.383  22.874  0.00  0.00    +0.000 OA
ATOM     32  H   UNL     1       0.411  12.608  23.219  0.00  0.00    +0.000 HD
ENDBRANCH  29  31
BRANCH  30  33
ATOM     33  O   UNL     1       0.729  10.002  23.033  0.00  0.00    +0.000 OA
ATOM     34  H   UNL     1       0.508   9.045  23.035  0.00  0.00    +0.000 HD
ENDBRANCH  30  33
ENDBRANCH  22  25
ENDBRANCH   5  21
TORSDOF 8
ENDMDL
MODEL 7
REMARK VINA RESULT:      -8.4      1.240      9.342
REMARK  Name = 
REMARK  8 active torsions:
REMARK  status: ('A' for Active; 'I' for Inactive)
REMARK    1  A    between atoms: C_2  and  C_21
REMARK    2  A    between atoms: N_3  and  C_4
REMARK    3  A    between atoms: C_8  and  N_9
REMARK    4  A    between atoms: C_10  and  C_12
REMARK    5  A    between atoms: C_16  and  O_17
REMARK    6  A    between atoms: C_18  and  O_19
REMARK    7  A    between atoms: C_25  and  O_26
REMARK    8  A    between atoms: C_27  and  O_28
REMARK                            x       y       z     vdW  Elec       q    Type
REMARK                         _______ _______ _______ _____ _____    ______ ____
ROOT
ATOM      1  C   UNL     1       2.553   6.895  19.242  0.00  0.00    +0.000 A 
ATOM      2  C   UNL     1       2.536   5.838  20.151  0.00  0.00    +0.000 A 
ATOM      3  C   UNL     1       3.242   4.675  19.893  0.00  0.00    +0.000 A 
ATOM      4  C   UNL     1       3.968   4.552  18.714  0.00  0.00    +0.000 A 
ATOM      5  C   UNL     1       3.992   5.577  17.763  0.00  0.00    +0.000 A 
ATOM      6  C   UNL     1       3.266   6.748  18.033  0.00  0.00    +0.000 A 
ENDROOT
BRANCH   1   9
ATOM      7  O   UNL     1       2.010   9.142  17.404  0.00  0.00    +0.000 OA
ATOM      8  C   UNL     1       1.662   9.130  18.582  0.00  0.00    +0.000 C 
ATOM      9  N   UNL     1       1.873   8.107  19.492  0.00  0.00    +0.000 N 
ATOM     10  H   UNL     1       1.396   8.203  20.386  0.00  0.00    +0.000 HD
BRANCH   8  11
ATOM     11  C   UNL     1       0.936  10.328  19.080  0.00  0.00    +0.000 A 
ATOM     12  C   UNL     1      -0.102  10.117  20.007  0.00  0.00    +0.000 A 
ATOM     13  C   UNL     1      -0.806  11.193  20.553  0.00  0.00    +0.000 A 
ATOM     14  C   UNL     1      -0.475  12.498  20.192  0.00  0.00    +0.000 A 
ATOM     15  C   UNL     1       0.554  12.707  19.279  0.00  0.00    +0.000 A 
ATOM     16  C   UNL     1       1.253  11.636  18.718  0.00  0.00    +0.000 A 
BRANCH  15  17
ATOM     17  O   UNL     1       0.934  13.967  18.902  0.00  0.00    +0.000 OA
ATOM     18  H   UNL     1       0.192  14.573  19.079  0.00  0.00    +0.000 HD
ENDBRANCH  15  17
BRANCH  16  19
ATOM     19  O   UNL     1       2.258  11.919  17.828  0.00  0.00    +0.000 OA
ATOM     20  H   UNL     1       1.789  12.207  17.016  0.00  0.00    +0.000 HD
ENDBRANCH  16  19
ENDBRANCH   8  11
ENDBRANCH   1   9
BRANCH   5  21
ATOM     21  N   UNL     1       4.737   5.480  16.559  0.00  0.00    +0.000 N 
ATOM     22  C   UNL     1       5.081   4.303  15.909  0.00  0.00    +0.000 C 
ATOM     23  O   UNL     1       4.754   3.172  16.266  0.00  0.00    +0.000 OA
ATOM     24  H   UNL     1       5.070   6.343  16.132  0.00  0.00    +0.000 HD
BRANCH  22  25
ATOM     25  C   UNL     1       5.921   4.388  14.679  0.00  0.00    +0.000 A 
ATOM     26  C   UNL     1       5.512   3.595  13.585  0.00  0.00    +0.000 A 
ATOM     27  C   UNL     1       6.230   3.570  12.389  0.00  0.00    +0.000 A 
ATOM     28  C   UNL     1       7.381   4.340  12.260  0.00  0.00    +0.000 A 
ATOM     29  C   UNL     1       7.791   5.126  13.333  0.00  0.00    +0.000 A 
ATOM     30  C   UNL     1       7.071   5.161  14.536  0.00  0.00    +0.000 A 
BRANCH  29  31
ATOM     31  O   UNL     1       8.925   5.890  13.255  0.00  0.00    +0.000 OA
ATOM     32  H   UNL     1       8.708   6.700  12.758  0.00  0.00    +0.000 HD
ENDBRANCH  29  31
BRANCH  30  33
ATOM     33  O   UNL     1       7.544   5.966  15.541  0.00  0.00    +0.000 OA
ATOM     34  H   UNL     1       8.164   5.390  16.038  0.00  0.00    +0.000 HD
ENDBRANCH  30  33
ENDBRANCH  22  25
ENDBRANCH   5  21
TORSDOF 8
ENDMDL
MODEL 8
REMARK VINA RESULT:      -8.4      1.738      9.362
REMARK  Name = 
REMARK  8 active torsions:
REMARK  status: ('A' for Active; 'I' for Inactive)
REMARK    1  A    between atoms: C_2  and  C_21
REMARK    2  A    between atoms: N_3  and  C_4
REMARK    3  A    between atoms: C_8  and  N_9
REMARK    4  A    between atoms: C_10  and  C_12
REMARK    5  A    between atoms: C_16  and  O_17
REMARK    6  A    between atoms: C_18  and  O_19
REMARK    7  A    between atoms: C_25  and  O_26
REMARK    8  A    between atoms: C_27  and  O_28
REMARK                            x       y       z     vdW  Elec       q    Type
REMARK                         _______ _______ _______ _____ _____    ______ ____
ROOT
ATOM      1  C   UNL     1       2.030   5.603  19.872  0.00  0.00    +0.000 A 
ATOM      2  C   UNL     1       2.038   4.493  20.717  0.00  0.00    +0.000 A 
ATOM      3  C   UNL     1       2.707   3.336  20.355  0.00  0.00    +0.000 A 
ATOM      4  C   UNL     1       3.372   3.273  19.135  0.00  0.00    +0.000 A 
ATOM      5  C   UNL     1       3.369   4.353  18.247  0.00  0.00    +0.000 A 
ATOM      6  C   UNL     1       2.680   5.518  18.622  0.00  0.00    +0.000 A 
ENDROOT
BRANCH   1   9
ATOM      7  O   UNL     1       2.369   8.305  18.729  0.00  0.00    +0.000 OA
ATOM      8  C   UNL     1       1.603   8.051  19.655  0.00  0.00    +0.000 C 
ATOM      9  N   UNL     1       1.387   6.809  20.228  0.00  0.00    +0.000 N 
ATOM     10  H   UNL     1       0.616   6.753  20.890  0.00  0.00    +0.000 HD
BRANCH   8  11
ATOM     11  C   UNL     1       0.823   9.188  20.212  0.00  0.00    +0.000 A 
ATOM     12  C   UNL     1       0.085   9.973  19.306  0.00  0.00    +0.000 A 
ATOM     13  C   UNL     1      -0.706  11.034  19.753  0.00  0.00    +0.000 A 
ATOM     14  C   UNL     1      -0.781  11.320  21.115  0.00  0.00    +0.000 A 
ATOM     15  C   UNL     1      -0.055  10.542  22.011  0.00  0.00    +0.000 A 
ATOM     16  C   UNL     1       0.749   9.489  21.570  0.00  0.00    +0.000 A 
BRANCH  15  17
ATOM     17  O   UNL     1      -0.105  10.766  23.362  0.00  0.00    +0.000 OA
ATOM     18  H   UNL     1      -1.041  10.835  23.622  0.00  0.00    +0.000 HD
ENDBRANCH  15  17
BRANCH  16  19
ATOM     19  O   UNL     1       1.433   8.763  22.513  0.00  0.00    +0.000 OA
ATOM     20  H   UNL     1       1.813   8.011  22.010  0.00  0.00    +0.000 HD
ENDBRANCH  16  19
ENDBRANCH   8  11
ENDBRANCH   1   9
BRANCH   5  21
ATOM     21  N   UNL     1       4.052   4.317  17.003  0.00  0.00    +0.000 N 
ATOM     22  C   UNL     1       5.415   4.503  16.820  0.00  0.00    +0.000 C 
ATOM     23  O   UNL     1       6.235   4.690  17.718  0.00  0.00    +0.000 OA
ATOM     24  H   UNL     1       3.502   4.158  16.161  0.00  0.00    +0.000 HD
BRANCH  22  25
ATOM     25  C   UNL     1       5.955   4.489  15.429  0.00  0.00    +0.000 A 
ATOM     26  C   UNL     1       5.298   3.644  14.510  0.00  0.00    +0.000 A 
ATOM     27  C   UNL     1       5.725   3.525  13.187  0.00  0.00    +0.000 A 
ATOM     28  C   UNL     1       6.828   4.253  12.752  0.00  0.00    +0.000 A 
ATOM     29  C   UNL     1       7.481   5.091  13.651  0.00  0.00    +0.000 A 
ATOM     30  C   UNL     1       7.053   5.219  14.980  0.00  0.00    +0.000 A 
BRANCH  29  31
ATOM     31  O   UNL     1       8.578   5.817  13.270  0.00  0.00    +0.000 OA
ATOM     32  H   UNL     1       8.837   5.524  12.378  0.00  0.00    +0.000 HD
ENDBRANCH  29  31
BRANCH  30  33
ATOM     33  O   UNL     1       7.753   6.070  15.798  0.00  0.00    +0.000 OA
ATOM     34  H   UNL     1       8.689   5.803  15.678  0.00  0.00    +0.000 HD
ENDBRANCH  30  33
ENDBRANCH  22  25
ENDBRANCH   5  21
TORSDOF 8
ENDMDL
MODEL 9
REMARK VINA RESULT:      -8.4      1.794      2.226
REMARK  Name = 
REMARK  8 active torsions:
REMARK  status: ('A' for Active; 'I' for Inactive)
REMARK    1  A    between atoms: C_2  and  C_21
REMARK    2  A    between atoms: N_3  and  C_4
REMARK    3  A    between atoms: C_8  and  N_9
REMARK    4  A    between atoms: C_10  and  C_12
REMARK    5  A    between atoms: C_16  and  O_17
REMARK    6  A    between atoms: C_18  and  O_19
REMARK    7  A    between atoms: C_25  and  O_26
REMARK    8  A    between atoms: C_27  and  O_28
REMARK                            x       y       z     vdW  Elec       q    Type
REMARK                         _______ _______ _______ _____ _____    ______ ____
ROOT
ATOM      1  C   UNL     1       3.226   5.371  18.530  0.00  0.00    +0.000 A 
ATOM      2  C   UNL     1       2.945   4.361  19.451  0.00  0.00    +0.000 A 
ATOM      3  C   UNL     1       2.213   4.634  20.594  0.00  0.00    +0.000 A 
ATOM      4  C   UNL     1       1.761   5.926  20.837  0.00  0.00    +0.000 A 
ATOM      5  C   UNL     1       2.041   6.973  19.953  0.00  0.00    +0.000 A 
ATOM      6  C   UNL     1       2.789   6.686  18.800  0.00  0.00    +0.000 A 
ENDROOT
BRANCH   1   9
ATOM      7  O   UNL     1       6.117   4.905  18.149  0.00  0.00    +0.000 OA
ATOM      8  C   UNL     1       5.304   4.918  17.228  0.00  0.00    +0.000 C 
ATOM      9  N   UNL     1       3.938   5.117  17.337  0.00  0.00    +0.000 N 
ATOM     10  H   UNL     1       3.396   4.956  16.492  0.00  0.00    +0.000 HD
BRANCH   8  11
ATOM     11  C   UNL     1       5.838   4.689  15.858  0.00  0.00    +0.000 A 
ATOM     12  C   UNL     1       5.132   3.797  15.029  0.00  0.00    +0.000 A 
ATOM     13  C   UNL     1       5.545   3.558  13.716  0.00  0.00    +0.000 A 
ATOM     14  C   UNL     1       6.662   4.217  13.207  0.00  0.00    +0.000 A 
ATOM     15  C   UNL     1       7.357   5.102  14.025  0.00  0.00    +0.000 A 
ATOM     16  C   UNL     1       6.959   5.335  15.343  0.00  0.00    +0.000 A 
BRANCH  15  17
ATOM     17  O   UNL     1       8.451   5.791  13.571  0.00  0.00    +0.000 OA
ATOM     18  H   UNL     1       8.406   6.697  13.926  0.00  0.00    +0.000 HD
ENDBRANCH  15  17
BRANCH  16  19
ATOM     19  O   UNL     1       7.691   6.225  16.089  0.00  0.00    +0.000 OA
ATOM     20  H   UNL     1       7.141   6.384  16.885  0.00  0.00    +0.000 HD
ENDBRANCH  16  19
ENDBRANCH   8  11
ENDBRANCH   1   9
BRANCH   5  21
ATOM     21  N   UNL     1       1.577   8.297  20.171  0.00  0.00    +0.000 N 
ATOM     22  C   UNL     1       0.485   8.657  20.948  0.00  0.00    +0.000 C 
ATOM     23  O   UNL     1      -0.217   7.879  21.592  0.00  0.00    +0.000 OA
ATOM     24  H   UNL     1       2.071   9.058  19.708  0.00  0.00    +0.000 HD
BRANCH  22  25
ATOM     25  C   UNL     1       0.105  10.098  21.019  0.00  0.00    +0.000 A 
ATOM     26  C   UNL     1       0.043  10.791  19.791  0.00  0.00    +0.000 A 
ATOM     27  C   UNL     1      -0.277  12.148  19.730  0.00  0.00    +0.000 A 
ATOM     28  C   UNL     1      -0.541  12.846  20.903  0.00  0.00    +0.000 A 
ATOM     29  C   UNL     1      -0.483  12.171  22.119  0.00  0.00    +0.000 A 
ATOM     30  C   UNL     1      -0.168  10.806  22.187  0.00  0.00    +0.000 A 
BRANCH  29  31
ATOM     31  O   UNL     1      -0.723  12.822  23.300  0.00  0.00    +0.000 OA
ATOM     32  H   UNL     1      -0.976  12.155  23.964  0.00  0.00    +0.000 HD
ENDBRANCH  29  31
BRANCH  30  33
ATOM     33  O   UNL     1      -0.137  10.218  23.426  0.00  0.00    +0.000 OA
ATOM     34  H   UNL     1      -1.056  10.312  23.759  0.00  0.00    +0.000 HD
ENDBRANCH  30  33
ENDBRANCH  22  25
ENDBRANCH   5  21
TORSDOF 8
ENDMDL
