MODEL 1
REMARK VINA RESULT:      -7.6      0.000      0.000
REMARK  Name = 
REMARK  5 active torsions:
REMARK  status: ('A' for Active; 'I' for Inactive)
REMARK    1  A    between atoms: C_2  and  O_3
REMARK    2  A    between atoms: C_2  and  C_4
REMARK    3  A    between atoms: C_9  and  C_10
REMARK    4  A    between atoms: N_11  and  N_12
REMARK    5  A    between atoms: N_15  and  C_16
REMARK                            x       y       z     vdW  Elec       q    Type
REMARK                         _______ _______ _______ _____ _____    ______ ____
ROOT
ATOM      1  N   UNL     1       1.614   9.431  18.253  0.00  0.00    +0.000 N 
ATOM      2  C   UNL     1       1.913  10.882  18.217  0.00  0.00    +0.000 C 
ATOM      3  C   UNL     1       0.699  11.776  18.557  0.00  0.00    +0.000 C 
ATOM      4  N   UNL     1      -0.014  11.432  19.798  0.00  0.00    +0.000 NA
ATOM      5  C   UNL     1      -0.311   9.986  19.725  0.00  0.00    +0.000 C 
ATOM      6  C   UNL     1       0.938   9.116  19.533  0.00  0.00    +0.000 C 
ENDROOT
BRANCH   4   7
ATOM      7  C   UNL     1       0.640  11.823  21.071  0.00  0.00    +0.000 C 
ATOM      8  C   UNL     1       1.326  13.206  21.018  0.00  0.00    +0.000 A 
ATOM      9  C   UNL     1       2.593  13.535  20.552  0.00  0.00    +0.000 A 
ATOM     10  C   UNL     1       3.077  14.826  20.786  0.00  0.00    +0.000 A 
ATOM     11  C   UNL     1       2.305  15.761  21.493  0.00  0.00    +0.000 A 
ATOM     12  C   UNL     1       1.023  15.438  21.940  0.00  0.00    +0.000 A 
ATOM     13  C   UNL     1       0.532  14.169  21.679  0.00  0.00    +0.000 A 
ATOM     14  C   UNL     1      -0.646  13.520  22.200  0.00  0.00    +0.000 A 
ATOM     15  C   UNL     1      -1.811  14.033  22.738  0.00  0.00    +0.000 A 
ATOM     16  C   UNL     1      -2.714  13.144  23.326  0.00  0.00    +0.000 A 
ATOM     17  C   UNL     1      -2.396  11.782  23.450  0.00  0.00    +0.000 A 
ATOM     18  C   UNL     1      -1.250  11.264  22.848  0.00  0.00    +0.000 A 
ATOM     19  C   UNL     1      -0.453  12.130  22.115  0.00  0.00    +0.000 A 
ENDBRANCH   4   7
BRANCH   1  21
ATOM     20  C   UNL     1       2.383   7.363  18.076  0.00  0.00    +0.000 C 
ATOM     21  N   UNL     1       2.666   8.620  17.935  0.00  0.00    +0.000 NA
BRANCH  20  27
ATOM     22  C   UNL     1       3.097   4.931  17.975  0.00  0.00    +0.000 A 
ATOM     23  C   UNL     1       4.135   4.000  17.786  0.00  0.00    +0.000 A 
ATOM     24  C   UNL     1       5.431   4.435  17.462  0.00  0.00    +0.000 A 
ATOM     25  C   UNL     1       5.683   5.797  17.304  0.00  0.00    +0.000 A 
ATOM     26  C   UNL     1       4.655   6.727  17.478  0.00  0.00    +0.000 A 
ATOM     27  C   UNL     1       3.372   6.299  17.842  0.00  0.00    +0.000 A 
BRANCH  22  29
ATOM     28  O   UNL     1       0.986   4.179  17.171  0.00  0.00    +0.000 OA
ATOM     29  C   UNL     1       1.711   4.421  18.120  0.00  0.00    +0.000 C 
BRANCH  29  30
ATOM     30  O   UNL     1       1.382   4.126  19.398  0.00  0.00    +0.000 OA
ATOM     31  H   UNL     1       0.545   4.516  19.710  0.00  0.00    +0.000 HD
ENDBRANCH  29  30
ENDBRANCH  22  29
ENDBRANCH  20  27
ENDBRANCH   1  21
TORSDOF 5
ENDMDL
MODEL 2
REMARK VINA RESULT:      -7.6      1.261      1.479
REMARK  Name = 
REMARK  5 active torsions:
REMARK  status: ('A' for Active; 'I' for Inactive)
REMARK    1  A    between atoms: C_2  and  O_3
REMARK    2  A    between atoms: C_2  and  C_4
REMARK    3  A    between atoms: C_9  and  C_10
REMARK    4  A    between atoms: N_11  and  N_12
REMARK    5  A    between atoms: N_15  and  C_16
REMARK                            x       y       z     vdW  Elec       q    Type
REMARK                         _______ _______ _______ _____ _____    ______ ____
ROOT
ATOM      1  N   UNL     1       1.232   8.665  19.351  0.00  0.00    +0.000 N 
ATOM      2  C   UNL     1       1.403   9.850  18.478  0.00  0.00    +0.000 C 
ATOM      3  C   UNL     1       0.239  10.862  18.571  0.00  0.00    +0.000 C 
ATOM      4  N   UNL     1      -0.131  11.280  19.934  0.00  0.00    +0.000 NA
ATOM      5  C   UNL     1      -0.325  10.040  20.715  0.00  0.00    +0.000 C 
ATOM      6  C   UNL     1       0.905   9.124  20.721  0.00  0.00    +0.000 C 
ENDROOT
BRANCH   4   7
ATOM      7  C   UNL     1       0.774  12.246  20.603  0.00  0.00    +0.000 C 
ATOM      8  C   UNL     1       1.389  13.288  19.642  0.00  0.00    +0.000 A 
ATOM      9  C   UNL     1       2.513  13.173  18.832  0.00  0.00    +0.000 A 
ATOM     10  C   UNL     1       2.996  14.320  18.193  0.00  0.00    +0.000 A 
ATOM     11  C   UNL     1       2.370  15.562  18.383  0.00  0.00    +0.000 A 
ATOM     12  C   UNL     1       1.227  15.673  19.178  0.00  0.00    +0.000 A 
ATOM     13  C   UNL     1       0.730  14.530  19.784  0.00  0.00    +0.000 A 
ATOM     14  C   UNL     1      -0.284  14.403  20.801  0.00  0.00    +0.000 A 
ATOM     15  C   UNL     1      -1.317  15.242  21.172  0.00  0.00    +0.000 A 
ATOM     16  C   UNL     1      -2.042  14.927  22.325  0.00  0.00    +0.000 A 
ATOM     17  C   UNL     1      -1.663  13.843  23.131  0.00  0.00    +0.000 A 
ATOM     18  C   UNL     1      -0.661  12.965  22.715  0.00  0.00    +0.000 A 
ATOM     19  C   UNL     1      -0.071  13.191  21.481  0.00  0.00    +0.000 A 
ENDBRANCH   4   7
BRANCH   1  21
ATOM     20  C   UNL     1       2.483   7.382  18.049  0.00  0.00    +0.000 C 
ATOM     21  N   UNL     1       2.238   7.743  19.270  0.00  0.00    +0.000 NA
BRANCH  20  27
ATOM     22  C   UNL     1       3.283   4.983  17.857  0.00  0.00    +0.000 A 
ATOM     23  C   UNL     1       4.336   4.098  17.561  0.00  0.00    +0.000 A 
ATOM     24  C   UNL     1       5.576   4.588  17.120  0.00  0.00    +0.000 A 
ATOM     25  C   UNL     1       5.755   5.960  16.951  0.00  0.00    +0.000 A 
ATOM     26  C   UNL     1       4.712   6.846  17.231  0.00  0.00    +0.000 A 
ATOM     27  C   UNL     1       3.488   6.362  17.713  0.00  0.00    +0.000 A 
BRANCH  22  29
ATOM     28  O   UNL     1       1.265   3.860  17.280  0.00  0.00    +0.000 OA
ATOM     29  C   UNL     1       1.939   4.415  18.130  0.00  0.00    +0.000 C 
BRANCH  29  30
ATOM     30  O   UNL     1       1.598   4.455  19.437  0.00  0.00    +0.000 OA
ATOM     31  H   UNL     1       2.183   4.992  20.001  0.00  0.00    +0.000 HD
ENDBRANCH  29  30
ENDBRANCH  22  29
ENDBRANCH  20  27
ENDBRANCH   1  21
TORSDOF 5
ENDMDL
MODEL 3
REMARK VINA RESULT:      -7.5      1.490      1.634
REMARK  Name = 
REMARK  5 active torsions:
REMARK  status: ('A' for Active; 'I' for Inactive)
REMARK    1  A    between atoms: C_2  and  O_3
REMARK    2  A    between atoms: C_2  and  C_4
REMARK    3  A    between atoms: C_9  and  C_10
REMARK    4  A    between atoms: N_11  and  N_12
REMARK    5  A    between atoms: N_15  and  C_16
REMARK                            x       y       z     vdW  Elec       q    Type
REMARK                         _______ _______ _______ _____ _____    ______ ____
ROOT
ATOM      1  N   UNL     1       1.844   7.973  19.145  0.00  0.00    +0.000 N 
ATOM      2  C   UNL     1       1.871   9.213  18.334  0.00  0.00    +0.000 C 
ATOM      3  C   UNL     1       0.555  10.021  18.393  0.00  0.00    +0.000 C 
ATOM      4  N   UNL     1       0.046  10.306  19.745  0.00  0.00    +0.000 NA
ATOM      5  C   UNL     1       0.010   9.013  20.460  0.00  0.00    +0.000 C 
ATOM      6  C   UNL     1       1.370   8.305  20.508  0.00  0.00    +0.000 C 
ENDROOT
BRANCH   4   7
ATOM      7  C   UNL     1       0.743  11.369  20.508  0.00  0.00    +0.000 C 
ATOM      8  C   UNL     1       1.131  12.596  19.653  0.00  0.00    +0.000 A 
ATOM      9  C   UNL     1       2.249  12.783  18.849  0.00  0.00    +0.000 A 
ATOM     10  C   UNL     1       2.488  14.056  18.322  0.00  0.00    +0.000 A 
ATOM     11  C   UNL     1       1.627  15.125  18.618  0.00  0.00    +0.000 A 
ATOM     12  C   UNL     1       0.491  14.932  19.405  0.00  0.00    +0.000 A 
ATOM     13  C   UNL     1       0.237  13.662  19.900  0.00  0.00    +0.000 A 
ATOM     14  C   UNL     1      -0.724  13.243  20.890  0.00  0.00    +0.000 A 
ATOM     15  C   UNL     1      -1.902  13.820  21.324  0.00  0.00    +0.000 A 
ATOM     16  C   UNL     1      -2.540  13.263  22.434  0.00  0.00    +0.000 A 
ATOM     17  C   UNL     1      -1.946  12.208  23.143  0.00  0.00    +0.000 A 
ATOM     18  C   UNL     1      -0.792  11.590  22.660  0.00  0.00    +0.000 A 
ATOM     19  C   UNL     1      -0.268  12.041  21.459  0.00  0.00    +0.000 A 
ENDBRANCH   4   7
BRANCH   1  21
ATOM     20  C   UNL     1       3.404   7.043  17.877  0.00  0.00    +0.000 C 
ATOM     21  N   UNL     1       2.988   7.228  19.092  0.00  0.00    +0.000 NA
BRANCH  20  27
ATOM     22  C   UNL     1       4.625   4.831  17.656  0.00  0.00    +0.000 A 
ATOM     23  C   UNL     1       5.830   4.156  17.388  0.00  0.00    +0.000 A 
ATOM     24  C   UNL     1       6.981   4.873  17.022  0.00  0.00    +0.000 A 
ATOM     25  C   UNL     1       6.921   6.260  16.902  0.00  0.00    +0.000 A 
ATOM     26  C   UNL     1       5.726   6.937  17.156  0.00  0.00    +0.000 A 
ATOM     27  C   UNL     1       4.587   6.228  17.562  0.00  0.00    +0.000 A 
BRANCH  22  29
ATOM     28  O   UNL     1       2.858   3.402  16.945  0.00  0.00    +0.000 OA
ATOM     29  C   UNL     1       3.393   4.026  17.845  0.00  0.00    +0.000 C 
BRANCH  29  30
ATOM     30  O   UNL     1       3.001   3.943  19.137  0.00  0.00    +0.000 OA
ATOM     31  H   UNL     1       3.140   3.075  19.556  0.00  0.00    +0.000 HD
ENDBRANCH  29  30
ENDBRANCH  22  29
ENDBRANCH  20  27
ENDBRANCH   1  21
TORSDOF 5
ENDMDL
MODEL 4
REMARK VINA RESULT:      -7.5      4.733      8.124
REMARK  Name = 
REMARK  5 active torsions:
REMARK  status: ('A' for Active; 'I' for Inactive)
REMARK    1  A    between atoms: C_2  and  O_3
REMARK    2  A    between atoms: C_2  and  C_4
REMARK    3  A    between atoms: C_9  and  C_10
REMARK    4  A    between atoms: N_11  and  N_12
REMARK    5  A    between atoms: N_15  and  C_16
REMARK                            x       y       z     vdW  Elec       q    Type
REMARK                         _______ _______ _______ _____ _____    ______ ____
ROOT
ATOM      1  N   UNL     1       6.662   5.289  16.676  0.00  0.00    +0.000 N 
ATOM      2  C   UNL     1       6.112   4.407  17.732  0.00  0.00    +0.000 C 
ATOM      3  C   UNL     1       5.610   5.169  18.979  0.00  0.00    +0.000 C 
ATOM      4  N   UNL     1       4.686   6.284  18.711  0.00  0.00    +0.000 NA
ATOM      5  C   UNL     1       5.334   7.130  17.688  0.00  0.00    +0.000 C 
ATOM      6  C   UNL     1       5.687   6.371  16.403  0.00  0.00    +0.000 C 
ENDROOT
BRANCH   4   7
ATOM      7  C   UNL     1       3.291   5.922  18.361  0.00  0.00    +0.000 C 
ATOM      8  C   UNL     1       2.758   4.689  19.126  0.00  0.00    +0.000 A 
ATOM      9  C   UNL     1       2.921   3.341  18.831  0.00  0.00    +0.000 A 
ATOM     10  C   UNL     1       2.180   2.403  19.558  0.00  0.00    +0.000 A 
ATOM     11  C   UNL     1       1.277   2.820  20.550  0.00  0.00    +0.000 A 
ATOM     12  C   UNL     1       1.132   4.173  20.862  0.00  0.00    +0.000 A 
ATOM     13  C   UNL     1       1.891   5.098  20.163  0.00  0.00    +0.000 A 
ATOM     14  C   UNL     1       1.782   6.536  20.137  0.00  0.00    +0.000 A 
ATOM     15  C   UNL     1       1.235   7.428  21.040  0.00  0.00    +0.000 A 
ATOM     16  C   UNL     1       1.120   8.767  20.657  0.00  0.00    +0.000 A 
ATOM     17  C   UNL     1       1.461   9.168  19.356  0.00  0.00    +0.000 A 
ATOM     18  C   UNL     1       2.072   8.275  18.476  0.00  0.00    +0.000 A 
ATOM     19  C   UNL     1       2.342   6.995  18.932  0.00  0.00    +0.000 A 
ENDBRANCH   4   7
BRANCH   1  21
ATOM     20  C   UNL     1       6.322   4.718  14.564  0.00  0.00    +0.000 C 
ATOM     21  N   UNL     1       7.134   4.638  15.572  0.00  0.00    +0.000 NA
BRANCH  20  27
ATOM     22  C   UNL     1       7.386   4.594  12.266  0.00  0.00    +0.000 A 
ATOM     23  C   UNL     1       7.524   3.897  11.052  0.00  0.00    +0.000 A 
ATOM     24  C   UNL     1       6.873   2.667  10.859  0.00  0.00    +0.000 A 
ATOM     25  C   UNL     1       6.106   2.124  11.888  0.00  0.00    +0.000 A 
ATOM     26  C   UNL     1       5.973   2.804  13.101  0.00  0.00    +0.000 A 
ATOM     27  C   UNL     1       6.587   4.051  13.280  0.00  0.00    +0.000 A 
BRANCH  22  29
ATOM     28  O   UNL     1       9.092   5.836  13.370  0.00  0.00    +0.000 OA
ATOM     29  C   UNL     1       8.243   5.784  12.497  0.00  0.00    +0.000 C 
BRANCH  29  30
ATOM     30  O   UNL     1       8.084   6.747  11.561  0.00  0.00    +0.000 OA
ATOM     31  H   UNL     1       8.654   6.658  10.776  0.00  0.00    +0.000 HD
ENDBRANCH  29  30
ENDBRANCH  22  29
ENDBRANCH  20  27
ENDBRANCH   1  21
TORSDOF 5
ENDMDL
MODEL 5
REMARK VINA RESULT:      -7.4      6.597      8.525
REMARK  Name = 
REMARK  5 active torsions:
REMARK  status: ('A' for Active; 'I' for Inactive)
REMARK    1  A    between atoms: C_2  and  O_3
REMARK    2  A    between atoms: C_2  and  C_4
REMARK    3  A    between atoms: C_9  and  C_10
REMARK    4  A    between atoms: N_11  and  N_12
REMARK    5  A    between atoms: N_15  and  C_16
REMARK                            x       y       z     vdW  Elec       q    Type
REMARK                         _______ _______ _______ _____ _____    ______ ____
ROOT
ATOM      1  N   UNL     1       6.804  15.498  20.005  0.00  0.00    +0.000 N 
ATOM      2  C   UNL     1       5.673  14.913  20.762  0.00  0.00    +0.000 C 
ATOM      3  C   UNL     1       4.463  15.863  20.903  0.00  0.00    +0.000 C 
ATOM      4  N   UNL     1       3.981  16.468  19.650  0.00  0.00    +0.000 NA
ATOM      5  C   UNL     1       5.162  17.063  18.991  0.00  0.00    +0.000 C 
ATOM      6  C   UNL     1       6.289  16.056  18.733  0.00  0.00    +0.000 C 
ENDROOT
BRANCH   4   7
ATOM      7  C   UNL     1       3.197  15.591  18.746  0.00  0.00    +0.000 C 
ATOM      8  C   UNL     1       2.204  14.666  19.485  0.00  0.00    +0.000 A 
ATOM      9  C   UNL     1       2.436  13.432  20.079  0.00  0.00    +0.000 A 
ATOM     10  C   UNL     1       1.338  12.684  20.518  0.00  0.00    +0.000 A 
ATOM     11  C   UNL     1       0.031  13.165  20.344  0.00  0.00    +0.000 A 
ATOM     12  C   UNL     1      -0.201  14.416  19.769  0.00  0.00    +0.000 A 
ATOM     13  C   UNL     1       0.889  15.169  19.364  0.00  0.00    +0.000 A 
ATOM     14  C   UNL     1       0.924  16.370  18.567  0.00  0.00    +0.000 A 
ATOM     15  C   UNL     1      -0.035  17.336  18.325  0.00  0.00    +0.000 A 
ATOM     16  C   UNL     1       0.236  18.307  17.358  0.00  0.00    +0.000 A 
ATOM     17  C   UNL     1       1.408  18.241  16.589  0.00  0.00    +0.000 A 
ATOM     18  C   UNL     1       2.397  17.303  16.884  0.00  0.00    +0.000 A 
ATOM     19  C   UNL     1       2.191  16.458  17.964  0.00  0.00    +0.000 A 
ENDBRANCH   4   7
BRANCH   1  21
ATOM     20  C   UNL     1       8.274  14.541  18.654  0.00  0.00    +0.000 C 
ATOM     21  N   UNL     1       7.896  14.686  19.885  0.00  0.00    +0.000 NA
BRANCH  20  27
ATOM     22  C   UNL     1      10.501  14.102  17.522  0.00  0.00    +0.000 A 
ATOM     23  C   UNL     1      11.489  13.169  17.157  0.00  0.00    +0.000 A 
ATOM     24  C   UNL     1      11.373  11.822  17.539  0.00  0.00    +0.000 A 
ATOM     25  C   UNL     1      10.284  11.414  18.306  0.00  0.00    +0.000 A 
ATOM     26  C   UNL     1       9.304  12.336  18.684  0.00  0.00    +0.000 A 
ATOM     27  C   UNL     1       9.396  13.671  18.268  0.00  0.00    +0.000 A 
BRANCH  22  29
ATOM     28  O   UNL     1      11.148  16.312  18.128  0.00  0.00    +0.000 OA
ATOM     29  C   UNL     1      10.761  15.541  17.267  0.00  0.00    +0.000 C 
BRANCH  29  30
ATOM     30  O   UNL     1      10.657  15.879  15.962  0.00  0.00    +0.000 OA
ATOM     31  H   UNL     1      11.334  15.491  15.380  0.00  0.00    +0.000 HD
ENDBRANCH  29  30
ENDBRANCH  22  29
ENDBRANCH  20  27
ENDBRANCH   1  21
TORSDOF 5
ENDMDL
MODEL 6
REMARK VINA RESULT:      -7.3      1.941      2.457
REMARK  Name = 
REMARK  5 active torsions:
REMARK  status: ('A' for Active; 'I' for Inactive)
REMARK    1  A    between atoms: C_2  and  O_3
REMARK    2  A    between atoms: C_2  and  C_4
REMARK    3  A    between atoms: C_9  and  C_10
REMARK    4  A    between atoms: N_11  and  N_12
REMARK    5  A    between atoms: N_15  and  C_16
REMARK                            x       y       z     vdW  Elec       q    Type
REMARK                         _______ _______ _______ _____ _____    ______ ____
ROOT
ATOM      1  N   UNL     1       2.447   7.588  18.538  0.00  0.00    +0.000 N 
ATOM      2  C   UNL     1       2.259   8.881  17.838  0.00  0.00    +0.000 C 
ATOM      3  C   UNL     1       0.875   9.523  18.082  0.00  0.00    +0.000 C 
ATOM      4  N   UNL     1       0.470   9.641  19.493  0.00  0.00    +0.000 NA
ATOM      5  C   UNL     1       0.646   8.302  20.094  0.00  0.00    +0.000 C 
ATOM      6  C   UNL     1       2.073   7.757  19.961  0.00  0.00    +0.000 C 
ENDROOT
BRANCH   4   7
ATOM      7  C   UNL     1       1.117  10.717  20.283  0.00  0.00    +0.000 C 
ATOM      8  C   UNL     1       1.270  12.047  19.513  0.00  0.00    +0.000 A 
ATOM      9  C   UNL     1       2.269  12.435  18.628  0.00  0.00    +0.000 A 
ATOM     10  C   UNL     1       2.304  13.766  18.201  0.00  0.00    +0.000 A 
ATOM     11  C   UNL     1       1.362  14.694  18.674  0.00  0.00    +0.000 A 
ATOM     12  C   UNL     1       0.344  14.299  19.543  0.00  0.00    +0.000 A 
ATOM     13  C   UNL     1       0.290  12.972  19.940  0.00  0.00    +0.000 A 
ATOM     14  C   UNL     1      -0.507  12.358  20.972  0.00  0.00    +0.000 A 
ATOM     15  C   UNL     1      -1.692  12.749  21.567  0.00  0.00    +0.000 A 
ATOM     16  C   UNL     1      -2.143  12.029  22.676  0.00  0.00    +0.000 A 
ATOM     17  C   UNL     1      -1.361  11.002  23.225  0.00  0.00    +0.000 A 
ATOM     18  C   UNL     1      -0.201  10.572  22.581  0.00  0.00    +0.000 A 
ATOM     19  C   UNL     1       0.140  11.180  21.383  0.00  0.00    +0.000 A 
ENDBRANCH   4   7
BRANCH   1  21
ATOM     20  C   UNL     1       3.752   6.485  17.130  0.00  0.00    +0.000 C 
ATOM     21  N   UNL     1       3.656   6.989  18.320  0.00  0.00    +0.000 NA
BRANCH  20  27
ATOM     22  C   UNL     1       5.770   5.000  17.529  0.00  0.00    +0.000 A 
ATOM     23  C   UNL     1       6.915   4.378  17.000  0.00  0.00    +0.000 A 
ATOM     24  C   UNL     1       7.222   4.495  15.634  0.00  0.00    +0.000 A 
ATOM     25  C   UNL     1       6.371   5.211  14.794  0.00  0.00    +0.000 A 
ATOM     26  C   UNL     1       5.225   5.822  15.309  0.00  0.00    +0.000 A 
ATOM     27  C   UNL     1       4.940   5.743  16.679  0.00  0.00    +0.000 A 
BRANCH  22  29
ATOM     28  O   UNL     1       4.670   3.747  19.229  0.00  0.00    +0.000 OA
ATOM     29  C   UNL     1       5.381   4.690  18.927  0.00  0.00    +0.000 C 
BRANCH  29  30
ATOM     30  O   UNL     1       6.001   5.472  19.840  0.00  0.00    +0.000 OA
ATOM     31  H   UNL     1       6.962   5.336  19.915  0.00  0.00    +0.000 HD
ENDBRANCH  29  30
ENDBRANCH  22  29
ENDBRANCH  20  27
ENDBRANCH   1  21
TORSDOF 5
ENDMDL
MODEL 7
REMARK VINA RESULT:      -7.3      2.308      4.123
REMARK  Name = 
REMARK  5 active torsions:
REMARK  status: ('A' for Active; 'I' for Inactive)
REMARK    1  A    between atoms: C_2  and  O_3
REMARK    2  A    between atoms: C_2  and  C_4
REMARK    3  A    between atoms: C_9  and  C_10
REMARK    4  A    between atoms: N_11  and  N_12
REMARK    5  A    between atoms: N_15  and  C_16
REMARK                            x       y       z     vdW  Elec       q    Type
REMARK                         _______ _______ _______ _____ _____    ______ ____
ROOT
ATOM      1  N   UNL     1       0.776   8.378  21.308  0.00  0.00    +0.000 N 
ATOM      2  C   UNL     1      -0.130   8.704  22.434  0.00  0.00    +0.000 C 
ATOM      3  C   UNL     1       0.065  10.131  22.995  0.00  0.00    +0.000 C 
ATOM      4  N   UNL     1       0.049  11.213  21.996  0.00  0.00    +0.000 NA
ATOM      5  C   UNL     1       1.010  10.825  20.943  0.00  0.00    +0.000 C 
ATOM      6  C   UNL     1       0.700   9.465  20.305  0.00  0.00    +0.000 C 
ENDROOT
BRANCH   4   7
ATOM      7  C   UNL     1      -1.277  11.598  21.454  0.00  0.00    +0.000 C 
ATOM      8  C   UNL     1      -2.144  12.405  22.446  0.00  0.00    +0.000 A 
ATOM      9  C   UNL     1      -2.969  11.940  23.463  0.00  0.00    +0.000 A 
ATOM     10  C   UNL     1      -3.812  12.850  24.109  0.00  0.00    +0.000 A 
ATOM     11  C   UNL     1      -3.836  14.200  23.722  0.00  0.00    +0.000 A 
ATOM     12  C   UNL     1      -2.990  14.671  22.717  0.00  0.00    +0.000 A 
ATOM     13  C   UNL     1      -2.132  13.775  22.101  0.00  0.00    +0.000 A 
ATOM     14  C   UNL     1      -1.326  13.947  20.918  0.00  0.00    +0.000 A 
ATOM     15  C   UNL     1      -0.837  15.083  20.301  0.00  0.00    +0.000 A 
ATOM     16  C   UNL     1      -0.223  14.946  19.054  0.00  0.00    +0.000 A 
ATOM     17  C   UNL     1      -0.195  13.701  18.406  0.00  0.00    +0.000 A 
ATOM     18  C   UNL     1      -0.632  12.550  19.063  0.00  0.00    +0.000 A 
ATOM     19  C   UNL     1      -1.075  12.677  20.370  0.00  0.00    +0.000 A 
ENDBRANCH   4   7
BRANCH   1  21
ATOM     20  C   UNL     1       1.781   6.545  20.578  0.00  0.00    +0.000 C 
ATOM     21  N   UNL     1       0.639   7.114  20.809  0.00  0.00    +0.000 NA
BRANCH  20  27
ATOM     22  C   UNL     1       2.829   4.849  19.010  0.00  0.00    +0.000 A 
ATOM     23  C   UNL     1       2.806   3.549  18.473  0.00  0.00    +0.000 A 
ATOM     24  C   UNL     1       1.858   2.612  18.917  0.00  0.00    +0.000 A 
ATOM     25  C   UNL     1       0.951   2.967  19.914  0.00  0.00    +0.000 A 
ATOM     26  C   UNL     1       0.975   4.252  20.461  0.00  0.00    +0.000 A 
ATOM     27  C   UNL     1       1.891   5.201  19.989  0.00  0.00    +0.000 A 
BRANCH  22  29
ATOM     28  O   UNL     1       3.878   6.636  17.837  0.00  0.00    +0.000 OA
ATOM     29  C   UNL     1       3.964   5.738  18.657  0.00  0.00    +0.000 C 
BRANCH  29  30
ATOM     30  O   UNL     1       5.057   5.541  19.428  0.00  0.00    +0.000 OA
ATOM     31  H   UNL     1       5.724   4.939  19.053  0.00  0.00    +0.000 HD
ENDBRANCH  29  30
ENDBRANCH  22  29
ENDBRANCH  20  27
ENDBRANCH   1  21
TORSDOF 5
ENDMDL
MODEL 8
REMARK VINA RESULT:      -7.2      1.630      1.821
REMARK  Name = 
REMARK  5 active torsions:
REMARK  status: ('A' for Active; 'I' for Inactive)
REMARK    1  A    between atoms: C_2  and  O_3
REMARK    2  A    between atoms: C_2  and  C_4
REMARK    3  A    between atoms: C_9  and  C_10
REMARK    4  A    between atoms: N_11  and  N_12
REMARK    5  A    between atoms: N_15  and  C_16
REMARK                            x       y       z     vdW  Elec       q    Type
REMARK                         _______ _______ _______ _____ _____    ______ ____
ROOT
ATOM      1  N   UNL     1       1.444   8.306  19.601  0.00  0.00    +0.000 N 
ATOM      2  C   UNL     1       1.770   9.421  18.681  0.00  0.00    +0.000 C 
ATOM      3  C   UNL     1       0.620  10.438  18.505  0.00  0.00    +0.000 C 
ATOM      4  N   UNL     1       0.037  10.959  19.753  0.00  0.00    +0.000 NA
ATOM      5  C   UNL     1      -0.298   9.783  20.582  0.00  0.00    +0.000 C 
ATOM      6  C   UNL     1       0.903   8.870  20.859  0.00  0.00    +0.000 C 
ENDROOT
BRANCH   4   7
ATOM      7  C   UNL     1       0.833  11.973  20.486  0.00  0.00    +0.000 C 
ATOM      8  C   UNL     1       1.389  13.098  19.584  0.00  0.00    +0.000 A 
ATOM      9  C   UNL     1       2.544  13.108  18.813  0.00  0.00    +0.000 A 
ATOM     10  C   UNL     1       2.949  14.314  18.231  0.00  0.00    +0.000 A 
ATOM     11  C   UNL     1       2.212  15.491  18.440  0.00  0.00    +0.000 A 
ATOM     12  C   UNL     1       1.038  15.476  19.195  0.00  0.00    +0.000 A 
ATOM     13  C   UNL     1       0.621  14.274  19.744  0.00  0.00    +0.000 A 
ATOM     14  C   UNL     1      -0.412  14.024  20.719  0.00  0.00    +0.000 A 
ATOM     15  C   UNL     1      -1.525  14.758  21.080  0.00  0.00    +0.000 A 
ATOM     16  C   UNL     1      -2.258  14.341  22.194  0.00  0.00    +0.000 A 
ATOM     17  C   UNL     1      -1.815  13.264  22.977  0.00  0.00    +0.000 A 
ATOM     18  C   UNL     1      -0.729  12.490  22.568  0.00  0.00    +0.000 A 
ATOM     19  C   UNL     1      -0.119  12.810  21.365  0.00  0.00    +0.000 A 
ENDBRANCH   4   7
BRANCH   1  21
ATOM     20  C   UNL     1       2.186   6.274  19.128  0.00  0.00    +0.000 C 
ATOM     21  N   UNL     1       2.437   7.381  19.755  0.00  0.00    +0.000 NA
BRANCH  20  27
ATOM     22  C   UNL     1       2.644   3.790  19.352  0.00  0.00    +0.000 A 
ATOM     23  C   UNL     1       3.594   2.758  19.456  0.00  0.00    +0.000 A 
ATOM     24  C   UNL     1       4.968   3.045  19.392  0.00  0.00    +0.000 A 
ATOM     25  C   UNL     1       5.390   4.359  19.199  0.00  0.00    +0.000 A 
ATOM     26  C   UNL     1       4.453   5.388  19.082  0.00  0.00    +0.000 A 
ATOM     27  C   UNL     1       3.083   5.110  19.189  0.00  0.00    +0.000 A 
BRANCH  22  29
ATOM     28  O   UNL     1       0.706   3.052  18.182  0.00  0.00    +0.000 OA
ATOM     29  C   UNL     1       1.212   3.420  19.228  0.00  0.00    +0.000 C 
BRANCH  29  30
ATOM     30  O   UNL     1       0.560   3.402  20.413  0.00  0.00    +0.000 OA
ATOM     31  H   UNL     1       0.195   4.259  20.696  0.00  0.00    +0.000 HD
ENDBRANCH  29  30
ENDBRANCH  22  29
ENDBRANCH  20  27
ENDBRANCH   1  21
TORSDOF 5
ENDMDL
MODEL 9
REMARK VINA RESULT:      -7.2      1.336      1.620
REMARK  Name = 
REMARK  5 active torsions:
REMARK  status: ('A' for Active; 'I' for Inactive)
REMARK    1  A    between atoms: C_2  and  O_3
REMARK    2  A    between atoms: C_2  and  C_4
REMARK    3  A    between atoms: C_9  and  C_10
REMARK    4  A    between atoms: N_11  and  N_12
REMARK    5  A    between atoms: N_15  and  C_16
REMARK                            x       y       z     vdW  Elec       q    Type
REMARK                         _______ _______ _______ _____ _____    ______ ____
ROOT
ATOM      1  N   UNL     1       1.001  10.512  18.416  0.00  0.00    +0.000 N 
ATOM      2  C   UNL     1       1.504  11.895  18.588  0.00  0.00    +0.000 C 
ATOM      3  C   UNL     1       0.401  12.915  18.953  0.00  0.00    +0.000 C 
ATOM      4  N   UNL     1      -0.461  12.539  20.086  0.00  0.00    +0.000 NA
ATOM      5  C   UNL     1      -0.950  11.173  19.806  0.00  0.00    +0.000 C 
ATOM      6  C   UNL     1       0.176  10.154  19.593  0.00  0.00    +0.000 C 
ENDROOT
BRANCH   4   7
ATOM      7  C   UNL     1       0.124  12.676  21.441  0.00  0.00    +0.000 C 
ATOM      8  C   UNL     1       0.767  14.056  21.705  0.00  0.00    +0.000 A 
ATOM      9  C   UNL     1       2.041  14.503  21.378  0.00  0.00    +0.000 A 
ATOM     10  C   UNL     1       2.472  15.730  21.893  0.00  0.00    +0.000 A 
ATOM     11  C   UNL     1       1.640  16.482  22.738  0.00  0.00    +0.000 A 
ATOM     12  C   UNL     1       0.351  16.044  23.047  0.00  0.00    +0.000 A 
ATOM     13  C   UNL     1      -0.086  14.844  22.509  0.00  0.00    +0.000 A 
ATOM     14  C   UNL     1      -1.263  14.075  22.829  0.00  0.00    +0.000 A 
ATOM     15  C   UNL     1      -2.466  14.440  23.403  0.00  0.00    +0.000 A 
ATOM     16  C   UNL     1      -3.364  13.428  23.753  0.00  0.00    +0.000 A 
ATOM     17  C   UNL     1      -3.008  12.078  23.612  0.00  0.00    +0.000 A 
ATOM     18  C   UNL     1      -1.820  11.721  22.973  0.00  0.00    +0.000 A 
ATOM     19  C   UNL     1      -1.021  12.737  22.472  0.00  0.00    +0.000 A 
ENDBRANCH   4   7
BRANCH   1  21
ATOM     20  C   UNL     1       1.839   8.487  18.736  0.00  0.00    +0.000 C 
ATOM     21  N   UNL     1       1.953   9.595  18.072  0.00  0.00    +0.000 NA
BRANCH  20  27
ATOM     22  C   UNL     1       2.861   6.281  19.457  0.00  0.00    +0.000 A 
ATOM     23  C   UNL     1       3.841   5.295  19.242  0.00  0.00    +0.000 A 
ATOM     24  C   UNL     1       4.726   5.394  18.156  0.00  0.00    +0.000 A 
ATOM     25  C   UNL     1       4.614   6.465  17.271  0.00  0.00    +0.000 A 
ATOM     26  C   UNL     1       3.636   7.443  17.470  0.00  0.00    +0.000 A 
ATOM     27  C   UNL     1       2.780   7.368  18.577  0.00  0.00    +0.000 A 
BRANCH  22  29
ATOM     28  O   UNL     1       1.176   5.008  20.556  0.00  0.00    +0.000 OA
ATOM     29  C   UNL     1       1.829   6.035  20.494  0.00  0.00    +0.000 C 
BRANCH  29  30
ATOM     30  O   UNL     1       1.780   7.002  21.439  0.00  0.00    +0.000 OA
ATOM     31  H   UNL     1       1.271   7.794  21.192  0.00  0.00    +0.000 HD
ENDBRANCH  29  30
ENDBRANCH  22  29
ENDBRANCH  20  27
ENDBRANCH   1  21
TORSDOF 5
ENDMDL
