MODEL 1
REMARK VINA RESULT:      -9.2      0.000      0.000
REMARK  Name = 
REMARK  6 active torsions:
REMARK  status: ('A' for Active; 'I' for Inactive)
REMARK    1  A    between atoms: N_1  and  C_2
REMARK    2  A    between atoms: C_2  and  C_3
REMARK    3  A    between atoms: C_6  and  C_7
REMARK    4  A    between atoms: C_11  and  C_12
REMARK    5  A    between atoms: C_12  and  C_13
REMARK    6  A    between atoms: N_17  and  O_18
REMARK                            x       y       z     vdW  Elec       q    Type
REMARK                         _______ _______ _______ _____ _____    ______ ____
ROOT
ATOM      1  C   UNL     1       2.164   5.973  19.577  0.00  0.00    +0.000 A 
ATOM      2  C   UNL     1       1.834   5.364  20.798  0.00  0.00    +0.000 A 
ATOM      3  C   UNL     1       2.076   4.004  21.021  0.00  0.00    +0.000 A 
ATOM      4  C   UNL     1       2.680   3.227  20.033  0.00  0.00    +0.000 A 
ATOM      5  C   UNL     1       3.044   3.800  18.812  0.00  0.00    +0.000 A 
ATOM      6  C   UNL     1       2.751   5.152  18.592  0.00  0.00    +0.000 A 
ENDROOT
BRANCH   1  10
ATOM      7  C   UNL     1       1.503  10.192  18.826  0.00  0.00    +0.000 A 
ATOM      8  C   UNL     1       2.053   9.365  17.842  0.00  0.00    +0.000 A 
ATOM      9  C   UNL     1       2.272   8.008  18.094  0.00  0.00    +0.000 A 
ATOM     10  C   UNL     1       1.937   7.418  19.327  0.00  0.00    +0.000 A 
ATOM     11  C   UNL     1       1.381   8.262  20.304  0.00  0.00    +0.000 A 
ATOM     12  C   UNL     1       1.175   9.627  20.062  0.00  0.00    +0.000 A 
BRANCH   7  13
ATOM     13  C   UNL     1       1.293  11.659  18.560  0.00  0.00    +0.000 C 
BRANCH  13  14
ATOM     14  N   UNL     1       2.326  12.195  17.679  0.00  0.00    +0.000 NA
ATOM     15  H   UNL     1       3.189  12.305  18.208  0.00  0.00    +0.000 HD
ATOM     16  H   UNL     1       2.048  13.130  17.383  0.00  0.00    +0.000 HD
ENDBRANCH  13  14
ENDBRANCH   7  13
ENDBRANCH   1  10
BRANCH   5  17
ATOM     17  C   UNL     1       3.796   2.998  17.772  0.00  0.00    +0.000 C 
BRANCH  17  18
ATOM     18  C   UNL     1       4.805   3.774  16.958  0.00  0.00    +0.000 A 
ATOM     19  C   UNL     1       4.838   3.616  15.622  0.00  0.00    +0.000 A 
ATOM     20  C   UNL     1       5.863   4.253  14.768  0.00  0.00    +0.000 A 
ATOM     21  O   UNL     1       5.888   4.029  13.559  0.00  0.00    +0.000 OA
ATOM     22  N   UNL     1       6.765   5.050  15.407  0.00  0.00    +0.000 N 
ATOM     23  C   UNL     1       6.816   5.259  16.797  0.00  0.00    +0.000 A 
ATOM     24  N   UNL     1       7.807   6.041  17.304  0.00  0.00    +0.000 NA
ATOM     25  C   UNL     1       7.854   6.209  18.637  0.00  0.00    +0.000 A 
ATOM     26  C   UNL     1       6.956   5.625  19.507  0.00  0.00    +0.000 A 
ATOM     27  C   UNL     1       5.948   4.821  18.977  0.00  0.00    +0.000 A 
ATOM     28  C   UNL     1       5.846   4.623  17.594  0.00  0.00    +0.000 A 
BRANCH  22  29
ATOM     29  O   UNL     1       7.800   5.615  14.624  0.00  0.00    +0.000 OA
ATOM     30  H   UNL     1       8.199   6.247  15.255  0.00  0.00    +0.000 HD
ENDBRANCH  22  29
ENDBRANCH  17  18
ENDBRANCH   5  17
TORSDOF 6
ENDMDL
MODEL 2
REMARK VINA RESULT:      -8.9      3.661      5.283
REMARK  Name = 
REMARK  6 active torsions:
REMARK  status: ('A' for Active; 'I' for Inactive)
REMARK    1  A    between atoms: N_1  and  C_2
REMARK    2  A    between atoms: C_2  and  C_3
REMARK    3  A    between atoms: C_6  and  C_7
REMARK    4  A    between atoms: C_11  and  C_12
REMARK    5  A    between atoms: C_12  and  C_13
REMARK    6  A    between atoms: N_17  and  O_18
REMARK                            x       y       z     vdW  Elec       q    Type
REMARK                         _______ _______ _______ _____ _____    ______ ____
ROOT
ATOM      1  C   UNL     1       0.431   9.780  20.079  0.00  0.00    +0.000 A 
ATOM      2  C   UNL     1       0.605  10.079  18.718  0.00  0.00    +0.000 A 
ATOM      3  C   UNL     1       1.429   9.296  17.902  0.00  0.00    +0.000 A 
ATOM      4  C   UNL     1       2.076   8.177  18.424  0.00  0.00    +0.000 A 
ATOM      5  C   UNL     1       1.911   7.832  19.769  0.00  0.00    +0.000 A 
ATOM      6  C   UNL     1       1.119   8.656  20.579  0.00  0.00    +0.000 A 
ENDROOT
BRANCH   1  10
ATOM      7  C   UNL     1      -2.148  12.120  22.663  0.00  0.00    +0.000 A 
ATOM      8  C   UNL     1      -1.367  11.082  23.178  0.00  0.00    +0.000 A 
ATOM      9  C   UNL     1      -0.545  10.325  22.338  0.00  0.00    +0.000 A 
ATOM     10  C   UNL     1      -0.455  10.583  20.957  0.00  0.00    +0.000 A 
ATOM     11  C   UNL     1      -1.244  11.634  20.456  0.00  0.00    +0.000 A 
ATOM     12  C   UNL     1      -2.082  12.384  21.291  0.00  0.00    +0.000 A 
BRANCH   7  13
ATOM     13  C   UNL     1      -3.052  12.915  23.567  0.00  0.00    +0.000 C 
BRANCH  13  14
ATOM     14  N   UNL     1      -4.104  12.081  24.138  0.00  0.00    +0.000 NA
ATOM     15  H   UNL     1      -4.394  11.392  23.446  0.00  0.00    +0.000 HD
ATOM     16  H   UNL     1      -4.920  12.665  24.321  0.00  0.00    +0.000 HD
ENDBRANCH  13  14
ENDBRANCH   7  13
ENDBRANCH   1  10
BRANCH   5  17
ATOM     17  C   UNL     1       2.518   6.563  20.325  0.00  0.00    +0.000 C 
BRANCH  17  18
ATOM     18  C   UNL     1       2.417   5.349  19.432  0.00  0.00    +0.000 A 
ATOM     19  C   UNL     1       1.377   4.506  19.578  0.00  0.00    +0.000 A 
ATOM     20  C   UNL     1       1.262   3.241  18.821  0.00  0.00    +0.000 A 
ATOM     21  O   UNL     1       0.324   2.475  19.034  0.00  0.00    +0.000 OA
ATOM     22  N   UNL     1       2.259   2.984  17.928  0.00  0.00    +0.000 N 
ATOM     23  C   UNL     1       3.388   3.797  17.722  0.00  0.00    +0.000 A 
ATOM     24  N   UNL     1       4.333   3.389  16.833  0.00  0.00    +0.000 NA
ATOM     25  C   UNL     1       5.418   4.167  16.668  0.00  0.00    +0.000 A 
ATOM     26  C   UNL     1       5.617   5.345  17.357  0.00  0.00    +0.000 A 
ATOM     27  C   UNL     1       4.645   5.751  18.270  0.00  0.00    +0.000 A 
ATOM     28  C   UNL     1       3.490   4.984  18.471  0.00  0.00    +0.000 A 
BRANCH  22  29
ATOM     29  O   UNL     1       2.212   1.748  17.241  0.00  0.00    +0.000 OA
ATOM     30  H   UNL     1       2.440   1.119  17.954  0.00  0.00    +0.000 HD
ENDBRANCH  22  29
ENDBRANCH  17  18
ENDBRANCH   5  17
TORSDOF 6
ENDMDL
MODEL 3
REMARK VINA RESULT:      -8.9      3.069      7.255
REMARK  Name = 
REMARK  6 active torsions:
REMARK  status: ('A' for Active; 'I' for Inactive)
REMARK    1  A    between atoms: N_1  and  C_2
REMARK    2  A    between atoms: C_2  and  C_3
REMARK    3  A    between atoms: C_6  and  C_7
REMARK    4  A    between atoms: C_11  and  C_12
REMARK    5  A    between atoms: C_12  and  C_13
REMARK    6  A    between atoms: N_17  and  O_18
REMARK                            x       y       z     vdW  Elec       q    Type
REMARK                         _______ _______ _______ _____ _____    ______ ____
ROOT
ATOM      1  C   UNL     1       3.002   4.635  18.426  0.00  0.00    +0.000 A 
ATOM      2  C   UNL     1       2.119   3.561  18.625  0.00  0.00    +0.000 A 
ATOM      3  C   UNL     1       1.191   3.569  19.672  0.00  0.00    +0.000 A 
ATOM      4  C   UNL     1       1.107   4.666  20.529  0.00  0.00    +0.000 A 
ATOM      5  C   UNL     1       1.953   5.764  20.351  0.00  0.00    +0.000 A 
ATOM      6  C   UNL     1       2.906   5.717  19.325  0.00  0.00    +0.000 A 
ENDROOT
BRANCH   1  10
ATOM      7  C   UNL     1       5.850   4.682  15.157  0.00  0.00    +0.000 A 
ATOM      8  C   UNL     1       5.404   3.475  15.703  0.00  0.00    +0.000 A 
ATOM      9  C   UNL     1       4.493   3.467  16.763  0.00  0.00    +0.000 A 
ATOM     10  C   UNL     1       3.978   4.658  17.309  0.00  0.00    +0.000 A 
ATOM     11  C   UNL     1       4.434   5.863  16.746  0.00  0.00    +0.000 A 
ATOM     12  C   UNL     1       5.360   5.876  15.694  0.00  0.00    +0.000 A 
BRANCH   7  13
ATOM     13  C   UNL     1       6.852   4.686  14.033  0.00  0.00    +0.000 C 
BRANCH  13  14
ATOM     14  N   UNL     1       7.961   5.593  14.310  0.00  0.00    +0.000 NA
ATOM     15  H   UNL     1       8.773   5.301  13.768  0.00  0.00    +0.000 HD
ATOM     16  H   UNL     1       8.221   5.501  15.291  0.00  0.00    +0.000 HD
ENDBRANCH  13  14
ENDBRANCH   7  13
ENDBRANCH   1  10
BRANCH   5  17
ATOM     17  C   UNL     1       1.803   7.005  21.203  0.00  0.00    +0.000 C 
BRANCH  17  18
ATOM     18  C   UNL     1       1.351   8.246  20.469  0.00  0.00    +0.000 A 
ATOM     19  C   UNL     1       1.791   8.469  19.216  0.00  0.00    +0.000 A 
ATOM     20  C   UNL     1       1.485   9.709  18.472  0.00  0.00    +0.000 A 
ATOM     21  O   UNL     1       1.960   9.893  17.352  0.00  0.00    +0.000 OA
ATOM     22  N   UNL     1       0.694  10.614  19.114  0.00  0.00    +0.000 N 
ATOM     23  C   UNL     1       0.205  10.473  20.425  0.00  0.00    +0.000 A 
ATOM     24  N   UNL     1      -0.533  11.483  20.960  0.00  0.00    +0.000 NA
ATOM     25  C   UNL     1      -0.970  11.340  22.223  0.00  0.00    +0.000 A 
ATOM     26  C   UNL     1      -0.703  10.230  22.997  0.00  0.00    +0.000 A 
ATOM     27  C   UNL     1       0.058   9.203  22.440  0.00  0.00    +0.000 A 
ATOM     28  C   UNL     1       0.528   9.296  21.124  0.00  0.00    +0.000 A 
BRANCH  22  29
ATOM     29  O   UNL     1       0.444  11.840  18.453  0.00  0.00    +0.000 OA
ATOM     30  H   UNL     1       1.132  11.832  17.759  0.00  0.00    +0.000 HD
ENDBRANCH  22  29
ENDBRANCH  17  18
ENDBRANCH   5  17
TORSDOF 6
ENDMDL
MODEL 4
REMARK VINA RESULT:      -8.8      4.572      9.018
REMARK  Name = 
REMARK  6 active torsions:
REMARK  status: ('A' for Active; 'I' for Inactive)
REMARK    1  A    between atoms: N_1  and  C_2
REMARK    2  A    between atoms: C_2  and  C_3
REMARK    3  A    between atoms: C_6  and  C_7
REMARK    4  A    between atoms: C_11  and  C_12
REMARK    5  A    between atoms: C_12  and  C_13
REMARK    6  A    between atoms: N_17  and  O_18
REMARK                            x       y       z     vdW  Elec       q    Type
REMARK                         _______ _______ _______ _____ _____    ______ ____
ROOT
ATOM      1  C   UNL     1       2.169   7.652  19.109  0.00  0.00    +0.000 A 
ATOM      2  C   UNL     1       1.784   7.330  20.420  0.00  0.00    +0.000 A 
ATOM      3  C   UNL     1       0.982   8.192  21.175  0.00  0.00    +0.000 A 
ATOM      4  C   UNL     1       0.523   9.388  20.623  0.00  0.00    +0.000 A 
ATOM      5  C   UNL     1       0.866   9.735  19.314  0.00  0.00    +0.000 A 
ATOM      6  C   UNL     1       1.707   8.879  18.591  0.00  0.00    +0.000 A 
ENDROOT
BRANCH   1  10
ATOM      7  C   UNL     1       4.581   4.976  16.696  0.00  0.00    +0.000 A 
ATOM      8  C   UNL     1       3.548   4.484  17.499  0.00  0.00    +0.000 A 
ATOM      9  C   UNL     1       2.781   5.351  18.282  0.00  0.00    +0.000 A 
ATOM     10  C   UNL     1       3.000   6.742  18.283  0.00  0.00    +0.000 A 
ATOM     11  C   UNL     1       4.039   7.220  17.467  0.00  0.00    +0.000 A 
ATOM     12  C   UNL     1       4.823   6.353  16.693  0.00  0.00    +0.000 A 
BRANCH   7  13
ATOM     13  C   UNL     1       5.423   4.036  15.876  0.00  0.00    +0.000 C 
BRANCH  13  14
ATOM     14  N   UNL     1       6.802   4.001  16.350  0.00  0.00    +0.000 NA
ATOM     15  H   UNL     1       6.810   3.726  17.330  0.00  0.00    +0.000 HD
ATOM     16  H   UNL     1       7.183   4.946  16.313  0.00  0.00    +0.000 HD
ENDBRANCH  13  14
ENDBRANCH   7  13
ENDBRANCH   1  10
BRANCH   5  17
ATOM     17  C   UNL     1       0.290  10.975  18.664  0.00  0.00    +0.000 C 
BRANCH  17  18
ATOM     18  C   UNL     1      -1.169  10.889  18.280  0.00  0.00    +0.000 A 
ATOM     19  C   UNL     1      -1.522  10.210  17.173  0.00  0.00    +0.000 A 
ATOM     20  C   UNL     1      -2.912  10.170  16.670  0.00  0.00    +0.000 A 
ATOM     21  O   UNL     1      -3.174   9.586  15.620  0.00  0.00    +0.000 OA
ATOM     22  N   UNL     1      -3.838  10.837  17.415  0.00  0.00    +0.000 N 
ATOM     23  C   UNL     1      -3.558  11.585  18.572  0.00  0.00    +0.000 A 
ATOM     24  N   UNL     1      -4.576  12.244  19.187  0.00  0.00    +0.000 NA
ATOM     25  C   UNL     1      -4.284  12.974  20.278  0.00  0.00    +0.000 A 
ATOM     26  C   UNL     1      -3.009  13.089  20.794  0.00  0.00    +0.000 A 
ATOM     27  C   UNL     1      -1.972  12.413  20.153  0.00  0.00    +0.000 A 
ATOM     28  C   UNL     1      -2.224  11.629  19.020  0.00  0.00    +0.000 A 
BRANCH  22  29
ATOM     29  O   UNL     1      -5.163  10.876  16.919  0.00  0.00    +0.000 OA
ATOM     30  H   UNL     1      -5.678  10.656  17.721  0.00  0.00    +0.000 HD
ENDBRANCH  22  29
ENDBRANCH  17  18
ENDBRANCH   5  17
TORSDOF 6
ENDMDL
MODEL 5
REMARK VINA RESULT:      -8.8      3.119      7.344
REMARK  Name = 
REMARK  6 active torsions:
REMARK  status: ('A' for Active; 'I' for Inactive)
REMARK    1  A    between atoms: N_1  and  C_2
REMARK    2  A    between atoms: C_2  and  C_3
REMARK    3  A    between atoms: C_6  and  C_7
REMARK    4  A    between atoms: C_11  and  C_12
REMARK    5  A    between atoms: C_12  and  C_13
REMARK    6  A    between atoms: N_17  and  O_18
REMARK                            x       y       z     vdW  Elec       q    Type
REMARK                         _______ _______ _______ _____ _____    ______ ____
ROOT
ATOM      1  C   UNL     1       2.994   4.684  18.442  0.00  0.00    +0.000 A 
ATOM      2  C   UNL     1       2.107   3.610  18.622  0.00  0.00    +0.000 A 
ATOM      3  C   UNL     1       1.162   3.613  19.654  0.00  0.00    +0.000 A 
ATOM      4  C   UNL     1       1.066   4.706  20.515  0.00  0.00    +0.000 A 
ATOM      5  C   UNL     1       1.915   5.804  20.356  0.00  0.00    +0.000 A 
ATOM      6  C   UNL     1       2.884   5.761  19.345  0.00  0.00    +0.000 A 
ENDROOT
BRANCH   1  10
ATOM      7  C   UNL     1       5.903   4.787  15.228  0.00  0.00    +0.000 A 
ATOM      8  C   UNL     1       5.421   5.968  15.798  0.00  0.00    +0.000 A 
ATOM      9  C   UNL     1       4.476   5.928  16.827  0.00  0.00    +0.000 A 
ATOM     10  C   UNL     1       3.987   4.712  17.340  0.00  0.00    +0.000 A 
ATOM     11  C   UNL     1       4.485   3.533  16.759  0.00  0.00    +0.000 A 
ATOM     12  C   UNL     1       5.420   3.568  15.716  0.00  0.00    +0.000 A 
BRANCH   7  13
ATOM     13  C   UNL     1       6.900   4.835  14.102  0.00  0.00    +0.000 C 
BRANCH  13  14
ATOM     14  N   UNL     1       6.717   3.721  13.177  0.00  0.00    +0.000 NA
ATOM     15  H   UNL     1       6.555   2.869  13.711  0.00  0.00    +0.000 HD
ATOM     16  H   UNL     1       7.585   3.578  12.663  0.00  0.00    +0.000 HD
ENDBRANCH  13  14
ENDBRANCH   7  13
ENDBRANCH   1  10
BRANCH   5  17
ATOM     17  C   UNL     1       1.753   7.041  21.212  0.00  0.00    +0.000 C 
BRANCH  17  18
ATOM     18  C   UNL     1       1.298   8.282  20.480  0.00  0.00    +0.000 A 
ATOM     19  C   UNL     1       1.733   8.507  19.226  0.00  0.00    +0.000 A 
ATOM     20  C   UNL     1       1.424   9.747  18.483  0.00  0.00    +0.000 A 
ATOM     21  O   UNL     1       1.896   9.932  17.363  0.00  0.00    +0.000 OA
ATOM     22  N   UNL     1       0.633  10.651  19.129  0.00  0.00    +0.000 N 
ATOM     23  C   UNL     1       0.148  10.508  20.440  0.00  0.00    +0.000 A 
ATOM     24  N   UNL     1      -0.589  11.516  20.978  0.00  0.00    +0.000 NA
ATOM     25  C   UNL     1      -1.023  11.371  22.243  0.00  0.00    +0.000 A 
ATOM     26  C   UNL     1      -0.752  10.261  23.015  0.00  0.00    +0.000 A 
ATOM     27  C   UNL     1       0.009   9.236  22.456  0.00  0.00    +0.000 A 
ATOM     28  C   UNL     1       0.475   9.330  21.138  0.00  0.00    +0.000 A 
BRANCH  22  29
ATOM     29  O   UNL     1       0.379  11.877  18.469  0.00  0.00    +0.000 OA
ATOM     30  H   UNL     1       1.259  12.303  18.503  0.00  0.00    +0.000 HD
ENDBRANCH  22  29
ENDBRANCH  17  18
ENDBRANCH   5  17
TORSDOF 6
ENDMDL
MODEL 6
REMARK VINA RESULT:      -8.7      4.386      8.786
REMARK  Name = 
REMARK  6 active torsions:
REMARK  status: ('A' for Active; 'I' for Inactive)
REMARK    1  A    between atoms: N_1  and  C_2
REMARK    2  A    between atoms: C_2  and  C_3
REMARK    3  A    between atoms: C_6  and  C_7
REMARK    4  A    between atoms: C_11  and  C_12
REMARK    5  A    between atoms: C_12  and  C_13
REMARK    6  A    between atoms: N_17  and  O_18
REMARK                            x       y       z     vdW  Elec       q    Type
REMARK                         _______ _______ _______ _____ _____    ______ ____
ROOT
ATOM      1  C   UNL     1       2.546   7.262  18.825  0.00  0.00    +0.000 A 
ATOM      2  C   UNL     1       2.134   6.885  20.114  0.00  0.00    +0.000 A 
ATOM      3  C   UNL     1       1.335   7.726  20.896  0.00  0.00    +0.000 A 
ATOM      4  C   UNL     1       0.905   8.953  20.394  0.00  0.00    +0.000 A 
ATOM      5  C   UNL     1       1.274   9.356  19.108  0.00  0.00    +0.000 A 
ATOM      6  C   UNL     1       2.112   8.520  18.358  0.00  0.00    +0.000 A 
ENDROOT
BRANCH   1  10
ATOM      7  C   UNL     1       4.984   4.692  16.324  0.00  0.00    +0.000 A 
ATOM      8  C   UNL     1       5.188   6.075  16.348  0.00  0.00    +0.000 A 
ATOM      9  C   UNL     1       4.392   6.898  17.149  0.00  0.00    +0.000 A 
ATOM     10  C   UNL     1       3.375   6.377  17.970  0.00  0.00    +0.000 A 
ATOM     11  C   UNL     1       3.184   4.985  17.937  0.00  0.00    +0.000 A 
ATOM     12  C   UNL     1       3.968   4.157  17.123  0.00  0.00    +0.000 A 
BRANCH   7  13
ATOM     13  C   UNL     1       5.825   3.812  15.439  0.00  0.00    +0.000 C 
BRANCH  13  14
ATOM     14  N   UNL     1       5.917   4.347  14.085  0.00  0.00    +0.000 NA
ATOM     15  H   UNL     1       6.208   3.604  13.452  0.00  0.00    +0.000 HD
ATOM     16  H   UNL     1       6.654   5.050  14.061  0.00  0.00    +0.000 HD
ENDBRANCH  13  14
ENDBRANCH   7  13
ENDBRANCH   1  10
BRANCH   5  17
ATOM     17  C   UNL     1       0.729  10.634  18.508  0.00  0.00    +0.000 C 
BRANCH  17  18
ATOM     18  C   UNL     1      -0.764  10.661  18.282  0.00  0.00    +0.000 A 
ATOM     19  C   UNL     1      -1.287   9.992  17.237  0.00  0.00    +0.000 A 
ATOM     20  C   UNL     1      -2.722  10.057  16.884  0.00  0.00    +0.000 A 
ATOM     21  O   UNL     1      -3.140   9.478  15.883  0.00  0.00    +0.000 OA
ATOM     22  N   UNL     1      -3.507  10.811  17.704  0.00  0.00    +0.000 N 
ATOM     23  C   UNL     1      -3.046  11.554  18.805  0.00  0.00    +0.000 A 
ATOM     24  N   UNL     1      -3.937  12.305  19.506  0.00  0.00    +0.000 NA
ATOM     25  C   UNL     1      -3.472  13.028  20.541  0.00  0.00    +0.000 A 
ATOM     26  C   UNL     1      -2.145  13.049  20.916  0.00  0.00    +0.000 A 
ATOM     27  C   UNL     1      -1.240  12.279  20.188  0.00  0.00    +0.000 A 
ATOM     28  C   UNL     1      -1.673  11.498  19.109  0.00  0.00    +0.000 A 
BRANCH  22  29
ATOM     29  O   UNL     1      -4.870  10.948  17.350  0.00  0.00    +0.000 OA
ATOM     30  H   UNL     1      -4.826  10.882  16.375  0.00  0.00    +0.000 HD
ENDBRANCH  22  29
ENDBRANCH  17  18
ENDBRANCH   5  17
TORSDOF 6
ENDMDL
MODEL 7
REMARK VINA RESULT:      -8.6      2.583      3.803
REMARK  Name = 
REMARK  6 active torsions:
REMARK  status: ('A' for Active; 'I' for Inactive)
REMARK    1  A    between atoms: N_1  and  C_2
REMARK    2  A    between atoms: C_2  and  C_3
REMARK    3  A    between atoms: C_6  and  C_7
REMARK    4  A    between atoms: C_11  and  C_12
REMARK    5  A    between atoms: C_12  and  C_13
REMARK    6  A    between atoms: N_17  and  O_18
REMARK                            x       y       z     vdW  Elec       q    Type
REMARK                         _______ _______ _______ _____ _____    ______ ____
ROOT
ATOM      1  C   UNL     1       1.299   7.712  20.549  0.00  0.00    +0.000 A 
ATOM      2  C   UNL     1       1.134   6.421  21.074  0.00  0.00    +0.000 A 
ATOM      3  C   UNL     1       1.761   5.314  20.493  0.00  0.00    +0.000 A 
ATOM      4  C   UNL     1       2.593   5.479  19.386  0.00  0.00    +0.000 A 
ATOM      5  C   UNL     1       2.802   6.751  18.847  0.00  0.00    +0.000 A 
ATOM      6  C   UNL     1       2.128   7.840  19.415  0.00  0.00    +0.000 A 
ENDROOT
BRANCH   1  10
ATOM      7  C   UNL     1      -0.565  11.203  22.323  0.00  0.00    +0.000 A 
ATOM      8  C   UNL     1       0.081  11.284  21.086  0.00  0.00    +0.000 A 
ATOM      9  C   UNL     1       0.688  10.157  20.525  0.00  0.00    +0.000 A 
ATOM     10  C   UNL     1       0.662   8.903  21.163  0.00  0.00    +0.000 A 
ATOM     11  C   UNL     1       0.005   8.837  22.404  0.00  0.00    +0.000 A 
ATOM     12  C   UNL     1      -0.591   9.968  22.979  0.00  0.00    +0.000 A 
BRANCH   7  13
ATOM     13  C   UNL     1      -1.193  12.425  22.937  0.00  0.00    +0.000 C 
BRANCH  13  14
ATOM     14  N   UNL     1      -2.635  12.265  23.089  0.00  0.00    +0.000 NA
ATOM     15  H   UNL     1      -2.830  11.335  23.455  0.00  0.00    +0.000 HD
ATOM     16  H   UNL     1      -3.067  12.307  22.166  0.00  0.00    +0.000 HD
ENDBRANCH  13  14
ENDBRANCH   7  13
ENDBRANCH   1  10
BRANCH   5  17
ATOM     17  C   UNL     1       3.785   6.963  17.715  0.00  0.00    +0.000 C 
BRANCH  17  18
ATOM     18  C   UNL     1       5.041   6.126  17.780  0.00  0.00    +0.000 A 
ATOM     19  C   UNL     1       5.687   5.995  18.954  0.00  0.00    +0.000 A 
ATOM     20  C   UNL     1       6.979   5.286  19.079  0.00  0.00    +0.000 A 
ATOM     21  O   UNL     1       7.561   5.246  20.162  0.00  0.00    +0.000 OA
ATOM     22  N   UNL     1       7.472   4.733  17.936  0.00  0.00    +0.000 N 
ATOM     23  C   UNL     1       6.875   4.833  16.667  0.00  0.00    +0.000 A 
ATOM     24  N   UNL     1       7.508   4.274  15.600  0.00  0.00    +0.000 NA
ATOM     25  C   UNL     1       6.934   4.402  14.391  0.00  0.00    +0.000 A 
ATOM     26  C   UNL     1       5.747   5.074  14.183  0.00  0.00    +0.000 A 
ATOM     27  C   UNL     1       5.110   5.648  15.282  0.00  0.00    +0.000 A 
ATOM     28  C   UNL     1       5.658   5.533  16.565  0.00  0.00    +0.000 A 
BRANCH  22  29
ATOM     29  O   UNL     1       8.740   4.110  18.012  0.00  0.00    +0.000 OA
ATOM     30  H   UNL     1       8.797   3.899  18.965  0.00  0.00    +0.000 HD
ENDBRANCH  22  29
ENDBRANCH  17  18
ENDBRANCH   5  17
TORSDOF 6
ENDMDL
MODEL 8
REMARK VINA RESULT:      -8.5      1.269      2.739
REMARK  Name = 
REMARK  6 active torsions:
REMARK  status: ('A' for Active; 'I' for Inactive)
REMARK    1  A    between atoms: N_1  and  C_2
REMARK    2  A    between atoms: C_2  and  C_3
REMARK    3  A    between atoms: C_6  and  C_7
REMARK    4  A    between atoms: C_11  and  C_12
REMARK    5  A    between atoms: C_12  and  C_13
REMARK    6  A    between atoms: N_17  and  O_18
REMARK                            x       y       z     vdW  Elec       q    Type
REMARK                         _______ _______ _______ _____ _____    ______ ____
ROOT
ATOM      1  C   UNL     1       2.232   5.976  19.879  0.00  0.00    +0.000 A 
ATOM      2  C   UNL     1       1.440   5.221  20.758  0.00  0.00    +0.000 A 
ATOM      3  C   UNL     1       1.752   3.890  21.056  0.00  0.00    +0.000 A 
ATOM      4  C   UNL     1       2.883   3.293  20.501  0.00  0.00    +0.000 A 
ATOM      5  C   UNL     1       3.710   4.017  19.638  0.00  0.00    +0.000 A 
ATOM      6  C   UNL     1       3.354   5.334  19.317  0.00  0.00    +0.000 A 
ENDROOT
BRANCH   1  10
ATOM      7  C   UNL     1       1.354  10.129  18.987  0.00  0.00    +0.000 A 
ATOM      8  C   UNL     1       1.047   9.582  20.236  0.00  0.00    +0.000 A 
ATOM      9  C   UNL     1       1.323   8.240  20.514  0.00  0.00    +0.000 A 
ATOM     10  C   UNL     1       1.932   7.396  19.566  0.00  0.00    +0.000 A 
ATOM     11  C   UNL     1       2.238   7.962  18.317  0.00  0.00    +0.000 A 
ATOM     12  C   UNL     1       1.948   9.302  18.028  0.00  0.00    +0.000 A 
BRANCH   7  13
ATOM     13  C   UNL     1       1.029  11.567  18.683  0.00  0.00    +0.000 C 
BRANCH  13  14
ATOM     14  N   UNL     1       2.018  12.160  17.790  0.00  0.00    +0.000 NA
ATOM     15  H   UNL     1       1.856  11.822  16.843  0.00  0.00    +0.000 HD
ATOM     16  H   UNL     1       2.943  11.828  18.060  0.00  0.00    +0.000 HD
ENDBRANCH  13  14
ENDBRANCH   7  13
ENDBRANCH   1  10
BRANCH   5  17
ATOM     17  C   UNL     1       4.997   3.420  19.112  0.00  0.00    +0.000 C 
BRANCH  17  18
ATOM     18  C   UNL     1       5.918   4.384  18.404  0.00  0.00    +0.000 A 
ATOM     19  C   UNL     1       6.673   5.231  19.129  0.00  0.00    +0.000 A 
ATOM     20  C   UNL     1       7.517   6.277  18.512  0.00  0.00    +0.000 A 
ATOM     21  O   UNL     1       8.141   7.066  19.219  0.00  0.00    +0.000 OA
ATOM     22  N   UNL     1       7.519   6.319  17.150  0.00  0.00    +0.000 N 
ATOM     23  C   UNL     1       6.753   5.487  16.314  0.00  0.00    +0.000 A 
ATOM     24  N   UNL     1       6.815   5.676  14.969  0.00  0.00    +0.000 NA
ATOM     25  C   UNL     1       6.055   4.887  14.188  0.00  0.00    +0.000 A 
ATOM     26  C   UNL     1       5.218   3.910  14.684  0.00  0.00    +0.000 A 
ATOM     27  C   UNL     1       5.158   3.729  16.065  0.00  0.00    +0.000 A 
ATOM     28  C   UNL     1       5.937   4.515  16.923  0.00  0.00    +0.000 A 
BRANCH  22  29
ATOM     29  O   UNL     1       8.262   7.354  16.535  0.00  0.00    +0.000 OA
ATOM     30  H   UNL     1       8.137   7.148  15.587  0.00  0.00    +0.000 HD
ENDBRANCH  22  29
ENDBRANCH  17  18
ENDBRANCH   5  17
TORSDOF 6
ENDMDL
MODEL 9
REMARK VINA RESULT:      -8.4      4.842      9.372
REMARK  Name = 
REMARK  6 active torsions:
REMARK  status: ('A' for Active; 'I' for Inactive)
REMARK    1  A    between atoms: N_1  and  C_2
REMARK    2  A    between atoms: C_2  and  C_3
REMARK    3  A    between atoms: C_6  and  C_7
REMARK    4  A    between atoms: C_11  and  C_12
REMARK    5  A    between atoms: C_12  and  C_13
REMARK    6  A    between atoms: N_17  and  O_18
REMARK                            x       y       z     vdW  Elec       q    Type
REMARK                         _______ _______ _______ _____ _____    ______ ____
ROOT
ATOM      1  C   UNL     1       1.318   8.396  20.499  0.00  0.00    +0.000 A 
ATOM      2  C   UNL     1       0.962   8.462  21.856  0.00  0.00    +0.000 A 
ATOM      3  C   UNL     1       0.300   9.578  22.379  0.00  0.00    +0.000 A 
ATOM      4  C   UNL     1      -0.047  10.643  21.548  0.00  0.00    +0.000 A 
ATOM      5  C   UNL     1       0.269  10.606  20.188  0.00  0.00    +0.000 A 
ATOM      6  C   UNL     1       0.973   9.500  19.693  0.00  0.00    +0.000 A 
ENDROOT
BRANCH   1  10
ATOM      7  C   UNL     1       3.324   4.953  18.788  0.00  0.00    +0.000 A 
ATOM      8  C   UNL     1       3.328   6.187  18.131  0.00  0.00    +0.000 A 
ATOM      9  C   UNL     1       2.671   7.290  18.683  0.00  0.00    +0.000 A 
ATOM     10  C   UNL     1       2.000   7.213  19.918  0.00  0.00    +0.000 A 
ATOM     11  C   UNL     1       2.009   5.966  20.568  0.00  0.00    +0.000 A 
ATOM     12  C   UNL     1       2.651   4.853  20.010  0.00  0.00    +0.000 A 
BRANCH   7  13
ATOM     13  C   UNL     1       4.009   3.761  18.176  0.00  0.00    +0.000 C 
BRANCH  13  14
ATOM     14  N   UNL     1       5.179   3.360  18.951  0.00  0.00    +0.000 NA
ATOM     15  H   UNL     1       5.781   2.780  18.369  0.00  0.00    +0.000 HD
ATOM     16  H   UNL     1       4.871   2.771  19.724  0.00  0.00    +0.000 HD
ENDBRANCH  13  14
ENDBRANCH   7  13
ENDBRANCH   1  10
BRANCH   5  17
ATOM     17  C   UNL     1      -0.193  11.702  19.253  0.00  0.00    +0.000 C 
BRANCH  17  18
ATOM     18  C   UNL     1      -1.540  11.479  18.606  0.00  0.00    +0.000 A 
ATOM     19  C   UNL     1      -1.603  10.893  17.396  0.00  0.00    +0.000 A 
ATOM     20  C   UNL     1      -2.869  10.738  16.648  0.00  0.00    +0.000 A 
ATOM     21  O   UNL     1      -2.866  10.250  15.519  0.00  0.00    +0.000 OA
ATOM     22  N   UNL     1      -3.992  11.192  17.271  0.00  0.00    +0.000 N 
ATOM     23  C   UNL     1      -4.019  11.830  18.524  0.00  0.00    +0.000 A 
ATOM     24  N   UNL     1      -5.210  12.281  19.003  0.00  0.00    +0.000 NA
ATOM     25  C   UNL     1      -5.211  12.911  20.191  0.00  0.00    +0.000 A 
ATOM     26  C   UNL     1      -4.071  13.125  20.937  0.00  0.00    +0.000 A 
ATOM     27  C   UNL     1      -2.855  12.664  20.434  0.00  0.00    +0.000 A 
ATOM     28  C   UNL     1      -2.799  11.990  19.207  0.00  0.00    +0.000 A 
BRANCH  22  29
ATOM     29  O   UNL     1      -5.208  11.121  16.550  0.00  0.00    +0.000 OA
ATOM     30  H   UNL     1      -5.191  10.197  16.230  0.00  0.00    +0.000 HD
ENDBRANCH  22  29
ENDBRANCH  17  18
ENDBRANCH   5  17
TORSDOF 6
ENDMDL
