MODEL 1
REMARK VINA RESULT:      -9.4      0.000      0.000
REMARK  Name = 
REMARK  5 active torsions:
REMARK  status: ('A' for Active; 'I' for Inactive)
REMARK    1  A    between atoms: C_2  and  C_4
REMARK    2  A    between atoms: C_9  and  N_10
REMARK    3  A    between atoms: N_10  and  C_11
REMARK    4  A    between atoms: C_14  and  N_15
REMARK    5  A    between atoms: C_16  and  C_18
REMARK                            x       y       z     vdW  Elec       q    Type
REMARK                         _______ _______ _______ _____ _____    ______ ____
ROOT
ATOM      1  C   UNL     1       6.236   4.858  17.786  0.00  0.00    +0.000 A 
ATOM      2  C   UNL     1       6.531   5.862  16.865  0.00  0.00    +0.000 A 
ATOM      3  C   UNL     1       7.401   6.905  17.198  0.00  0.00    +0.000 A 
ATOM      4  C   UNL     1       7.997   6.973  18.459  0.00  0.00    +0.000 A 
ATOM      5  C   UNL     1       7.822   5.897  19.332  0.00  0.00    +0.000 A 
ATOM      6  C   UNL     1       6.947   4.850  18.993  0.00  0.00    +0.000 A 
ENDROOT
BRANCH   4   7
ATOM      7  N   UNL     1       8.745   8.095  18.888  0.00  0.00    +0.000 N 
ATOM      8  C   UNL     1       8.528   9.394  18.441  0.00  0.00    +0.000 C 
ATOM      9  O   UNL     1       7.655   9.741  17.653  0.00  0.00    +0.000 OA
ATOM     10  H   UNL     1       9.400   7.943  19.640  0.00  0.00    +0.000 HD
BRANCH   8  11
ATOM     11  C   UNL     1       9.427  10.461  18.960  0.00  0.00    +0.000 A 
ATOM     12  C   UNL     1      10.239  11.116  18.021  0.00  0.00    +0.000 A 
ATOM     13  C   UNL     1      11.125  12.115  18.420  0.00  0.00    +0.000 A 
ATOM     14  C   UNL     1      11.195  12.478  19.761  0.00  0.00    +0.000 A 
ATOM     15  C   UNL     1      10.368  11.857  20.699  0.00  0.00    +0.000 A 
ATOM     16  C   UNL     1       9.478  10.851  20.303  0.00  0.00    +0.000 A 
ENDBRANCH   8  11
ENDBRANCH   4   7
BRANCH   1  17
ATOM     17  N   UNL     1       5.254   3.902  17.472  0.00  0.00    +0.000 N 
ATOM     18  H   UNL     1       5.591   3.088  16.963  0.00  0.00    +0.000 HD
BRANCH  17  24
ATOM     19  C   UNL     1       3.503   2.770  18.819  0.00  0.00    +0.000 A 
ATOM     20  C   UNL     1       2.152   2.689  19.204  0.00  0.00    +0.000 A 
ATOM     21  C   UNL     1       1.214   3.595  18.716  0.00  0.00    +0.000 A 
ATOM     22  C   UNL     1       1.616   4.595  17.841  0.00  0.00    +0.000 A 
ATOM     23  C   UNL     1       2.951   4.677  17.441  0.00  0.00    +0.000 A 
ATOM     24  C   UNL     1       3.921   3.776  17.918  0.00  0.00    +0.000 A 
BRANCH  19  26
ATOM     25  N   UNL     1       4.422   0.504  18.818  0.00  0.00    +0.000 N 
ATOM     26  C   UNL     1       4.390   1.729  19.415  0.00  0.00    +0.000 C 
ATOM     27  O   UNL     1       5.018   1.933  20.447  0.00  0.00    +0.000 OA
ATOM     28  H   UNL     1       4.850  -0.241  19.348  0.00  0.00    +0.000 HD
ATOM     29  H   UNL     1       3.746   0.257  18.096  0.00  0.00    +0.000 HD
ENDBRANCH  19  26
ENDBRANCH  17  24
ENDBRANCH   1  17
TORSDOF 5
ENDMDL
MODEL 2
REMARK VINA RESULT:      -8.9      1.006      1.401
REMARK  Name = 
REMARK  5 active torsions:
REMARK  status: ('A' for Active; 'I' for Inactive)
REMARK    1  A    between atoms: C_2  and  C_4
REMARK    2  A    between atoms: C_9  and  N_10
REMARK    3  A    between atoms: N_10  and  C_11
REMARK    4  A    between atoms: C_14  and  N_15
REMARK    5  A    between atoms: C_16  and  C_18
REMARK                            x       y       z     vdW  Elec       q    Type
REMARK                         _______ _______ _______ _____ _____    ______ ____
ROOT
ATOM      1  C   UNL     1       5.873   5.462  18.178  0.00  0.00    +0.000 A 
ATOM      2  C   UNL     1       5.953   6.542  17.299  0.00  0.00    +0.000 A 
ATOM      3  C   UNL     1       6.968   7.496  17.428  0.00  0.00    +0.000 A 
ATOM      4  C   UNL     1       7.927   7.397  18.438  0.00  0.00    +0.000 A 
ATOM      5  C   UNL     1       7.941   6.245  19.227  0.00  0.00    +0.000 A 
ATOM      6  C   UNL     1       6.920   5.287  19.094  0.00  0.00    +0.000 A 
ENDROOT
BRANCH   4   7
ATOM      7  N   UNL     1       8.863   8.425  18.703  0.00  0.00    +0.000 N 
ATOM      8  C   UNL     1       8.669   9.761  18.369  0.00  0.00    +0.000 C 
ATOM      9  O   UNL     1       7.665  10.225  17.836  0.00  0.00    +0.000 OA
ATOM     10  H   UNL     1       9.665   8.176  19.261  0.00  0.00    +0.000 HD
BRANCH   8  11
ATOM     11  C   UNL     1       9.766  10.717  18.681  0.00  0.00    +0.000 A 
ATOM     12  C   UNL     1       9.982  11.011  20.036  0.00  0.00    +0.000 A 
ATOM     13  C   UNL     1      10.976  11.910  20.420  0.00  0.00    +0.000 A 
ATOM     14  C   UNL     1      11.772  12.512  19.450  0.00  0.00    +0.000 A 
ATOM     15  C   UNL     1      11.587  12.202  18.101  0.00  0.00    +0.000 A 
ATOM     16  C   UNL     1      10.589  11.301  17.711  0.00  0.00    +0.000 A 
ENDBRANCH   8  11
ENDBRANCH   4   7
BRANCH   1  17
ATOM     17  N   UNL     1       4.766   4.599  18.109  0.00  0.00    +0.000 N 
ATOM     18  H   UNL     1       4.814   3.892  17.378  0.00  0.00    +0.000 HD
BRANCH  17  24
ATOM     19  C   UNL     1       3.493   3.207  19.722  0.00  0.00    +0.000 A 
ATOM     20  C   UNL     1       2.388   3.080  20.584  0.00  0.00    +0.000 A 
ATOM     21  C   UNL     1       1.487   4.128  20.753  0.00  0.00    +0.000 A 
ATOM     22  C   UNL     1       1.684   5.318  20.066  0.00  0.00    +0.000 A 
ATOM     23  C   UNL     1       2.768   5.453  19.197  0.00  0.00    +0.000 A 
ATOM     24  C   UNL     1       3.694   4.410  19.006  0.00  0.00    +0.000 A 
BRANCH  19  26
ATOM     25  N   UNL     1       4.192   1.166  18.571  0.00  0.00    +0.000 N 
ATOM     26  C   UNL     1       4.365   2.000  19.635  0.00  0.00    +0.000 C 
ATOM     27  O   UNL     1       5.163   1.719  20.522  0.00  0.00    +0.000 OA
ATOM     28  H   UNL     1       4.629   0.259  18.638  0.00  0.00    +0.000 HD
ATOM     29  H   UNL     1       3.392   1.272  17.949  0.00  0.00    +0.000 HD
ENDBRANCH  19  26
ENDBRANCH  17  24
ENDBRANCH   1  17
TORSDOF 5
ENDMDL
MODEL 3
REMARK VINA RESULT:      -8.7      1.406      1.453
REMARK  Name = 
REMARK  5 active torsions:
REMARK  status: ('A' for Active; 'I' for Inactive)
REMARK    1  A    between atoms: C_2  and  C_4
REMARK    2  A    between atoms: C_9  and  N_10
REMARK    3  A    between atoms: N_10  and  C_11
REMARK    4  A    between atoms: C_14  and  N_15
REMARK    5  A    between atoms: C_16  and  C_18
REMARK                            x       y       z     vdW  Elec       q    Type
REMARK                         _______ _______ _______ _____ _____    ______ ____
ROOT
ATOM      1  C   UNL     1       5.769   5.526  18.082  0.00  0.00    +0.000 A 
ATOM      2  C   UNL     1       5.888   6.629  17.238  0.00  0.00    +0.000 A 
ATOM      3  C   UNL     1       6.924   7.553  17.410  0.00  0.00    +0.000 A 
ATOM      4  C   UNL     1       7.866   7.400  18.430  0.00  0.00    +0.000 A 
ATOM      5  C   UNL     1       7.839   6.224  19.183  0.00  0.00    +0.000 A 
ATOM      6  C   UNL     1       6.797   5.297  19.007  0.00  0.00    +0.000 A 
ENDROOT
BRANCH   4   7
ATOM      7  N   UNL     1       8.822   8.396  18.740  0.00  0.00    +0.000 N 
ATOM      8  C   UNL     1       8.678   9.741  18.417  0.00  0.00    +0.000 C 
ATOM      9  O   UNL     1       7.707  10.242  17.859  0.00  0.00    +0.000 OA
ATOM     10  H   UNL     1       9.598   8.115  19.319  0.00  0.00    +0.000 HD
BRANCH   8  11
ATOM     11  C   UNL     1       9.793  10.660  18.778  0.00  0.00    +0.000 A 
ATOM     12  C   UNL     1      10.553  11.179  17.718  0.00  0.00    +0.000 A 
ATOM     13  C   UNL     1      11.627  12.032  17.963  0.00  0.00    +0.000 A 
ATOM     14  C   UNL     1      11.941  12.385  19.272  0.00  0.00    +0.000 A 
ATOM     15  C   UNL     1      11.172  11.900  20.332  0.00  0.00    +0.000 A 
ATOM     16  C   UNL     1      10.093  11.042  20.091  0.00  0.00    +0.000 A 
ENDBRANCH   8  11
ENDBRANCH   4   7
BRANCH   1  17
ATOM     17  N   UNL     1       4.642   4.692  17.971  0.00  0.00    +0.000 N 
ATOM     18  H   UNL     1       4.714   3.959  17.270  0.00  0.00    +0.000 HD
BRANCH  17  24
ATOM     19  C   UNL     1       2.719   3.395  18.856  0.00  0.00    +0.000 A 
ATOM     20  C   UNL     1       1.589   3.348  19.692  0.00  0.00    +0.000 A 
ATOM     21  C   UNL     1       1.238   4.438  20.484  0.00  0.00    +0.000 A 
ATOM     22  C   UNL     1       2.016   5.588  20.451  0.00  0.00    +0.000 A 
ATOM     23  C   UNL     1       3.131   5.653  19.615  0.00  0.00    +0.000 A 
ATOM     24  C   UNL     1       3.510   4.567  18.804  0.00  0.00    +0.000 A 
BRANCH  19  26
ATOM     25  N   UNL     1       3.947   1.313  18.489  0.00  0.00    +0.000 N 
ATOM     26  C   UNL     1       2.966   2.157  18.061  0.00  0.00    +0.000 C 
ATOM     27  O   UNL     1       2.365   1.933  17.017  0.00  0.00    +0.000 OA
ATOM     28  H   UNL     1       4.245   0.605  17.833  0.00  0.00    +0.000 HD
ATOM     29  H   UNL     1       4.594   1.594  19.224  0.00  0.00    +0.000 HD
ENDBRANCH  19  26
ENDBRANCH  17  24
ENDBRANCH   1  17
TORSDOF 5
ENDMDL
MODEL 4
REMARK VINA RESULT:      -8.7      1.529      2.161
REMARK  Name = 
REMARK  5 active torsions:
REMARK  status: ('A' for Active; 'I' for Inactive)
REMARK    1  A    between atoms: C_2  and  C_4
REMARK    2  A    between atoms: C_9  and  N_10
REMARK    3  A    between atoms: N_10  and  C_11
REMARK    4  A    between atoms: C_14  and  N_15
REMARK    5  A    between atoms: C_16  and  C_18
REMARK                            x       y       z     vdW  Elec       q    Type
REMARK                         _______ _______ _______ _____ _____    ______ ____
ROOT
ATOM      1  C   UNL     1       6.113   4.954  17.588  0.00  0.00    +0.000 A 
ATOM      2  C   UNL     1       6.546   5.925  16.686  0.00  0.00    +0.000 A 
ATOM      3  C   UNL     1       7.440   6.925  17.084  0.00  0.00    +0.000 A 
ATOM      4  C   UNL     1       7.923   6.981  18.393  0.00  0.00    +0.000 A 
ATOM      5  C   UNL     1       7.611   5.931  19.259  0.00  0.00    +0.000 A 
ATOM      6  C   UNL     1       6.712   4.928  18.855  0.00  0.00    +0.000 A 
ENDROOT
BRANCH   4   7
ATOM      7  N   UNL     1       8.691   8.068  18.875  0.00  0.00    +0.000 N 
ATOM      8  C   UNL     1       8.529   9.383  18.455  0.00  0.00    +0.000 C 
ATOM      9  O   UNL     1       7.694   9.778  17.647  0.00  0.00    +0.000 OA
ATOM     10  H   UNL     1       9.316   7.876  19.642  0.00  0.00    +0.000 HD
BRANCH   8  11
ATOM     11  C   UNL     1       9.443  10.409  19.029  0.00  0.00    +0.000 A 
ATOM     12  C   UNL     1      10.348  11.017  18.144  0.00  0.00    +0.000 A 
ATOM     13  C   UNL     1      11.253  11.973  18.599  0.00  0.00    +0.000 A 
ATOM     14  C   UNL     1      11.251  12.341  19.941  0.00  0.00    +0.000 A 
ATOM     15  C   UNL     1      10.334  11.767  20.823  0.00  0.00    +0.000 A 
ATOM     16  C   UNL     1       9.423  10.804  20.372  0.00  0.00    +0.000 A 
ENDBRANCH   8  11
ENDBRANCH   4   7
BRANCH   1  17
ATOM     17  N   UNL     1       5.112   4.048  17.198  0.00  0.00    +0.000 N 
ATOM     18  H   UNL     1       5.310   3.524  16.349  0.00  0.00    +0.000 HD
BRANCH  17  24
ATOM     19  C   UNL     1       3.061   4.458  18.535  0.00  0.00    +0.000 A 
ATOM     20  C   UNL     1       1.956   3.930  19.226  0.00  0.00    +0.000 A 
ATOM     21  C   UNL     1       1.735   2.556  19.280  0.00  0.00    +0.000 A 
ATOM     22  C   UNL     1       2.614   1.695  18.638  0.00  0.00    +0.000 A 
ATOM     23  C   UNL     1       3.722   2.205  17.960  0.00  0.00    +0.000 A 
ATOM     24  C   UNL     1       3.971   3.589  17.890  0.00  0.00    +0.000 A 
BRANCH  19  26
ATOM     25  N   UNL     1       3.108   6.558  19.787  0.00  0.00    +0.000 N 
ATOM     26  C   UNL     1       3.174   5.945  18.571  0.00  0.00    +0.000 C 
ATOM     27  O   UNL     1       3.250   6.610  17.544  0.00  0.00    +0.000 OA
ATOM     28  H   UNL     1       2.969   7.558  19.777  0.00  0.00    +0.000 HD
ATOM     29  H   UNL     1       2.828   6.040  20.618  0.00  0.00    +0.000 HD
ENDBRANCH  19  26
ENDBRANCH  17  24
ENDBRANCH   1  17
TORSDOF 5
ENDMDL
MODEL 5
REMARK VINA RESULT:      -8.6      6.249      7.733
REMARK  Name = 
REMARK  5 active torsions:
REMARK  status: ('A' for Active; 'I' for Inactive)
REMARK    1  A    between atoms: C_2  and  C_4
REMARK    2  A    between atoms: C_9  and  N_10
REMARK    3  A    between atoms: N_10  and  C_11
REMARK    4  A    between atoms: C_14  and  N_15
REMARK    5  A    between atoms: C_16  and  C_18
REMARK                            x       y       z     vdW  Elec       q    Type
REMARK                         _______ _______ _______ _____ _____    ______ ____
ROOT
ATOM      1  C   UNL     1       2.373   7.341  18.785  0.00  0.00    +0.000 A 
ATOM      2  C   UNL     1       1.979   8.527  18.166  0.00  0.00    +0.000 A 
ATOM      3  C   UNL     1       1.253   9.494  18.868  0.00  0.00    +0.000 A 
ATOM      4  C   UNL     1       0.898   9.301  20.205  0.00  0.00    +0.000 A 
ATOM      5  C   UNL     1       1.412   8.186  20.871  0.00  0.00    +0.000 A 
ATOM      6  C   UNL     1       2.144   7.217  20.163  0.00  0.00    +0.000 A 
ENDROOT
BRANCH   4   7
ATOM      7  N   UNL     1       0.024  10.174  20.895  0.00  0.00    +0.000 N 
ATOM      8  C   UNL     1       0.400  11.414  21.400  0.00  0.00    +0.000 C 
ATOM      9  O   UNL     1       1.511  11.922  21.291  0.00  0.00    +0.000 OA
ATOM     10  H   UNL     1      -0.950   9.913  20.921  0.00  0.00    +0.000 HD
BRANCH   8  11
ATOM     11  C   UNL     1      -0.628  12.199  22.137  0.00  0.00    +0.000 A 
ATOM     12  C   UNL     1      -1.699  11.478  22.689  0.00  0.00    +0.000 A 
ATOM     13  C   UNL     1      -2.717  12.134  23.379  0.00  0.00    +0.000 A 
ATOM     14  C   UNL     1      -2.664  13.515  23.536  0.00  0.00    +0.000 A 
ATOM     15  C   UNL     1      -1.586  14.238  23.020  0.00  0.00    +0.000 A 
ATOM     16  C   UNL     1      -0.562  13.584  22.324  0.00  0.00    +0.000 A 
ENDBRANCH   8  11
ENDBRANCH   4   7
BRANCH   1  17
ATOM     17  N   UNL     1       2.981   6.332  18.018  0.00  0.00    +0.000 N 
ATOM     18  H   UNL     1       3.689   6.655  17.362  0.00  0.00    +0.000 HD
BRANCH  17  24
ATOM     19  C   UNL     1       4.050   4.144  18.498  0.00  0.00    +0.000 A 
ATOM     20  C   UNL     1       3.930   2.745  18.582  0.00  0.00    +0.000 A 
ATOM     21  C   UNL     1       2.716   2.113  18.331  0.00  0.00    +0.000 A 
ATOM     22  C   UNL     1       1.604   2.875  17.997  0.00  0.00    +0.000 A 
ATOM     23  C   UNL     1       1.712   4.262  17.895  0.00  0.00    +0.000 A 
ATOM     24  C   UNL     1       2.928   4.927  18.144  0.00  0.00    +0.000 A 
BRANCH  19  26
ATOM     25  N   UNL     1       6.471   4.093  18.154  0.00  0.00    +0.000 N 
ATOM     26  C   UNL     1       5.413   4.677  18.785  0.00  0.00    +0.000 C 
ATOM     27  O   UNL     1       5.596   5.562  19.614  0.00  0.00    +0.000 OA
ATOM     28  H   UNL     1       7.386   4.315  18.516  0.00  0.00    +0.000 HD
ATOM     29  H   UNL     1       6.354   3.224  17.635  0.00  0.00    +0.000 HD
ENDBRANCH  19  26
ENDBRANCH  17  24
ENDBRANCH   1  17
TORSDOF 5
ENDMDL
MODEL 6
REMARK VINA RESULT:      -8.6      1.521      1.742
REMARK  Name = 
REMARK  5 active torsions:
REMARK  status: ('A' for Active; 'I' for Inactive)
REMARK    1  A    between atoms: C_2  and  C_4
REMARK    2  A    between atoms: C_9  and  N_10
REMARK    3  A    between atoms: N_10  and  C_11
REMARK    4  A    between atoms: C_14  and  N_15
REMARK    5  A    between atoms: C_16  and  C_18
REMARK                            x       y       z     vdW  Elec       q    Type
REMARK                         _______ _______ _______ _____ _____    ______ ____
ROOT
ATOM      1  C   UNL     1       6.406   5.549  18.560  0.00  0.00    +0.000 A 
ATOM      2  C   UNL     1       5.912   6.332  17.518  0.00  0.00    +0.000 A 
ATOM      3  C   UNL     1       6.561   7.511  17.138  0.00  0.00    +0.000 A 
ATOM      4  C   UNL     1       7.719   7.939  17.791  0.00  0.00    +0.000 A 
ATOM      5  C   UNL     1       8.300   7.088  18.734  0.00  0.00    +0.000 A 
ATOM      6  C   UNL     1       7.644   5.903  19.112  0.00  0.00    +0.000 A 
ENDROOT
BRANCH   4   7
ATOM      7  N   UNL     1       8.306   9.204  17.550  0.00  0.00    +0.000 N 
ATOM      8  C   UNL     1       8.898   9.988  18.534  0.00  0.00    +0.000 C 
ATOM      9  O   UNL     1       9.018   9.682  19.716  0.00  0.00    +0.000 OA
ATOM     10  H   UNL     1       8.384   9.492  16.587  0.00  0.00    +0.000 HD
BRANCH   8  11
ATOM     11  C   UNL     1       9.438  11.315  18.127  0.00  0.00    +0.000 A 
ATOM     12  C   UNL     1      10.810  11.378  17.837  0.00  0.00    +0.000 A 
ATOM     13  C   UNL     1      11.405  12.582  17.467  0.00  0.00    +0.000 A 
ATOM     14  C   UNL     1      10.628  13.732  17.369  0.00  0.00    +0.000 A 
ATOM     15  C   UNL     1       9.255  13.674  17.622  0.00  0.00    +0.000 A 
ATOM     16  C   UNL     1       8.654  12.467  17.997  0.00  0.00    +0.000 A 
ENDBRANCH   8  11
ENDBRANCH   4   7
BRANCH   1  17
ATOM     17  N   UNL     1       5.658   4.446  19.008  0.00  0.00    +0.000 N 
ATOM     18  H   UNL     1       6.195   3.599  19.177  0.00  0.00    +0.000 HD
BRANCH  17  24
ATOM     19  C   UNL     1       3.675   3.139  19.730  0.00  0.00    +0.000 A 
ATOM     20  C   UNL     1       2.334   3.133  20.156  0.00  0.00    +0.000 A 
ATOM     21  C   UNL     1       1.631   4.323  20.326  0.00  0.00    +0.000 A 
ATOM     22  C   UNL     1       2.263   5.534  20.077  0.00  0.00    +0.000 A 
ATOM     23  C   UNL     1       3.588   5.553  19.641  0.00  0.00    +0.000 A 
ATOM     24  C   UNL     1       4.323   4.366  19.459  0.00  0.00    +0.000 A 
BRANCH  19  26
ATOM     25  N   UNL     1       3.821   0.977  18.598  0.00  0.00    +0.000 N 
ATOM     26  C   UNL     1       4.295   1.790  19.583  0.00  0.00    +0.000 C 
ATOM     27  O   UNL     1       5.150   1.388  20.363  0.00  0.00    +0.000 OA
ATOM     28  H   UNL     1       4.094   0.006  18.649  0.00  0.00    +0.000 HD
ATOM     29  H   UNL     1       2.971   1.214  18.089  0.00  0.00    +0.000 HD
ENDBRANCH  19  26
ENDBRANCH  17  24
ENDBRANCH   1  17
TORSDOF 5
ENDMDL
MODEL 7
REMARK VINA RESULT:      -8.6      6.212      8.017
REMARK  Name = 
REMARK  5 active torsions:
REMARK  status: ('A' for Active; 'I' for Inactive)
REMARK    1  A    between atoms: C_2  and  C_4
REMARK    2  A    between atoms: C_9  and  N_10
REMARK    3  A    between atoms: N_10  and  C_11
REMARK    4  A    between atoms: C_14  and  N_15
REMARK    5  A    between atoms: C_16  and  C_18
REMARK                            x       y       z     vdW  Elec       q    Type
REMARK                         _______ _______ _______ _____ _____    ______ ____
ROOT
ATOM      1  C   UNL     1       2.485   7.481  18.738  0.00  0.00    +0.000 A 
ATOM      2  C   UNL     1       2.030   8.576  18.004  0.00  0.00    +0.000 A 
ATOM      3  C   UNL     1       1.131   9.489  18.564  0.00  0.00    +0.000 A 
ATOM      4  C   UNL     1       0.660   9.330  19.869  0.00  0.00    +0.000 A 
ATOM      5  C   UNL     1       1.221   8.322  20.656  0.00  0.00    +0.000 A 
ATOM      6  C   UNL     1       2.126   7.407  20.091  0.00  0.00    +0.000 A 
ENDROOT
BRANCH   4   7
ATOM      7  N   UNL     1      -0.374  10.132  20.409  0.00  0.00    +0.000 N 
ATOM      8  C   UNL     1      -0.158  11.231  21.232  0.00  0.00    +0.000 C 
ATOM      9  O   UNL     1       0.939  11.666  21.570  0.00  0.00    +0.000 OA
ATOM     10  H   UNL     1      -1.310   9.945  20.083  0.00  0.00    +0.000 HD
BRANCH   8  11
ATOM     11  C   UNL     1      -1.354  11.950  21.751  0.00  0.00    +0.000 A 
ATOM     12  C   UNL     1      -1.972  12.861  20.880  0.00  0.00    +0.000 A 
ATOM     13  C   UNL     1      -3.086  13.592  21.289  0.00  0.00    +0.000 A 
ATOM     14  C   UNL     1      -3.600  13.407  22.568  0.00  0.00    +0.000 A 
ATOM     15  C   UNL     1      -3.013  12.479  23.432  0.00  0.00    +0.000 A 
ATOM     16  C   UNL     1      -1.893  11.744  23.027  0.00  0.00    +0.000 A 
ENDBRANCH   8  11
ENDBRANCH   4   7
BRANCH   1  17
ATOM     17  N   UNL     1       3.279   6.509  18.104  0.00  0.00    +0.000 N 
ATOM     18  H   UNL     1       4.151   6.854  17.709  0.00  0.00    +0.000 HD
BRANCH  17  24
ATOM     19  C   UNL     1       4.266   4.249  18.386  0.00  0.00    +0.000 A 
ATOM     20  C   UNL     1       4.097   2.853  18.340  0.00  0.00    +0.000 A 
ATOM     21  C   UNL     1       2.863   2.292  18.024  0.00  0.00    +0.000 A 
ATOM     22  C   UNL     1       1.782   3.120  17.756  0.00  0.00    +0.000 A 
ATOM     23  C   UNL     1       1.940   4.506  17.784  0.00  0.00    +0.000 A 
ATOM     24  C   UNL     1       3.175   5.102  18.099  0.00  0.00    +0.000 A 
BRANCH  19  26
ATOM     25  N   UNL     1       6.687   4.139  18.056  0.00  0.00    +0.000 N 
ATOM     26  C   UNL     1       5.645   4.705  18.728  0.00  0.00    +0.000 C 
ATOM     27  O   UNL     1       5.851   5.506  19.632  0.00  0.00    +0.000 OA
ATOM     28  H   UNL     1       7.606   4.295  18.442  0.00  0.00    +0.000 HD
ATOM     29  H   UNL     1       6.544   3.323  17.462  0.00  0.00    +0.000 HD
ENDBRANCH  19  26
ENDBRANCH  17  24
ENDBRANCH   1  17
TORSDOF 5
ENDMDL
MODEL 8
REMARK VINA RESULT:      -8.5      1.933      2.738
REMARK  Name = 
REMARK  5 active torsions:
REMARK  status: ('A' for Active; 'I' for Inactive)
REMARK    1  A    between atoms: C_2  and  C_4
REMARK    2  A    between atoms: C_9  and  N_10
REMARK    3  A    between atoms: N_10  and  C_11
REMARK    4  A    between atoms: C_14  and  N_15
REMARK    5  A    between atoms: C_16  and  C_18
REMARK                            x       y       z     vdW  Elec       q    Type
REMARK                         _______ _______ _______ _____ _____    ______ ____
ROOT
ATOM      1  C   UNL     1       5.755   5.515  18.100  0.00  0.00    +0.000 A 
ATOM      2  C   UNL     1       5.925   6.559  17.192  0.00  0.00    +0.000 A 
ATOM      3  C   UNL     1       6.965   7.480  17.346  0.00  0.00    +0.000 A 
ATOM      4  C   UNL     1       7.861   7.384  18.413  0.00  0.00    +0.000 A 
ATOM      5  C   UNL     1       7.787   6.262  19.240  0.00  0.00    +0.000 A 
ATOM      6  C   UNL     1       6.740   5.336  19.081  0.00  0.00    +0.000 A 
ENDROOT
BRANCH   4   7
ATOM      7  N   UNL     1       8.818   8.388  18.697  0.00  0.00    +0.000 N 
ATOM      8  C   UNL     1       8.655   9.732  18.378  0.00  0.00    +0.000 C 
ATOM      9  O   UNL     1       7.666  10.225  17.845  0.00  0.00    +0.000 OA
ATOM     10  H   UNL     1       9.610   8.114  19.257  0.00  0.00    +0.000 HD
BRANCH   8  11
ATOM     11  C   UNL     1       9.772  10.660  18.709  0.00  0.00    +0.000 A 
ATOM     12  C   UNL     1       9.935  10.995  20.062  0.00  0.00    +0.000 A 
ATOM     13  C   UNL     1      10.942  11.872  20.461  0.00  0.00    +0.000 A 
ATOM     14  C   UNL     1      11.804  12.409  19.511  0.00  0.00    +0.000 A 
ATOM     15  C   UNL     1      11.672  12.056  18.166  0.00  0.00    +0.000 A 
ATOM     16  C   UNL     1      10.661  11.177  17.760  0.00  0.00    +0.000 A 
ENDBRANCH   8  11
ENDBRANCH   4   7
BRANCH   1  17
ATOM     17  N   UNL     1       4.623   4.688  17.996  0.00  0.00    +0.000 N 
ATOM     18  H   UNL     1       4.514   4.213  17.103  0.00  0.00    +0.000 HD
BRANCH  17  24
ATOM     19  C   UNL     1       2.736   5.080  19.562  0.00  0.00    +0.000 A 
ATOM     20  C   UNL     1       1.884   4.575  20.560  0.00  0.00    +0.000 A 
ATOM     21  C   UNL     1       1.984   3.254  20.988  0.00  0.00    +0.000 A 
ATOM     22  C   UNL     1       2.937   2.420  20.417  0.00  0.00    +0.000 A 
ATOM     23  C   UNL     1       3.798   2.912  19.436  0.00  0.00    +0.000 A 
ATOM     24  C   UNL     1       3.720   4.243  18.985  0.00  0.00    +0.000 A 
BRANCH  19  26
ATOM     25  N   UNL     1       2.260   7.383  20.231  0.00  0.00    +0.000 N 
ATOM     26  C   UNL     1       2.518   6.514  19.213  0.00  0.00    +0.000 C 
ATOM     27  O   UNL     1       2.495   6.896  18.049  0.00  0.00    +0.000 OA
ATOM     28  H   UNL     1       1.906   8.290  19.965  0.00  0.00    +0.000 HD
ATOM     29  H   UNL     1       2.063   7.043  21.171  0.00  0.00    +0.000 HD
ENDBRANCH  19  26
ENDBRANCH  17  24
ENDBRANCH   1  17
TORSDOF 5
ENDMDL
MODEL 9
REMARK VINA RESULT:      -8.5      6.283      7.741
REMARK  Name = 
REMARK  5 active torsions:
REMARK  status: ('A' for Active; 'I' for Inactive)
REMARK    1  A    between atoms: C_2  and  C_4
REMARK    2  A    between atoms: C_9  and  N_10
REMARK    3  A    between atoms: N_10  and  C_11
REMARK    4  A    between atoms: C_14  and  N_15
REMARK    5  A    between atoms: C_16  and  C_18
REMARK                            x       y       z     vdW  Elec       q    Type
REMARK                         _______ _______ _______ _____ _____    ______ ____
ROOT
ATOM      1  C   UNL     1       2.386   7.387  18.685  0.00  0.00    +0.000 A 
ATOM      2  C   UNL     1       1.988   8.593  18.110  0.00  0.00    +0.000 A 
ATOM      3  C   UNL     1       1.249   9.527  18.844  0.00  0.00    +0.000 A 
ATOM      4  C   UNL     1       0.888   9.279  20.170  0.00  0.00    +0.000 A 
ATOM      5  C   UNL     1       1.406   8.143  20.795  0.00  0.00    +0.000 A 
ATOM      6  C   UNL     1       2.149   7.207  20.054  0.00  0.00    +0.000 A 
ENDROOT
BRANCH   4   7
ATOM      7  N   UNL     1       0.003  10.118  20.888  0.00  0.00    +0.000 N 
ATOM      8  C   UNL     1       0.353  11.363  21.400  0.00  0.00    +0.000 C 
ATOM      9  O   UNL     1       1.446  11.905  21.274  0.00  0.00    +0.000 OA
ATOM     10  H   UNL     1      -0.961   9.828  20.932  0.00  0.00    +0.000 HD
BRANCH   8  11
ATOM     11  C   UNL     1      -0.682  12.109  22.167  0.00  0.00    +0.000 A 
ATOM     12  C   UNL     1      -0.491  13.493  22.305  0.00  0.00    +0.000 A 
ATOM     13  C   UNL     1      -1.399  14.268  23.023  0.00  0.00    +0.000 A 
ATOM     14  C   UNL     1      -2.515  13.667  23.598  0.00  0.00    +0.000 A 
ATOM     15  C   UNL     1      -2.732  12.297  23.439  0.00  0.00    +0.000 A 
ATOM     16  C   UNL     1      -1.821  11.513  22.720  0.00  0.00    +0.000 A 
ENDBRANCH   8  11
ENDBRANCH   4   7
BRANCH   1  17
ATOM     17  N   UNL     1       3.006   6.413  17.883  0.00  0.00    +0.000 N 
ATOM     18  H   UNL     1       3.757   6.757  17.288  0.00  0.00    +0.000 HD
BRANCH  17  24
ATOM     19  C   UNL     1       4.026   4.153  17.769  0.00  0.00    +0.000 A 
ATOM     20  C   UNL     1       3.851   2.757  17.781  0.00  0.00    +0.000 A 
ATOM     21  C   UNL     1       2.586   2.196  17.937  0.00  0.00    +0.000 A 
ATOM     22  C   UNL     1       1.483   3.024  18.089  0.00  0.00    +0.000 A 
ATOM     23  C   UNL     1       1.641   4.410  18.065  0.00  0.00    +0.000 A 
ATOM     24  C   UNL     1       2.907   5.006  17.908  0.00  0.00    +0.000 A 
BRANCH  19  26
ATOM     25  N   UNL     1       6.387   4.076  18.402  0.00  0.00    +0.000 N 
ATOM     26  C   UNL     1       5.435   4.609  17.585  0.00  0.00    +0.000 C 
ATOM     27  O   UNL     1       5.726   5.485  16.780  0.00  0.00    +0.000 OA
ATOM     28  H   UNL     1       7.281   4.545  18.412  0.00  0.00    +0.000 HD
ATOM     29  H   UNL     1       6.126   3.515  19.211  0.00  0.00    +0.000 HD
ENDBRANCH  19  26
ENDBRANCH  17  24
ENDBRANCH   1  17
TORSDOF 5
ENDMDL
