MODEL 1
REMARK VINA RESULT:      -8.3      0.000      0.000
REMARK  Name = 
REMARK  15 active torsions:
REMARK  status: ('A' for Active; 'I' for Inactive)
REMARK    1  A    between atoms: C_1  and  C_2
REMARK    2  A    between atoms: C_2  and  O_3
REMARK    3  A    between atoms: O_3  and  C_4
REMARK    4  A    between atoms: C_4  and  C_6
REMARK    5  A    between atoms: C_7  and  C_8
REMARK    6  A    between atoms: C_10  and  C_11
REMARK    7  A    between atoms: C_12  and  C_13
REMARK    8  A    between atoms: C_13  and  O_15
REMARK    9  A    between atoms: O_15  and  C_16
REMARK   10  A    between atoms: C_16  and  C_17
REMARK   11  A    between atoms: C_18  and  C_19
REMARK   12  A    between atoms: C_22  and  O_23
REMARK   13  A    between atoms: O_23  and  C_24
REMARK   14  A    between atoms: C_24  and  C_25
REMARK   15  A    between atoms: C_25  and  N_26
REMARK                            x       y       z     vdW  Elec       q    Type
REMARK                         _______ _______ _______ _____ _____    ______ ____
ROOT
ATOM      1  C   UNL     1       3.627   3.900  18.269  0.00  0.00    +0.000 C 
ATOM      2  C   UNL     1       4.530   3.331  19.103  0.00  0.00    +0.000 C 
ATOM      3  C   UNL     1       4.350   2.061  19.894  0.00  0.00    +0.000 C 
ATOM      4  N   UNL     1       5.784   3.919  19.255  0.00  0.00    +0.000 N 
ATOM      5  C   UNL     1       6.286   4.926  18.442  0.00  0.00    +0.000 C 
ATOM      6  C   UNL     1       7.742   5.263  18.618  0.00  0.00    +0.000 C 
ATOM      7  C   UNL     1       5.465   5.552  17.569  0.00  0.00    +0.000 C 
ATOM      8  C   UNL     1       3.973   5.213  17.564  0.00  0.00    +0.000 C 
ATOM      9  H   UNL     1       6.437   3.450  19.872  0.00  0.00    +0.000 HD
ENDROOT
BRANCH   8  10
ATOM     10  C   UNL     1       3.175   6.364  18.184  0.00  0.00    +0.000 A 
ATOM     11  C   UNL     1       2.816   7.450  17.386  0.00  0.00    +0.000 A 
ATOM     12  C   UNL     1       2.147   8.536  17.942  0.00  0.00    +0.000 A 
ATOM     13  C   UNL     1       1.805   8.563  19.303  0.00  0.00    +0.000 A 
ATOM     14  C   UNL     1       2.131   7.465  20.098  0.00  0.00    +0.000 A 
ATOM     15  C   UNL     1       2.805   6.371  19.543  0.00  0.00    +0.000 A 
BRANCH  13  16
ATOM     16  O   UNL     1       1.167   9.608  19.934  0.00  0.00    +0.000 OA
BRANCH  16  17
ATOM     17  C   UNL     1      -0.024  10.015  19.254  0.00  0.00    +0.000 C 
BRANCH  17  18
ATOM     18  C   UNL     1      -0.087  11.515  18.957  0.00  0.00    +0.000 C 
BRANCH  18  19
ATOM     19  N   UNL     1      -0.876  12.245  19.982  0.00  0.00    +0.000 NA
ATOM     20  C   UNL     1      -2.308  12.184  19.656  0.00  0.00    +0.000 C 
ATOM     21  C   UNL     1      -3.149  12.979  20.658  0.00  0.00    +0.000 C 
ATOM     22  C   UNL     1      -2.905  12.513  22.087  0.00  0.00    +0.000 C 
ATOM     23  C   UNL     1      -1.417  12.537  22.396  0.00  0.00    +0.000 C 
ATOM     24  C   UNL     1      -0.621  11.757  21.348  0.00  0.00    +0.000 C 
ENDBRANCH  18  19
ENDBRANCH  17  18
ENDBRANCH  16  17
ENDBRANCH  13  16
ENDBRANCH   8  10
BRANCH   1  25
ATOM     25  C   UNL     1       2.305   3.288  17.952  0.00  0.00    +0.000 C 
ATOM     26  O   UNL     1       2.067   2.553  17.007  0.00  0.00    +0.000 OA
BRANCH  25  27
ATOM     27  O   UNL     1       1.369   3.784  18.804  0.00  0.00    +0.000 OA
BRANCH  27  29
ATOM     28  C   UNL     1       1.250   3.267  21.118  0.00  0.00    +0.000 C 
ATOM     29  C   UNL     1       0.798   2.849  19.730  0.00  0.00    +0.000 C 
ENDBRANCH  27  29
ENDBRANCH  25  27
ENDBRANCH   1  25
BRANCH   7  30
ATOM     30  C   UNL     1       5.937   6.635  16.670  0.00  0.00    +0.000 C 
ATOM     31  O   UNL     1       6.361   7.716  17.048  0.00  0.00    +0.000 OA
BRANCH  30  32
ATOM     32  O   UNL     1       5.794   6.279  15.366  0.00  0.00    +0.000 OA
BRANCH  32  33
ATOM     33  C   UNL     1       6.636   5.197  14.934  0.00  0.00    +0.000 C 
ATOM     34  C   UNL     1       5.776   4.196  14.185  0.00  0.00    +0.000 C 
ENDBRANCH  32  33
ENDBRANCH  30  32
ENDBRANCH   7  30
TORSDOF 11
ENDMDL
MODEL 2
REMARK VINA RESULT:      -8.3      1.469      2.255
REMARK  Name = 
REMARK  15 active torsions:
REMARK  status: ('A' for Active; 'I' for Inactive)
REMARK    1  A    between atoms: C_1  and  C_2
REMARK    2  A    between atoms: C_2  and  O_3
REMARK    3  A    between atoms: O_3  and  C_4
REMARK    4  A    between atoms: C_4  and  C_6
REMARK    5  A    between atoms: C_7  and  C_8
REMARK    6  A    between atoms: C_10  and  C_11
REMARK    7  A    between atoms: C_12  and  C_13
REMARK    8  A    between atoms: C_13  and  O_15
REMARK    9  A    between atoms: O_15  and  C_16
REMARK   10  A    between atoms: C_16  and  C_17
REMARK   11  A    between atoms: C_18  and  C_19
REMARK   12  A    between atoms: C_22  and  O_23
REMARK   13  A    between atoms: O_23  and  C_24
REMARK   14  A    between atoms: C_24  and  C_25
REMARK   15  A    between atoms: C_25  and  N_26
REMARK                            x       y       z     vdW  Elec       q    Type
REMARK                         _______ _______ _______ _____ _____    ______ ____
ROOT
ATOM      1  C   UNL     1       3.632   3.912  18.272  0.00  0.00    +0.000 C 
ATOM      2  C   UNL     1       4.503   3.350  19.144  0.00  0.00    +0.000 C 
ATOM      3  C   UNL     1       4.263   2.131  19.997  0.00  0.00    +0.000 C 
ATOM      4  N   UNL     1       5.780   3.892  19.279  0.00  0.00    +0.000 N 
ATOM      5  C   UNL     1       6.331   4.833  18.421  0.00  0.00    +0.000 C 
ATOM      6  C   UNL     1       7.799   5.117  18.595  0.00  0.00    +0.000 C 
ATOM      7  C   UNL     1       5.545   5.447  17.508  0.00  0.00    +0.000 C 
ATOM      8  C   UNL     1       4.040   5.172  17.506  0.00  0.00    +0.000 C 
ATOM      9  H   UNL     1       6.407   3.428  19.927  0.00  0.00    +0.000 HD
ENDROOT
BRANCH   8  10
ATOM     10  C   UNL     1       3.286   6.386  18.057  0.00  0.00    +0.000 A 
ATOM     11  C   UNL     1       2.875   6.384  19.390  0.00  0.00    +0.000 A 
ATOM     12  C   UNL     1       2.134   7.448  19.895  0.00  0.00    +0.000 A 
ATOM     13  C   UNL     1       1.795   8.546  19.091  0.00  0.00    +0.000 A 
ATOM     14  C   UNL     1       2.232   8.570  17.767  0.00  0.00    +0.000 A 
ATOM     15  C   UNL     1       2.977   7.501  17.255  0.00  0.00    +0.000 A 
BRANCH  13  16
ATOM     16  O   UNL     1       1.044   9.624  19.507  0.00  0.00    +0.000 OA
BRANCH  16  17
ATOM     17  C   UNL     1       0.161  10.104  18.489  0.00  0.00    +0.000 C 
BRANCH  17  18
ATOM     18  C   UNL     1      -0.944  11.025  19.012  0.00  0.00    +0.000 C 
BRANCH  18  19
ATOM     19  N   UNL     1      -1.941  11.341  17.957  0.00  0.00    +0.000 NA
ATOM     20  C   UNL     1      -1.834  10.374  16.855  0.00  0.00    +0.000 C 
ATOM     21  C   UNL     1      -2.804  10.705  15.717  0.00  0.00    +0.000 C 
ATOM     22  C   UNL     1      -4.240  10.792  16.216  0.00  0.00    +0.000 C 
ATOM     23  C   UNL     1      -4.329  11.759  17.385  0.00  0.00    +0.000 C 
ATOM     24  C   UNL     1      -3.317  11.403  18.476  0.00  0.00    +0.000 C 
ENDBRANCH  18  19
ENDBRANCH  17  18
ENDBRANCH  16  17
ENDBRANCH  13  16
ENDBRANCH   8  10
BRANCH   1  25
ATOM     25  C   UNL     1       2.288   3.341  17.973  0.00  0.00    +0.000 C 
ATOM     26  O   UNL     1       1.554   3.684  17.061  0.00  0.00    +0.000 OA
BRANCH  25  27
ATOM     27  O   UNL     1       1.947   2.467  18.957  0.00  0.00    +0.000 OA
BRANCH  27  29
ATOM     28  C   UNL     1       0.875   3.840  20.570  0.00  0.00    +0.000 C 
ATOM     29  C   UNL     1       0.681   2.693  19.594  0.00  0.00    +0.000 C 
ENDBRANCH  27  29
ENDBRANCH  25  27
ENDBRANCH   1  25
BRANCH   7  30
ATOM     30  C   UNL     1       6.070   6.462  16.560  0.00  0.00    +0.000 C 
ATOM     31  O   UNL     1       6.496   7.560  16.883  0.00  0.00    +0.000 OA
BRANCH  30  32
ATOM     32  O   UNL     1       5.974   6.022  15.277  0.00  0.00    +0.000 OA
BRANCH  32  33
ATOM     33  C   UNL     1       6.910   4.994  14.915  0.00  0.00    +0.000 C 
ATOM     34  C   UNL     1       6.677   4.632  13.459  0.00  0.00    +0.000 C 
ENDBRANCH  32  33
ENDBRANCH  30  32
ENDBRANCH   7  30
TORSDOF 11
ENDMDL
MODEL 3
REMARK VINA RESULT:      -8.2      1.461      2.081
REMARK  Name = 
REMARK  15 active torsions:
REMARK  status: ('A' for Active; 'I' for Inactive)
REMARK    1  A    between atoms: C_1  and  C_2
REMARK    2  A    between atoms: C_2  and  O_3
REMARK    3  A    between atoms: O_3  and  C_4
REMARK    4  A    between atoms: C_4  and  C_6
REMARK    5  A    between atoms: C_7  and  C_8
REMARK    6  A    between atoms: C_10  and  C_11
REMARK    7  A    between atoms: C_12  and  C_13
REMARK    8  A    between atoms: C_13  and  O_15
REMARK    9  A    between atoms: O_15  and  C_16
REMARK   10  A    between atoms: C_16  and  C_17
REMARK   11  A    between atoms: C_18  and  C_19
REMARK   12  A    between atoms: C_22  and  O_23
REMARK   13  A    between atoms: O_23  and  C_24
REMARK   14  A    between atoms: C_24  and  C_25
REMARK   15  A    between atoms: C_25  and  N_26
REMARK                            x       y       z     vdW  Elec       q    Type
REMARK                         _______ _______ _______ _____ _____    ______ ____
ROOT
ATOM      1  C   UNL     1       3.716   3.864  18.290  0.00  0.00    +0.000 C 
ATOM      2  C   UNL     1       4.612   3.329  19.153  0.00  0.00    +0.000 C 
ATOM      3  C   UNL     1       4.442   2.069  19.962  0.00  0.00    +0.000 C 
ATOM      4  N   UNL     1       5.851   3.946  19.321  0.00  0.00    +0.000 N 
ATOM      5  C   UNL     1       6.349   4.949  18.503  0.00  0.00    +0.000 C 
ATOM      6  C   UNL     1       7.794   5.320  18.703  0.00  0.00    +0.000 C 
ATOM      7  C   UNL     1       5.534   5.543  17.602  0.00  0.00    +0.000 C 
ATOM      8  C   UNL     1       4.050   5.173  17.571  0.00  0.00    +0.000 C 
ATOM      9  H   UNL     1       6.500   3.501  19.961  0.00  0.00    +0.000 HD
ENDROOT
BRANCH   8  10
ATOM     10  C   UNL     1       3.215   6.317  18.154  0.00  0.00    +0.000 A 
ATOM     11  C   UNL     1       2.854   7.383  17.331  0.00  0.00    +0.000 A 
ATOM     12  C   UNL     1       2.151   8.464  17.855  0.00  0.00    +0.000 A 
ATOM     13  C   UNL     1       1.776   8.504  19.206  0.00  0.00    +0.000 A 
ATOM     14  C   UNL     1       2.104   7.424  20.025  0.00  0.00    +0.000 A 
ATOM     15  C   UNL     1       2.812   6.336  19.503  0.00  0.00    +0.000 A 
BRANCH  13  16
ATOM     16  O   UNL     1       1.103   9.546  19.806  0.00  0.00    +0.000 OA
BRANCH  16  17
ATOM     17  C   UNL     1       0.898  10.650  18.919  0.00  0.00    +0.000 C 
BRANCH  17  18
ATOM     18  C   UNL     1      -0.107  11.681  19.437  0.00  0.00    +0.000 C 
BRANCH  18  19
ATOM     19  N   UNL     1       0.510  13.026  19.577  0.00  0.00    +0.000 NA
ATOM     20  C   UNL     1       1.951  12.953  19.297  0.00  0.00    +0.000 C 
ATOM     21  C   UNL     1       2.633  14.309  19.493  0.00  0.00    +0.000 C 
ATOM     22  C   UNL     1       1.977  15.392  18.647  0.00  0.00    +0.000 C 
ATOM     23  C   UNL     1       0.481  15.426  18.912  0.00  0.00    +0.000 C 
ATOM     24  C   UNL     1      -0.144  14.040  18.735  0.00  0.00    +0.000 C 
ENDBRANCH  18  19
ENDBRANCH  17  18
ENDBRANCH  16  17
ENDBRANCH  13  16
ENDBRANCH   8  10
BRANCH   1  25
ATOM     25  C   UNL     1       2.414   3.219  17.956  0.00  0.00    +0.000 C 
ATOM     26  O   UNL     1       1.818   3.321  16.896  0.00  0.00    +0.000 OA
BRANCH  25  27
ATOM     27  O   UNL     1       1.924   2.605  19.065  0.00  0.00    +0.000 OA
BRANCH  27  29
ATOM     28  C   UNL     1       1.296   3.330  21.237  0.00  0.00    +0.000 C 
ATOM     29  C   UNL     1       0.892   3.305  19.773  0.00  0.00    +0.000 C 
ENDBRANCH  27  29
ENDBRANCH  25  27
ENDBRANCH   1  25
BRANCH   7  30
ATOM     30  C   UNL     1       6.003   6.621  16.694  0.00  0.00    +0.000 C 
ATOM     31  O   UNL     1       6.418   7.708  17.064  0.00  0.00    +0.000 OA
BRANCH  30  32
ATOM     32  O   UNL     1       5.868   6.251  15.393  0.00  0.00    +0.000 OA
BRANCH  32  33
ATOM     33  C   UNL     1       6.718   5.171  14.975  0.00  0.00    +0.000 C 
ATOM     34  C   UNL     1       5.863   4.145  14.256  0.00  0.00    +0.000 C 
ENDBRANCH  32  33
ENDBRANCH  30  32
ENDBRANCH   7  30
TORSDOF 11
ENDMDL
MODEL 4
REMARK VINA RESULT:      -8.2      1.468      2.451
REMARK  Name = 
REMARK  15 active torsions:
REMARK  status: ('A' for Active; 'I' for Inactive)
REMARK    1  A    between atoms: C_1  and  C_2
REMARK    2  A    between atoms: C_2  and  O_3
REMARK    3  A    between atoms: O_3  and  C_4
REMARK    4  A    between atoms: C_4  and  C_6
REMARK    5  A    between atoms: C_7  and  C_8
REMARK    6  A    between atoms: C_10  and  C_11
REMARK    7  A    between atoms: C_12  and  C_13
REMARK    8  A    between atoms: C_13  and  O_15
REMARK    9  A    between atoms: O_15  and  C_16
REMARK   10  A    between atoms: C_16  and  C_17
REMARK   11  A    between atoms: C_18  and  C_19
REMARK   12  A    between atoms: C_22  and  O_23
REMARK   13  A    between atoms: O_23  and  C_24
REMARK   14  A    between atoms: C_24  and  C_25
REMARK   15  A    between atoms: C_25  and  N_26
REMARK                            x       y       z     vdW  Elec       q    Type
REMARK                         _______ _______ _______ _____ _____    ______ ____
ROOT
ATOM      1  C   UNL     1       3.675   3.970  18.204  0.00  0.00    +0.000 C 
ATOM      2  C   UNL     1       4.486   3.353  19.097  0.00  0.00    +0.000 C 
ATOM      3  C   UNL     1       4.226   2.043  19.794  0.00  0.00    +0.000 C 
ATOM      4  N   UNL     1       5.716   3.927  19.413  0.00  0.00    +0.000 N 
ATOM      5  C   UNL     1       6.299   4.975  18.714  0.00  0.00    +0.000 C 
ATOM      6  C   UNL     1       7.728   5.296  19.061  0.00  0.00    +0.000 C 
ATOM      7  C   UNL     1       5.574   5.650  17.794  0.00  0.00    +0.000 C 
ATOM      8  C   UNL     1       4.092   5.318  17.613  0.00  0.00    +0.000 C 
ATOM      9  H   UNL     1       6.301   3.422  20.070  0.00  0.00    +0.000 HD
ENDROOT
BRANCH   8  10
ATOM     10  C   UNL     1       3.230   6.437  18.207  0.00  0.00    +0.000 A 
ATOM     11  C   UNL     1       2.849   7.506  17.395  0.00  0.00    +0.000 A 
ATOM     12  C   UNL     1       2.121   8.564  17.929  0.00  0.00    +0.000 A 
ATOM     13  C   UNL     1       1.741   8.579  19.280  0.00  0.00    +0.000 A 
ATOM     14  C   UNL     1       2.088   7.498  20.087  0.00  0.00    +0.000 A 
ATOM     15  C   UNL     1       2.823   6.432  19.554  0.00  0.00    +0.000 A 
BRANCH  13  16
ATOM     16  O   UNL     1       1.043   9.600  19.889  0.00  0.00    +0.000 OA
BRANCH  16  17
ATOM     17  C   UNL     1       0.682  10.640  18.976  0.00  0.00    +0.000 C 
BRANCH  17  18
ATOM     18  C   UNL     1      -0.604  11.379  19.356  0.00  0.00    +0.000 C 
BRANCH  18  19
ATOM     19  N   UNL     1      -1.590  11.370  18.246  0.00  0.00    +0.000 NA
ATOM     20  C   UNL     1      -1.529  10.091  17.524  0.00  0.00    +0.000 C 
ATOM     21  C   UNL     1      -2.489  10.069  16.332  0.00  0.00    +0.000 C 
ATOM     22  C   UNL     1      -3.918  10.374  16.760  0.00  0.00    +0.000 C 
ATOM     23  C   UNL     1      -3.961  11.675  17.544  0.00  0.00    +0.000 C 
ATOM     24  C   UNL     1      -2.960  11.657  18.702  0.00  0.00    +0.000 C 
ENDBRANCH  18  19
ENDBRANCH  17  18
ENDBRANCH  16  17
ENDBRANCH  13  16
ENDBRANCH   8  10
BRANCH   1  25
ATOM     25  C   UNL     1       2.395   3.381  17.716  0.00  0.00    +0.000 C 
ATOM     26  O   UNL     1       2.259   2.705  16.709  0.00  0.00    +0.000 OA
BRANCH  25  27
ATOM     27  O   UNL     1       1.375   3.826  18.495  0.00  0.00    +0.000 OA
BRANCH  27  29
ATOM     28  C   UNL     1       1.018   3.389  20.801  0.00  0.00    +0.000 C 
ATOM     29  C   UNL     1       0.798   2.867  19.392  0.00  0.00    +0.000 C 
ENDBRANCH  27  29
ENDBRANCH  25  27
ENDBRANCH   1  25
BRANCH   7  30
ATOM     30  C   UNL     1       6.137   6.779  17.010  0.00  0.00    +0.000 C 
ATOM     31  O   UNL     1       6.353   6.751  15.809  0.00  0.00    +0.000 OA
BRANCH  30  32
ATOM     32  O   UNL     1       6.420   7.836  17.818  0.00  0.00    +0.000 OA
BRANCH  32  33
ATOM     33  C   UNL     1       7.529   8.646  17.395  0.00  0.00    +0.000 C 
ATOM     34  C   UNL     1       8.532   8.706  18.531  0.00  0.00    +0.000 C 
ENDBRANCH  32  33
ENDBRANCH  30  32
ENDBRANCH   7  30
TORSDOF 11
ENDMDL
MODEL 5
REMARK VINA RESULT:      -8.1      1.192      1.832
REMARK  Name = 
REMARK  15 active torsions:
REMARK  status: ('A' for Active; 'I' for Inactive)
REMARK    1  A    between atoms: C_1  and  C_2
REMARK    2  A    between atoms: C_2  and  O_3
REMARK    3  A    between atoms: O_3  and  C_4
REMARK    4  A    between atoms: C_4  and  C_6
REMARK    5  A    between atoms: C_7  and  C_8
REMARK    6  A    between atoms: C_10  and  C_11
REMARK    7  A    between atoms: C_12  and  C_13
REMARK    8  A    between atoms: C_13  and  O_15
REMARK    9  A    between atoms: O_15  and  C_16
REMARK   10  A    between atoms: C_16  and  C_17
REMARK   11  A    between atoms: C_18  and  C_19
REMARK   12  A    between atoms: C_22  and  O_23
REMARK   13  A    between atoms: O_23  and  C_24
REMARK   14  A    between atoms: C_24  and  C_25
REMARK   15  A    between atoms: C_25  and  N_26
REMARK                            x       y       z     vdW  Elec       q    Type
REMARK                         _______ _______ _______ _____ _____    ______ ____
ROOT
ATOM      1  C   UNL     1       3.671   3.938  18.308  0.00  0.00    +0.000 C 
ATOM      2  C   UNL     1       4.566   3.394  19.167  0.00  0.00    +0.000 C 
ATOM      3  C   UNL     1       4.386   2.139  19.981  0.00  0.00    +0.000 C 
ATOM      4  N   UNL     1       5.814   3.996  19.324  0.00  0.00    +0.000 N 
ATOM      5  C   UNL     1       6.320   4.990  18.499  0.00  0.00    +0.000 C 
ATOM      6  C   UNL     1       7.770   5.343  18.688  0.00  0.00    +0.000 C 
ATOM      7  C   UNL     1       5.506   5.590  17.601  0.00  0.00    +0.000 C 
ATOM      8  C   UNL     1       4.017   5.239  17.582  0.00  0.00    +0.000 C 
ATOM      9  H   UNL     1       6.462   3.545  19.961  0.00  0.00    +0.000 HD
ENDROOT
BRANCH   8  10
ATOM     10  C   UNL     1       3.200   6.396  18.166  0.00  0.00    +0.000 A 
ATOM     11  C   UNL     1       2.864   6.376  19.519  0.00  0.00    +0.000 A 
ATOM     12  C   UNL     1       2.070   7.384  20.057  0.00  0.00    +0.000 A 
ATOM     13  C   UNL     1       1.601   8.443  19.266  0.00  0.00    +0.000 A 
ATOM     14  C   UNL     1       1.963   8.487  17.921  0.00  0.00    +0.000 A 
ATOM     15  C   UNL     1       2.761   7.475  17.375  0.00  0.00    +0.000 A 
BRANCH  13  16
ATOM     16  O   UNL     1       0.791   9.463  19.716  0.00  0.00    +0.000 OA
BRANCH  16  17
ATOM     17  C   UNL     1       1.325  10.758  19.426  0.00  0.00    +0.000 C 
BRANCH  17  18
ATOM     18  C   UNL     1       0.344  11.684  18.703  0.00  0.00    +0.000 C 
BRANCH  18  19
ATOM     19  N   UNL     1      -1.041  11.151  18.738  0.00  0.00    +0.000 NA
ATOM     20  C   UNL     1      -2.004  12.252  18.893  0.00  0.00    +0.000 C 
ATOM     21  C   UNL     1      -3.441  11.734  18.995  0.00  0.00    +0.000 C 
ATOM     22  C   UNL     1      -3.809  10.866  17.799  0.00  0.00    +0.000 C 
ATOM     23  C   UNL     1      -2.782   9.760  17.623  0.00  0.00    +0.000 C 
ATOM     24  C   UNL     1      -1.362  10.328  17.560  0.00  0.00    +0.000 C 
ENDBRANCH  18  19
ENDBRANCH  17  18
ENDBRANCH  16  17
ENDBRANCH  13  16
ENDBRANCH   8  10
BRANCH   1  25
ATOM     25  C   UNL     1       2.359   3.309  17.985  0.00  0.00    +0.000 C 
ATOM     26  O   UNL     1       1.748   3.431  16.936  0.00  0.00    +0.000 OA
BRANCH  25  27
ATOM     27  O   UNL     1       1.881   2.682  19.093  0.00  0.00    +0.000 OA
BRANCH  27  29
ATOM     28  C   UNL     1       1.292   3.287  21.312  0.00  0.00    +0.000 C 
ATOM     29  C   UNL     1       0.896   3.399  19.850  0.00  0.00    +0.000 C 
ENDBRANCH  27  29
ENDBRANCH  25  27
ENDBRANCH   1  25
BRANCH   7  30
ATOM     30  C   UNL     1       5.982   6.659  16.686  0.00  0.00    +0.000 C 
ATOM     31  O   UNL     1       6.354   7.766  17.045  0.00  0.00    +0.000 OA
BRANCH  30  32
ATOM     32  O   UNL     1       5.909   6.255  15.390  0.00  0.00    +0.000 OA
BRANCH  32  33
ATOM     33  C   UNL     1       6.420   4.937  15.133  0.00  0.00    +0.000 C 
ATOM     34  C   UNL     1       7.086   4.945  13.769  0.00  0.00    +0.000 C 
ENDBRANCH  32  33
ENDBRANCH  30  32
ENDBRANCH   7  30
TORSDOF 11
ENDMDL
MODEL 6
REMARK VINA RESULT:      -8.1      0.579      1.036
REMARK  Name = 
REMARK  15 active torsions:
REMARK  status: ('A' for Active; 'I' for Inactive)
REMARK    1  A    between atoms: C_1  and  C_2
REMARK    2  A    between atoms: C_2  and  O_3
REMARK    3  A    between atoms: O_3  and  C_4
REMARK    4  A    between atoms: C_4  and  C_6
REMARK    5  A    between atoms: C_7  and  C_8
REMARK    6  A    between atoms: C_10  and  C_11
REMARK    7  A    between atoms: C_12  and  C_13
REMARK    8  A    between atoms: C_13  and  O_15
REMARK    9  A    between atoms: O_15  and  C_16
REMARK   10  A    between atoms: C_16  and  C_17
REMARK   11  A    between atoms: C_18  and  C_19
REMARK   12  A    between atoms: C_22  and  O_23
REMARK   13  A    between atoms: O_23  and  C_24
REMARK   14  A    between atoms: C_24  and  C_25
REMARK   15  A    between atoms: C_25  and  N_26
REMARK                            x       y       z     vdW  Elec       q    Type
REMARK                         _______ _______ _______ _____ _____    ______ ____
ROOT
ATOM      1  C   UNL     1       3.517   3.882  18.314  0.00  0.00    +0.000 C 
ATOM      2  C   UNL     1       4.467   3.280  19.069  0.00  0.00    +0.000 C 
ATOM      3  C   UNL     1       4.313   2.012  19.869  0.00  0.00    +0.000 C 
ATOM      4  N   UNL     1       5.748   3.827  19.118  0.00  0.00    +0.000 N 
ATOM      5  C   UNL     1       6.213   4.821  18.269  0.00  0.00    +0.000 C 
ATOM      6  C   UNL     1       7.689   5.111  18.324  0.00  0.00    +0.000 C 
ATOM      7  C   UNL     1       5.343   5.478  17.469  0.00  0.00    +0.000 C 
ATOM      8  C   UNL     1       3.846   5.187  17.587  0.00  0.00    +0.000 C 
ATOM      9  H   UNL     1       6.434   3.334  19.678  0.00  0.00    +0.000 HD
ENDROOT
BRANCH   8  10
ATOM     10  C   UNL     1       3.139   6.360  18.274  0.00  0.00    +0.000 A 
ATOM     11  C   UNL     1       2.791   6.250  19.620  0.00  0.00    +0.000 A 
ATOM     12  C   UNL     1       2.092   7.277  20.247  0.00  0.00    +0.000 A 
ATOM     13  C   UNL     1       1.734   8.444  19.556  0.00  0.00    +0.000 A 
ATOM     14  C   UNL     1       2.110   8.574  18.220  0.00  0.00    +0.000 A 
ATOM     15  C   UNL     1       2.812   7.543  17.584  0.00  0.00    +0.000 A 
BRANCH  13  16
ATOM     16  O   UNL     1       1.022   9.492  20.097  0.00  0.00    +0.000 OA
BRANCH  16  17
ATOM     17  C   UNL     1       0.597  10.435  19.109  0.00  0.00    +0.000 C 
BRANCH  17  18
ATOM     18  C   UNL     1       0.891  11.892  19.476  0.00  0.00    +0.000 C 
BRANCH  18  19
ATOM     19  N   UNL     1      -0.227  12.500  20.243  0.00  0.00    +0.000 NA
ATOM     20  C   UNL     1      -1.512  11.957  19.780  0.00  0.00    +0.000 C 
ATOM     21  C   UNL     1      -2.693  12.608  20.505  0.00  0.00    +0.000 C 
ATOM     22  C   UNL     1      -2.566  12.469  22.017  0.00  0.00    +0.000 C 
ATOM     23  C   UNL     1      -1.215  12.992  22.476  0.00  0.00    +0.000 C 
ATOM     24  C   UNL     1      -0.073  12.334  21.698  0.00  0.00    +0.000 C 
ENDBRANCH  18  19
ENDBRANCH  17  18
ENDBRANCH  16  17
ENDBRANCH  13  16
ENDBRANCH   8  10
BRANCH   1  25
ATOM     25  C   UNL     1       2.154   3.314  18.106  0.00  0.00    +0.000 C 
ATOM     26  O   UNL     1       1.411   3.565  17.171  0.00  0.00    +0.000 OA
BRANCH  25  27
ATOM     27  O   UNL     1       1.810   2.573  19.193  0.00  0.00    +0.000 OA
BRANCH  27  29
ATOM     28  C   UNL     1       1.423   3.254  21.434  0.00  0.00    +0.000 C 
ATOM     29  C   UNL     1       0.808   3.135  20.051  0.00  0.00    +0.000 C 
ENDBRANCH  27  29
ENDBRANCH  25  27
ENDBRANCH   1  25
BRANCH   7  30
ATOM     30  C   UNL     1       5.774   6.550  16.536  0.00  0.00    +0.000 C 
ATOM     31  O   UNL     1       6.344   7.576  16.874  0.00  0.00    +0.000 OA
BRANCH  30  32
ATOM     32  O   UNL     1       5.410   6.257  15.260  0.00  0.00    +0.000 OA
BRANCH  32  33
ATOM     33  C   UNL     1       5.673   4.906  14.847  0.00  0.00    +0.000 C 
ATOM     34  C   UNL     1       7.028   4.875  14.164  0.00  0.00    +0.000 C 
ENDBRANCH  32  33
ENDBRANCH  30  32
ENDBRANCH   7  30
TORSDOF 11
ENDMDL
MODEL 7
REMARK VINA RESULT:      -8.1      1.041      1.282
REMARK  Name = 
REMARK  15 active torsions:
REMARK  status: ('A' for Active; 'I' for Inactive)
REMARK    1  A    between atoms: C_1  and  C_2
REMARK    2  A    between atoms: C_2  and  O_3
REMARK    3  A    between atoms: O_3  and  C_4
REMARK    4  A    between atoms: C_4  and  C_6
REMARK    5  A    between atoms: C_7  and  C_8
REMARK    6  A    between atoms: C_10  and  C_11
REMARK    7  A    between atoms: C_12  and  C_13
REMARK    8  A    between atoms: C_13  and  O_15
REMARK    9  A    between atoms: O_15  and  C_16
REMARK   10  A    between atoms: C_16  and  C_17
REMARK   11  A    between atoms: C_18  and  C_19
REMARK   12  A    between atoms: C_22  and  O_23
REMARK   13  A    between atoms: O_23  and  C_24
REMARK   14  A    between atoms: C_24  and  C_25
REMARK   15  A    between atoms: C_25  and  N_26
REMARK                            x       y       z     vdW  Elec       q    Type
REMARK                         _______ _______ _______ _____ _____    ______ ____
ROOT
ATOM      1  C   UNL     1       3.692   3.869  18.300  0.00  0.00    +0.000 C 
ATOM      2  C   UNL     1       4.605   3.346  19.153  0.00  0.00    +0.000 C 
ATOM      3  C   UNL     1       4.469   2.075  19.950  0.00  0.00    +0.000 C 
ATOM      4  N   UNL     1       5.830   3.990  19.320  0.00  0.00    +0.000 N 
ATOM      5  C   UNL     1       6.301   5.012  18.508  0.00  0.00    +0.000 C 
ATOM      6  C   UNL     1       7.737   5.414  18.704  0.00  0.00    +0.000 C 
ATOM      7  C   UNL     1       5.467   5.595  17.617  0.00  0.00    +0.000 C 
ATOM      8  C   UNL     1       3.991   5.191  17.592  0.00  0.00    +0.000 C 
ATOM      9  H   UNL     1       6.493   3.554  19.951  0.00  0.00    +0.000 HD
ENDROOT
BRANCH   8  10
ATOM     10  C   UNL     1       3.133   6.310  18.190  0.00  0.00    +0.000 A 
ATOM     11  C   UNL     1       2.735   7.371  17.376  0.00  0.00    +0.000 A 
ATOM     12  C   UNL     1       2.010   8.430  17.914  0.00  0.00    +0.000 A 
ATOM     13  C   UNL     1       1.651   8.454  19.270  0.00  0.00    +0.000 A 
ATOM     14  C   UNL     1       2.016   7.379  20.079  0.00  0.00    +0.000 A 
ATOM     15  C   UNL     1       2.746   6.313  19.544  0.00  0.00    +0.000 A 
BRANCH  13  16
ATOM     16  O   UNL     1       0.957   9.475  19.882  0.00  0.00    +0.000 OA
BRANCH  16  17
ATOM     17  C   UNL     1       1.420   9.733  21.211  0.00  0.00    +0.000 C 
BRANCH  17  18
ATOM     18  C   UNL     1       0.303   9.785  22.256  0.00  0.00    +0.000 C 
BRANCH  18  19
ATOM     19  N   UNL     1      -0.636  10.907  22.001  0.00  0.00    +0.000 NA
ATOM     20  C   UNL     1      -1.490  11.130  23.177  0.00  0.00    +0.000 C 
ATOM     21  C   UNL     1      -2.515  12.240  22.927  0.00  0.00    +0.000 C 
ATOM     22  C   UNL     1      -1.840  13.538  22.502  0.00  0.00    +0.000 C 
ATOM     23  C   UNL     1      -0.925  13.285  21.315  0.00  0.00    +0.000 C 
ATOM     24  C   UNL     1       0.055  12.146  21.605  0.00  0.00    +0.000 C 
ENDBRANCH  18  19
ENDBRANCH  17  18
ENDBRANCH  16  17
ENDBRANCH  13  16
ENDBRANCH   8  10
BRANCH   1  25
ATOM     25  C   UNL     1       2.403   3.197  17.966  0.00  0.00    +0.000 C 
ATOM     26  O   UNL     1       1.792   3.306  16.916  0.00  0.00    +0.000 OA
BRANCH  25  27
ATOM     27  O   UNL     1       1.942   2.546  19.067  0.00  0.00    +0.000 OA
BRANCH  27  29
ATOM     28  C   UNL     1       1.272   3.289  21.221  0.00  0.00    +0.000 C 
ATOM     29  C   UNL     1       0.856   3.172  19.764  0.00  0.00    +0.000 C 
ENDBRANCH  27  29
ENDBRANCH  25  27
ENDBRANCH   1  25
BRANCH   7  30
ATOM     30  C   UNL     1       5.906   6.692  16.717  0.00  0.00    +0.000 C 
ATOM     31  O   UNL     1       6.335   7.771  17.096  0.00  0.00    +0.000 OA
BRANCH  30  32
ATOM     32  O   UNL     1       5.724   6.351  15.414  0.00  0.00    +0.000 OA
BRANCH  32  33
ATOM     33  C   UNL     1       6.525   5.249  14.956  0.00  0.00    +0.000 C 
ATOM     34  C   UNL     1       5.625   4.293  14.196  0.00  0.00    +0.000 C 
ENDBRANCH  32  33
ENDBRANCH  30  32
ENDBRANCH   7  30
TORSDOF 11
ENDMDL
MODEL 8
REMARK VINA RESULT:      -8.1      1.122      1.593
REMARK  Name = 
REMARK  15 active torsions:
REMARK  status: ('A' for Active; 'I' for Inactive)
REMARK    1  A    between atoms: C_1  and  C_2
REMARK    2  A    between atoms: C_2  and  O_3
REMARK    3  A    between atoms: O_3  and  C_4
REMARK    4  A    between atoms: C_4  and  C_6
REMARK    5  A    between atoms: C_7  and  C_8
REMARK    6  A    between atoms: C_10  and  C_11
REMARK    7  A    between atoms: C_12  and  C_13
REMARK    8  A    between atoms: C_13  and  O_15
REMARK    9  A    between atoms: O_15  and  C_16
REMARK   10  A    between atoms: C_16  and  C_17
REMARK   11  A    between atoms: C_18  and  C_19
REMARK   12  A    between atoms: C_22  and  O_23
REMARK   13  A    between atoms: O_23  and  C_24
REMARK   14  A    between atoms: C_24  and  C_25
REMARK   15  A    between atoms: C_25  and  N_26
REMARK                            x       y       z     vdW  Elec       q    Type
REMARK                         _______ _______ _______ _____ _____    ______ ____
ROOT
ATOM      1  C   UNL     1       3.666   3.977  18.242  0.00  0.00    +0.000 C 
ATOM      2  C   UNL     1       4.516   3.393  19.121  0.00  0.00    +0.000 C 
ATOM      3  C   UNL     1       4.277   2.124  19.897  0.00  0.00    +0.000 C 
ATOM      4  N   UNL     1       5.769   3.962  19.339  0.00  0.00    +0.000 N 
ATOM      5  C   UNL     1       6.328   4.963  18.557  0.00  0.00    +0.000 C 
ATOM      6  C   UNL     1       7.777   5.278  18.809  0.00  0.00    +0.000 C 
ATOM      7  C   UNL     1       5.563   5.603  17.644  0.00  0.00    +0.000 C 
ATOM      8  C   UNL     1       4.068   5.286  17.561  0.00  0.00    +0.000 C 
ATOM      9  H   UNL     1       6.382   3.482  19.989  0.00  0.00    +0.000 HD
ENDROOT
BRANCH   8  10
ATOM     10  C   UNL     1       3.255   6.448  18.141  0.00  0.00    +0.000 A 
ATOM     11  C   UNL     1       2.956   6.454  19.503  0.00  0.00    +0.000 A 
ATOM     12  C   UNL     1       2.165   7.466  20.040  0.00  0.00    +0.000 A 
ATOM     13  C   UNL     1       1.665   8.503  19.239  0.00  0.00    +0.000 A 
ATOM     14  C   UNL     1       1.990   8.520  17.884  0.00  0.00    +0.000 A 
ATOM     15  C   UNL     1       2.783   7.504  17.339  0.00  0.00    +0.000 A 
BRANCH  13  16
ATOM     16  O   UNL     1       0.856   9.524  19.689  0.00  0.00    +0.000 OA
BRANCH  16  17
ATOM     17  C   UNL     1       0.953   9.720  21.102  0.00  0.00    +0.000 C 
BRANCH  17  18
ATOM     18  C   UNL     1      -0.341  10.220  21.748  0.00  0.00    +0.000 C 
BRANCH  18  19
ATOM     19  N   UNL     1      -0.199  11.609  22.256  0.00  0.00    +0.000 NA
ATOM     20  C   UNL     1       0.261  12.497  21.179  0.00  0.00    +0.000 C 
ATOM     21  C   UNL     1       0.478  13.927  21.682  0.00  0.00    +0.000 C 
ATOM     22  C   UNL     1      -0.778  14.486  22.337  0.00  0.00    +0.000 C 
ATOM     23  C   UNL     1      -1.269  13.536  23.417  0.00  0.00    +0.000 C 
ATOM     24  C   UNL     1      -1.437  12.117  22.871  0.00  0.00    +0.000 C 
ENDBRANCH  18  19
ENDBRANCH  17  18
ENDBRANCH  16  17
ENDBRANCH  13  16
ENDBRANCH   8  10
BRANCH   1  25
ATOM     25  C   UNL     1       2.353   3.385  17.855  0.00  0.00    +0.000 C 
ATOM     26  O   UNL     1       2.156   2.649  16.902  0.00  0.00    +0.000 OA
BRANCH  25  27
ATOM     27  O   UNL     1       1.381   3.900  18.652  0.00  0.00    +0.000 OA
BRANCH  27  29
ATOM     28  C   UNL     1       1.173   3.373  20.958  0.00  0.00    +0.000 C 
ATOM     29  C   UNL     1       0.748   2.981  19.553  0.00  0.00    +0.000 C 
ENDBRANCH  27  29
ENDBRANCH  25  27
ENDBRANCH   1  25
BRANCH   7  30
ATOM     30  C   UNL     1       6.097   6.681  16.773  0.00  0.00    +0.000 C 
ATOM     31  O   UNL     1       6.108   7.867  17.065  0.00  0.00    +0.000 OA
BRANCH  30  32
ATOM     32  O   UNL     1       6.533   6.176  15.589  0.00  0.00    +0.000 OA
BRANCH  32  33
ATOM     33  C   UNL     1       5.604   5.309  14.918  0.00  0.00    +0.000 C 
ATOM     34  C   UNL     1       6.380   4.146  14.330  0.00  0.00    +0.000 C 
ENDBRANCH  32  33
ENDBRANCH  30  32
ENDBRANCH   7  30
TORSDOF 11
ENDMDL
MODEL 9
REMARK VINA RESULT:      -8.1      1.354      1.734
REMARK  Name = 
REMARK  15 active torsions:
REMARK  status: ('A' for Active; 'I' for Inactive)
REMARK    1  A    between atoms: C_1  and  C_2
REMARK    2  A    between atoms: C_2  and  O_3
REMARK    3  A    between atoms: O_3  and  C_4
REMARK    4  A    between atoms: C_4  and  C_6
REMARK    5  A    between atoms: C_7  and  C_8
REMARK    6  A    between atoms: C_10  and  C_11
REMARK    7  A    between atoms: C_12  and  C_13
REMARK    8  A    between atoms: C_13  and  O_15
REMARK    9  A    between atoms: O_15  and  C_16
REMARK   10  A    between atoms: C_16  and  C_17
REMARK   11  A    between atoms: C_18  and  C_19
REMARK   12  A    between atoms: C_22  and  O_23
REMARK   13  A    between atoms: O_23  and  C_24
REMARK   14  A    between atoms: C_24  and  C_25
REMARK   15  A    between atoms: C_25  and  N_26
REMARK                            x       y       z     vdW  Elec       q    Type
REMARK                         _______ _______ _______ _____ _____    ______ ____
ROOT
ATOM      1  C   UNL     1       3.689   3.969  18.302  0.00  0.00    +0.000 C 
ATOM      2  C   UNL     1       4.576   3.427  19.170  0.00  0.00    +0.000 C 
ATOM      3  C   UNL     1       4.392   2.170  19.979  0.00  0.00    +0.000 C 
ATOM      4  N   UNL     1       5.818   4.035  19.343  0.00  0.00    +0.000 N 
ATOM      5  C   UNL     1       6.329   5.033  18.526  0.00  0.00    +0.000 C 
ATOM      6  C   UNL     1       7.776   5.392  18.734  0.00  0.00    +0.000 C 
ATOM      7  C   UNL     1       5.524   5.632  17.621  0.00  0.00    +0.000 C 
ATOM      8  C   UNL     1       4.036   5.274  17.583  0.00  0.00    +0.000 C 
ATOM      9  H   UNL     1       6.461   3.585  19.987  0.00  0.00    +0.000 HD
ENDROOT
BRANCH   8  10
ATOM     10  C   UNL     1       3.208   6.425  18.160  0.00  0.00    +0.000 A 
ATOM     11  C   UNL     1       2.887   6.419  19.518  0.00  0.00    +0.000 A 
ATOM     12  C   UNL     1       2.082   7.421  20.051  0.00  0.00    +0.000 A 
ATOM     13  C   UNL     1       1.587   8.461  19.250  0.00  0.00    +0.000 A 
ATOM     14  C   UNL     1       1.933   8.492  17.900  0.00  0.00    +0.000 A 
ATOM     15  C   UNL     1       2.742   7.486  17.360  0.00  0.00    +0.000 A 
BRANCH  13  16
ATOM     16  O   UNL     1       0.765   9.474  19.695  0.00  0.00    +0.000 OA
BRANCH  16  17
ATOM     17  C   UNL     1       1.292  10.774  19.413  0.00  0.00    +0.000 C 
BRANCH  17  18
ATOM     18  C   UNL     1       1.283  11.720  20.615  0.00  0.00    +0.000 C 
BRANCH  18  19
ATOM     19  N   UNL     1       1.062  13.130  20.201  0.00  0.00    +0.000 NA
ATOM     20  C   UNL     1       0.011  13.198  19.175  0.00  0.00    +0.000 C 
ATOM     21  C   UNL     1      -0.200  14.630  18.679  0.00  0.00    +0.000 C 
ATOM     22  C   UNL     1      -0.512  15.580  19.828  0.00  0.00    +0.000 C 
ATOM     23  C   UNL     1       0.557  15.467  20.902  0.00  0.00    +0.000 C 
ATOM     24  C   UNL     1       0.751  14.012  21.338  0.00  0.00    +0.000 C 
ENDBRANCH  18  19
ENDBRANCH  17  18
ENDBRANCH  16  17
ENDBRANCH  13  16
ENDBRANCH   8  10
BRANCH   1  25
ATOM     25  C   UNL     1       2.383   3.334  17.961  0.00  0.00    +0.000 C 
ATOM     26  O   UNL     1       2.185   2.559  17.041  0.00  0.00    +0.000 OA
BRANCH  25  27
ATOM     27  O   UNL     1       1.413   3.858  18.757  0.00  0.00    +0.000 OA
BRANCH  27  29
ATOM     28  C   UNL     1       1.285   3.351  21.073  0.00  0.00    +0.000 C 
ATOM     29  C   UNL     1       0.802   2.954  19.688  0.00  0.00    +0.000 C 
ENDBRANCH  27  29
ENDBRANCH  25  27
ENDBRANCH   1  25
BRANCH   7  30
ATOM     30  C   UNL     1       6.006   6.705  16.714  0.00  0.00    +0.000 C 
ATOM     31  O   UNL     1       6.443   7.783  17.086  0.00  0.00    +0.000 OA
BRANCH  30  32
ATOM     32  O   UNL     1       5.855   6.344  15.413  0.00  0.00    +0.000 OA
BRANCH  32  33
ATOM     33  C   UNL     1       6.652   5.223  14.996  0.00  0.00    +0.000 C 
ATOM     34  C   UNL     1       5.757   4.261  14.237  0.00  0.00    +0.000 C 
ENDBRANCH  32  33
ENDBRANCH  30  32
ENDBRANCH   7  30
TORSDOF 11
ENDMDL
