MODEL 1
REMARK VINA RESULT:      -8.3      0.000      0.000
REMARK  Name = 
REMARK  8 active torsions:
REMARK  status: ('A' for Active; 'I' for Inactive)
REMARK    1  A    between atoms: C_1  and  O_2
REMARK    2  A    between atoms: O_2  and  C_3
REMARK    3  A    between atoms: C_3  and  C_5
REMARK    4  A    between atoms: C_8  and  C_9
REMARK    5  A    between atoms: C_9  and  N_10
REMARK    6  A    between atoms: C_11  and  C_13
REMARK    7  A    between atoms: C_18  and  O_19
REMARK    8  A    between atoms: O_19  and  C_20
REMARK                            x       y       z     vdW  Elec       q    Type
REMARK                         _______ _______ _______ _____ _____    ______ ____
ROOT
ATOM      1  N   UNL     1       2.321   7.046  20.398  0.00  0.00    +0.000 N 
ATOM      2  C   UNL     1       2.153   5.686  20.229  0.00  0.00    +0.000 C 
ATOM      3  O   UNL     1       1.262   5.026  20.746  0.00  0.00    +0.000 OA
ATOM      4  H   UNL     1       2.979   7.546  19.814  0.00  0.00    +0.000 HD
ENDROOT
BRANCH   2   5
ATOM      5  C   UNL     1       3.090   5.022  19.292  0.00  0.00    +0.000 A 
ATOM      6  C   UNL     1       2.559   4.322  18.204  0.00  0.00    +0.000 A 
ATOM      7  C   UNL     1       3.394   3.939  17.154  0.00  0.00    +0.000 A 
ATOM      8  C   UNL     1       4.761   4.244  17.207  0.00  0.00    +0.000 A 
ATOM      9  C   UNL     1       5.557   4.288  16.056  0.00  0.00    +0.000 A 
ATOM     10  C   UNL     1       6.867   4.743  16.174  0.00  0.00    +0.000 A 
ATOM     11  C   UNL     1       7.504   4.713  17.408  0.00  0.00    +0.000 A 
ATOM     12  C   UNL     1       6.719   4.736  18.549  0.00  0.00    +0.000 A 
ATOM     13  C   UNL     1       5.325   4.672  18.428  0.00  0.00    +0.000 A 
ATOM     14  C   UNL     1       4.475   5.114  19.452  0.00  0.00    +0.000 A 
BRANCH  10  15
ATOM     15  O   UNL     1       7.415   5.402  15.101  0.00  0.00    +0.000 OA
ATOM     16  C   UNL     1       6.996   4.822  13.849  0.00  0.00    +0.000 C 
ENDBRANCH  10  15
ENDBRANCH   2   5
BRANCH   1  17
ATOM     17  C   UNL     1       1.418   7.820  21.226  0.00  0.00    +0.000 C 
BRANCH  17  21
ATOM     18  C   UNL     1      -0.426  11.135  19.101  0.00  0.00    +0.000 A 
ATOM     19  C   UNL     1       0.552  10.346  18.484  0.00  0.00    +0.000 A 
ATOM     20  C   UNL     1       1.163   9.298  19.191  0.00  0.00    +0.000 A 
ATOM     21  C   UNL     1       0.806   9.001  20.514  0.00  0.00    +0.000 A 
ATOM     22  C   UNL     1      -0.152   9.817  21.131  0.00  0.00    +0.000 A 
ATOM     23  C   UNL     1      -0.767  10.870  20.433  0.00  0.00    +0.000 A 
BRANCH  18  24
ATOM     24  C   UNL     1      -1.051  12.238  18.314  0.00  0.00    +0.000 C 
ATOM     25  O   UNL     1      -0.448  13.230  17.938  0.00  0.00    +0.000 OA
BRANCH  24  27
ATOM     26  C   UNL     1      -2.610  11.134  16.959  0.00  0.00    +0.000 C 
ATOM     27  O   UNL     1      -2.364  11.977  18.087  0.00  0.00    +0.000 OA
ENDBRANCH  24  27
ENDBRANCH  18  24
ENDBRANCH  17  21
ENDBRANCH   1  17
TORSDOF 6
ENDMDL
MODEL 2
REMARK VINA RESULT:      -8.0      0.969      1.745
REMARK  Name = 
REMARK  8 active torsions:
REMARK  status: ('A' for Active; 'I' for Inactive)
REMARK    1  A    between atoms: C_1  and  O_2
REMARK    2  A    between atoms: O_2  and  C_3
REMARK    3  A    between atoms: C_3  and  C_5
REMARK    4  A    between atoms: C_8  and  C_9
REMARK    5  A    between atoms: C_9  and  N_10
REMARK    6  A    between atoms: C_11  and  C_13
REMARK    7  A    between atoms: C_18  and  O_19
REMARK    8  A    between atoms: O_19  and  C_20
REMARK                            x       y       z     vdW  Elec       q    Type
REMARK                         _______ _______ _______ _____ _____    ______ ____
ROOT
ATOM      1  N   UNL     1       2.309   6.959  20.324  0.00  0.00    +0.000 N 
ATOM      2  C   UNL     1       2.115   5.607  20.116  0.00  0.00    +0.000 C 
ATOM      3  O   UNL     1       1.166   4.967  20.549  0.00  0.00    +0.000 OA
ATOM      4  H   UNL     1       3.027   7.447  19.803  0.00  0.00    +0.000 HD
ENDROOT
BRANCH   2   5
ATOM      5  C   UNL     1       3.104   4.930  19.244  0.00  0.00    +0.000 A 
ATOM      6  C   UNL     1       2.631   4.094  18.227  0.00  0.00    +0.000 A 
ATOM      7  C   UNL     1       3.498   3.677  17.216  0.00  0.00    +0.000 A 
ATOM      8  C   UNL     1       4.838   4.087  17.238  0.00  0.00    +0.000 A 
ATOM      9  C   UNL     1       5.635   4.081  16.087  0.00  0.00    +0.000 A 
ATOM     10  C   UNL     1       6.907   4.641  16.160  0.00  0.00    +0.000 A 
ATOM     11  C   UNL     1       7.538   4.774  17.390  0.00  0.00    +0.000 A 
ATOM     12  C   UNL     1       6.747   4.846  18.525  0.00  0.00    +0.000 A 
ATOM     13  C   UNL     1       5.362   4.667  18.413  0.00  0.00    +0.000 A 
ATOM     14  C   UNL     1       4.477   5.139  19.393  0.00  0.00    +0.000 A 
BRANCH  10  15
ATOM     15  O   UNL     1       7.410   5.236  15.029  0.00  0.00    +0.000 OA
ATOM     16  C   UNL     1       6.853   4.658  13.830  0.00  0.00    +0.000 C 
ENDBRANCH  10  15
ENDBRANCH   2   5
BRANCH   1  17
ATOM     17  C   UNL     1       1.367   7.747  21.092  0.00  0.00    +0.000 C 
BRANCH  17  21
ATOM     18  C   UNL     1       0.469  11.608  19.305  0.00  0.00    +0.000 A 
ATOM     19  C   UNL     1       0.210  11.369  20.660  0.00  0.00    +0.000 A 
ATOM     20  C   UNL     1       0.475  10.108  21.218  0.00  0.00    +0.000 A 
ATOM     21  C   UNL     1       1.016   9.066  20.451  0.00  0.00    +0.000 A 
ATOM     22  C   UNL     1       1.242   9.307  19.090  0.00  0.00    +0.000 A 
ATOM     23  C   UNL     1       0.977  10.565  18.521  0.00  0.00    +0.000 A 
BRANCH  18  24
ATOM     24  C   UNL     1       0.174  12.961  18.751  0.00  0.00    +0.000 C 
ATOM     25  O   UNL     1      -0.699  13.182  17.928  0.00  0.00    +0.000 OA
BRANCH  24  27
ATOM     26  C   UNL     1       2.199  14.117  18.533  0.00  0.00    +0.000 C 
ATOM     27  O   UNL     1       1.007  13.888  19.289  0.00  0.00    +0.000 OA
ENDBRANCH  24  27
ENDBRANCH  18  24
ENDBRANCH  17  21
ENDBRANCH   1  17
TORSDOF 6
ENDMDL
MODEL 3
REMARK VINA RESULT:      -8.0      0.388      1.019
REMARK  Name = 
REMARK  8 active torsions:
REMARK  status: ('A' for Active; 'I' for Inactive)
REMARK    1  A    between atoms: C_1  and  O_2
REMARK    2  A    between atoms: O_2  and  C_3
REMARK    3  A    between atoms: C_3  and  C_5
REMARK    4  A    between atoms: C_8  and  C_9
REMARK    5  A    between atoms: C_9  and  N_10
REMARK    6  A    between atoms: C_11  and  C_13
REMARK    7  A    between atoms: C_18  and  O_19
REMARK    8  A    between atoms: O_19  and  C_20
REMARK                            x       y       z     vdW  Elec       q    Type
REMARK                         _______ _______ _______ _____ _____    ______ ____
ROOT
ATOM      1  N   UNL     1       2.399   7.058  20.440  0.00  0.00    +0.000 N 
ATOM      2  C   UNL     1       2.205   5.704  20.248  0.00  0.00    +0.000 C 
ATOM      3  O   UNL     1       1.302   5.054  20.756  0.00  0.00    +0.000 OA
ATOM      4  H   UNL     1       3.066   7.555  19.863  0.00  0.00    +0.000 HD
ENDROOT
BRANCH   2   5
ATOM      5  C   UNL     1       3.127   5.039  19.298  0.00  0.00    +0.000 A 
ATOM      6  C   UNL     1       2.581   4.376  18.195  0.00  0.00    +0.000 A 
ATOM      7  C   UNL     1       3.407   3.995  17.137  0.00  0.00    +0.000 A 
ATOM      8  C   UNL     1       4.781   4.267  17.198  0.00  0.00    +0.000 A 
ATOM      9  C   UNL     1       5.580   4.316  16.049  0.00  0.00    +0.000 A 
ATOM     10  C   UNL     1       6.900   4.737  16.177  0.00  0.00    +0.000 A 
ATOM     11  C   UNL     1       7.535   4.666  17.411  0.00  0.00    +0.000 A 
ATOM     12  C   UNL     1       6.749   4.683  18.551  0.00  0.00    +0.000 A 
ATOM     13  C   UNL     1       5.354   4.654  18.428  0.00  0.00    +0.000 A 
ATOM     14  C   UNL     1       4.513   5.094  19.461  0.00  0.00    +0.000 A 
BRANCH  10  15
ATOM     15  O   UNL     1       7.464   5.406  15.119  0.00  0.00    +0.000 OA
ATOM     16  C   UNL     1       7.037   4.859  13.854  0.00  0.00    +0.000 C 
ENDBRANCH  10  15
ENDBRANCH   2   5
BRANCH   1  17
ATOM     17  C   UNL     1       1.514   7.836  21.283  0.00  0.00    +0.000 C 
BRANCH  17  21
ATOM     18  C   UNL     1      -0.416  11.171  19.269  0.00  0.00    +0.000 A 
ATOM     19  C   UNL     1      -0.797  10.801  20.565  0.00  0.00    +0.000 A 
ATOM     20  C   UNL     1      -0.188   9.702  21.192  0.00  0.00    +0.000 A 
ATOM     21  C   UNL     1       0.819   8.961  20.557  0.00  0.00    +0.000 A 
ATOM     22  C   UNL     1       1.169   9.322  19.250  0.00  0.00    +0.000 A 
ATOM     23  C   UNL     1       0.564  10.418  18.612  0.00  0.00    +0.000 A 
BRANCH  18  24
ATOM     24  C   UNL     1      -1.086  12.345  18.638  0.00  0.00    +0.000 C 
ATOM     25  O   UNL     1      -0.956  13.493  19.032  0.00  0.00    +0.000 OA
BRANCH  24  27
ATOM     26  C   UNL     1      -3.216  11.697  17.912  0.00  0.00    +0.000 C 
ATOM     27  O   UNL     1      -1.848  11.951  17.586  0.00  0.00    +0.000 OA
ENDBRANCH  24  27
ENDBRANCH  18  24
ENDBRANCH  17  21
ENDBRANCH   1  17
TORSDOF 6
ENDMDL
MODEL 4
REMARK VINA RESULT:      -7.8      2.775      4.647
REMARK  Name = 
REMARK  8 active torsions:
REMARK  status: ('A' for Active; 'I' for Inactive)
REMARK    1  A    between atoms: C_1  and  O_2
REMARK    2  A    between atoms: O_2  and  C_3
REMARK    3  A    between atoms: C_3  and  C_5
REMARK    4  A    between atoms: C_8  and  C_9
REMARK    5  A    between atoms: C_9  and  N_10
REMARK    6  A    between atoms: C_11  and  C_13
REMARK    7  A    between atoms: C_18  and  O_19
REMARK    8  A    between atoms: O_19  and  C_20
REMARK                            x       y       z     vdW  Elec       q    Type
REMARK                         _______ _______ _______ _____ _____    ______ ____
ROOT
ATOM      1  N   UNL     1       0.476   9.892  19.092  0.00  0.00    +0.000 N 
ATOM      2  C   UNL     1       1.581   9.457  18.387  0.00  0.00    +0.000 C 
ATOM      3  O   UNL     1       2.157  10.109  17.527  0.00  0.00    +0.000 OA
ATOM      4  H   UNL     1       0.155   9.366  19.895  0.00  0.00    +0.000 HD
ENDROOT
BRANCH   2   5
ATOM      5  C   UNL     1       2.126   8.135  18.775  0.00  0.00    +0.000 A 
ATOM      6  C   UNL     1       1.870   7.663  20.067  0.00  0.00    +0.000 A 
ATOM      7  C   UNL     1       2.107   6.322  20.373  0.00  0.00    +0.000 A 
ATOM      8  C   UNL     1       2.616   5.465  19.388  0.00  0.00    +0.000 A 
ATOM      9  C   UNL     1       2.477   4.074  19.470  0.00  0.00    +0.000 A 
ATOM     10  C   UNL     1       2.876   3.303  18.383  0.00  0.00    +0.000 A 
ATOM     11  C   UNL     1       3.783   3.815  17.464  0.00  0.00    +0.000 A 
ATOM     12  C   UNL     1       3.875   5.191  17.334  0.00  0.00    +0.000 A 
ATOM     13  C   UNL     1       3.147   6.016  18.202  0.00  0.00    +0.000 A 
ATOM     14  C   UNL     1       2.848   7.346  17.876  0.00  0.00    +0.000 A 
BRANCH  10  15
ATOM     15  O   UNL     1       2.196   2.135  18.142  0.00  0.00    +0.000 OA
ATOM     16  C   UNL     1       0.857   2.179  18.678  0.00  0.00    +0.000 C 
ENDBRANCH  10  15
ENDBRANCH   2   5
BRANCH   1  17
ATOM     17  C   UNL     1      -0.100  11.201  18.860  0.00  0.00    +0.000 C 
BRANCH  17  21
ATOM     18  C   UNL     1      -4.388  11.253  18.145  0.00  0.00    +0.000 A 
ATOM     19  C   UNL     1      -3.817  12.070  19.128  0.00  0.00    +0.000 A 
ATOM     20  C   UNL     1      -2.435  12.021  19.371  0.00  0.00    +0.000 A 
ATOM     21  C   UNL     1      -1.591  11.176  18.636  0.00  0.00    +0.000 A 
ATOM     22  C   UNL     1      -2.178  10.341  17.677  0.00  0.00    +0.000 A 
ATOM     23  C   UNL     1      -3.561  10.380  17.428  0.00  0.00    +0.000 A 
BRANCH  18  24
ATOM     24  C   UNL     1      -5.860  11.336  17.918  0.00  0.00    +0.000 C 
ATOM     25  O   UNL     1      -6.665  10.550  18.391  0.00  0.00    +0.000 OA
BRANCH  24  27
ATOM     26  C   UNL     1      -7.309  13.137  17.539  0.00  0.00    +0.000 C 
ATOM     27  O   UNL     1      -6.161  12.393  17.121  0.00  0.00    +0.000 OA
ENDBRANCH  24  27
ENDBRANCH  18  24
ENDBRANCH  17  21
ENDBRANCH   1  17
TORSDOF 6
ENDMDL
MODEL 5
REMARK VINA RESULT:      -7.7      2.761      4.691
REMARK  Name = 
REMARK  8 active torsions:
REMARK  status: ('A' for Active; 'I' for Inactive)
REMARK    1  A    between atoms: C_1  and  O_2
REMARK    2  A    between atoms: O_2  and  C_3
REMARK    3  A    between atoms: C_3  and  C_5
REMARK    4  A    between atoms: C_8  and  C_9
REMARK    5  A    between atoms: C_9  and  N_10
REMARK    6  A    between atoms: C_11  and  C_13
REMARK    7  A    between atoms: C_18  and  O_19
REMARK    8  A    between atoms: O_19  and  C_20
REMARK                            x       y       z     vdW  Elec       q    Type
REMARK                         _______ _______ _______ _____ _____    ______ ____
ROOT
ATOM      1  N   UNL     1       0.336   9.876  18.588  0.00  0.00    +0.000 N 
ATOM      2  C   UNL     1       1.646   9.640  18.218  0.00  0.00    +0.000 C 
ATOM      3  O   UNL     1       2.370  10.460  17.668  0.00  0.00    +0.000 OA
ATOM      4  H   UNL     1      -0.145   9.209  19.178  0.00  0.00    +0.000 HD
ENDROOT
BRANCH   2   5
ATOM      5  C   UNL     1       2.204   8.320  18.591  0.00  0.00    +0.000 A 
ATOM      6  C   UNL     1       1.889   7.795  19.849  0.00  0.00    +0.000 A 
ATOM      7  C   UNL     1       2.145   6.452  20.122  0.00  0.00    +0.000 A 
ATOM      8  C   UNL     1       2.732   5.643  19.140  0.00  0.00    +0.000 A 
ATOM      9  C   UNL     1       2.627   4.247  19.167  0.00  0.00    +0.000 A 
ATOM     10  C   UNL     1       3.109   3.526  18.078  0.00  0.00    +0.000 A 
ATOM     11  C   UNL     1       4.052   4.093  17.231  0.00  0.00    +0.000 A 
ATOM     12  C   UNL     1       4.112   5.475  17.154  0.00  0.00    +0.000 A 
ATOM     13  C   UNL     1       3.314   6.249  18.005  0.00  0.00    +0.000 A 
ATOM     14  C   UNL     1       2.997   7.583  17.708  0.00  0.00    +0.000 A 
BRANCH  10  15
ATOM     15  O   UNL     1       2.476   2.350  17.759  0.00  0.00    +0.000 OA
ATOM     16  C   UNL     1       1.380   2.074  18.657  0.00  0.00    +0.000 C 
ENDBRANCH  10  15
ENDBRANCH   2   5
BRANCH   1  17
ATOM     17  C   UNL     1      -0.297  11.157  18.350  0.00  0.00    +0.000 C 
BRANCH  17  21
ATOM     18  C   UNL     1      -4.641  11.092  18.193  0.00  0.00    +0.000 A 
ATOM     19  C   UNL     1      -3.969  11.980  19.042  0.00  0.00    +0.000 A 
ATOM     20  C   UNL     1      -2.567  11.969  19.107  0.00  0.00    +0.000 A 
ATOM     21  C   UNL     1      -1.803  11.094  18.322  0.00  0.00    +0.000 A 
ATOM     22  C   UNL     1      -2.488  10.189  17.499  0.00  0.00    +0.000 A 
ATOM     23  C   UNL     1      -3.891  10.190  17.429  0.00  0.00    +0.000 A 
BRANCH  18  24
ATOM     24  C   UNL     1      -6.132  11.136  18.153  0.00  0.00    +0.000 C 
ATOM     25  O   UNL     1      -6.770  11.977  17.540  0.00  0.00    +0.000 OA
BRANCH  24  27
ATOM     26  C   UNL     1      -7.293  10.540  20.097  0.00  0.00    +0.000 C 
ATOM     27  O   UNL     1      -6.659  10.122  18.885  0.00  0.00    +0.000 OA
ENDBRANCH  24  27
ENDBRANCH  18  24
ENDBRANCH  17  21
ENDBRANCH   1  17
TORSDOF 6
ENDMDL
MODEL 6
REMARK VINA RESULT:      -7.7      2.798      4.095
REMARK  Name = 
REMARK  8 active torsions:
REMARK  status: ('A' for Active; 'I' for Inactive)
REMARK    1  A    between atoms: C_1  and  O_2
REMARK    2  A    between atoms: O_2  and  C_3
REMARK    3  A    between atoms: C_3  and  C_5
REMARK    4  A    between atoms: C_8  and  C_9
REMARK    5  A    between atoms: C_9  and  N_10
REMARK    6  A    between atoms: C_11  and  C_13
REMARK    7  A    between atoms: C_18  and  O_19
REMARK    8  A    between atoms: O_19  and  C_20
REMARK                            x       y       z     vdW  Elec       q    Type
REMARK                         _______ _______ _______ _____ _____    ______ ____
ROOT
ATOM      1  N   UNL     1       1.300   9.361  18.074  0.00  0.00    +0.000 N 
ATOM      2  C   UNL     1       1.821   8.411  18.930  0.00  0.00    +0.000 C 
ATOM      3  O   UNL     1       1.843   8.512  20.149  0.00  0.00    +0.000 OA
ATOM      4  H   UNL     1       1.172   9.138  17.095  0.00  0.00    +0.000 HD
ENDROOT
BRANCH   2   5
ATOM      5  C   UNL     1       2.313   7.163  18.300  0.00  0.00    +0.000 A 
ATOM      6  C   UNL     1       3.580   7.171  17.709  0.00  0.00    +0.000 A 
ATOM      7  C   UNL     1       4.193   5.964  17.371  0.00  0.00    +0.000 A 
ATOM      8  C   UNL     1       3.527   4.755  17.612  0.00  0.00    +0.000 A 
ATOM      9  C   UNL     1       4.210   3.537  17.709  0.00  0.00    +0.000 A 
ATOM     10  C   UNL     1       3.496   2.407  18.097  0.00  0.00    +0.000 A 
ATOM     11  C   UNL     1       2.116   2.371  17.946  0.00  0.00    +0.000 A 
ATOM     12  C   UNL     1       1.431   3.574  17.916  0.00  0.00    +0.000 A 
ATOM     13  C   UNL     1       2.149   4.777  17.921  0.00  0.00    +0.000 A 
ATOM     14  C   UNL     1       1.561   5.986  18.320  0.00  0.00    +0.000 A 
BRANCH  10  15
ATOM     15  O   UNL     1       4.163   1.443  18.812  0.00  0.00    +0.000 OA
ATOM     16  C   UNL     1       4.562   1.925  20.112  0.00  0.00    +0.000 C 
ENDBRANCH  10  15
ENDBRANCH   2   5
BRANCH   1  17
ATOM     17  C   UNL     1       0.716  10.589  18.575  0.00  0.00    +0.000 C 
BRANCH  17  21
ATOM     18  C   UNL     1      -3.558  10.981  17.877  0.00  0.00    +0.000 A 
ATOM     19  C   UNL     1      -2.910  11.789  18.819  0.00  0.00    +0.000 A 
ATOM     20  C   UNL     1      -1.536  11.631  19.059  0.00  0.00    +0.000 A 
ATOM     21  C   UNL     1      -0.774  10.684  18.359  0.00  0.00    +0.000 A 
ATOM     22  C   UNL     1      -1.439   9.861  17.441  0.00  0.00    +0.000 A 
ATOM     23  C   UNL     1      -2.815  10.009  17.196  0.00  0.00    +0.000 A 
BRANCH  18  24
ATOM     24  C   UNL     1      -5.019  11.181  17.652  0.00  0.00    +0.000 C 
ATOM     25  O   UNL     1      -5.480  12.000  16.872  0.00  0.00    +0.000 OA
BRANCH  24  27
ATOM     26  C   UNL     1      -6.556  10.988  19.409  0.00  0.00    +0.000 C 
ATOM     27  O   UNL     1      -5.742  10.336  18.430  0.00  0.00    +0.000 OA
ENDBRANCH  24  27
ENDBRANCH  18  24
ENDBRANCH  17  21
ENDBRANCH   1  17
TORSDOF 6
ENDMDL
MODEL 7
REMARK VINA RESULT:      -7.6      0.978      1.128
REMARK  Name = 
REMARK  8 active torsions:
REMARK  status: ('A' for Active; 'I' for Inactive)
REMARK    1  A    between atoms: C_1  and  O_2
REMARK    2  A    between atoms: O_2  and  C_3
REMARK    3  A    between atoms: C_3  and  C_5
REMARK    4  A    between atoms: C_8  and  C_9
REMARK    5  A    between atoms: C_9  and  N_10
REMARK    6  A    between atoms: C_11  and  C_13
REMARK    7  A    between atoms: C_18  and  O_19
REMARK    8  A    between atoms: O_19  and  C_20
REMARK                            x       y       z     vdW  Elec       q    Type
REMARK                         _______ _______ _______ _____ _____    ______ ____
ROOT
ATOM      1  N   UNL     1       2.381   7.629  19.916  0.00  0.00    +0.000 N 
ATOM      2  C   UNL     1       2.271   6.266  20.113  0.00  0.00    +0.000 C 
ATOM      3  O   UNL     1       1.512   5.740  20.915  0.00  0.00    +0.000 OA
ATOM      4  H   UNL     1       2.910   7.980  19.128  0.00  0.00    +0.000 HD
ENDROOT
BRANCH   2   5
ATOM      5  C   UNL     1       3.091   5.409  19.226  0.00  0.00    +0.000 A 
ATOM      6  C   UNL     1       2.435   4.583  18.307  0.00  0.00    +0.000 A 
ATOM      7  C   UNL     1       3.157   3.990  17.271  0.00  0.00    +0.000 A 
ATOM      8  C   UNL     1       4.537   4.214  17.169  0.00  0.00    +0.000 A 
ATOM      9  C   UNL     1       5.233   4.029  15.969  0.00  0.00    +0.000 A 
ATOM     10  C   UNL     1       6.569   4.414  15.912  0.00  0.00    +0.000 A 
ATOM     11  C   UNL     1       7.307   4.537  17.083  0.00  0.00    +0.000 A 
ATOM     12  C   UNL     1       6.624   4.785  18.262  0.00  0.00    +0.000 A 
ATOM     13  C   UNL     1       5.223   4.790  18.260  0.00  0.00    +0.000 A 
ATOM     14  C   UNL     1       4.487   5.438  19.263  0.00  0.00    +0.000 A 
BRANCH  10  15
ATOM     15  O   UNL     1       7.055   4.864  14.709  0.00  0.00    +0.000 OA
ATOM     16  C   UNL     1       6.513   4.113  13.602  0.00  0.00    +0.000 C 
ENDBRANCH  10  15
ENDBRANCH   2   5
BRANCH   1  17
ATOM     17  C   UNL     1       1.572   8.567  20.667  0.00  0.00    +0.000 C 
BRANCH  17  21
ATOM     18  C   UNL     1      -1.386  10.595  18.207  0.00  0.00    +0.000 A 
ATOM     19  C   UNL     1      -0.347   9.863  17.619  0.00  0.00    +0.000 A 
ATOM     20  C   UNL     1       0.620   9.239  18.423  0.00  0.00    +0.000 A 
ATOM     21  C   UNL     1       0.568   9.313  19.823  0.00  0.00    +0.000 A 
ATOM     22  C   UNL     1      -0.458  10.074  20.398  0.00  0.00    +0.000 A 
ATOM     23  C   UNL     1      -1.429  10.704  19.602  0.00  0.00    +0.000 A 
BRANCH  18  24
ATOM     24  C   UNL     1      -2.393  11.241  17.317  0.00  0.00    +0.000 C 
ATOM     25  O   UNL     1      -2.345  11.204  16.098  0.00  0.00    +0.000 OA
BRANCH  24  27
ATOM     26  C   UNL     1      -4.686  11.616  17.612  0.00  0.00    +0.000 C 
ATOM     27  O   UNL     1      -3.349  11.865  18.052  0.00  0.00    +0.000 OA
ENDBRANCH  24  27
ENDBRANCH  18  24
ENDBRANCH  17  21
ENDBRANCH   1  17
TORSDOF 6
ENDMDL
MODEL 8
REMARK VINA RESULT:      -7.6      2.695      4.038
REMARK  Name = 
REMARK  8 active torsions:
REMARK  status: ('A' for Active; 'I' for Inactive)
REMARK    1  A    between atoms: C_1  and  O_2
REMARK    2  A    between atoms: O_2  and  C_3
REMARK    3  A    between atoms: C_3  and  C_5
REMARK    4  A    between atoms: C_8  and  C_9
REMARK    5  A    between atoms: C_9  and  N_10
REMARK    6  A    between atoms: C_11  and  C_13
REMARK    7  A    between atoms: C_18  and  O_19
REMARK    8  A    between atoms: O_19  and  C_20
REMARK                            x       y       z     vdW  Elec       q    Type
REMARK                         _______ _______ _______ _____ _____    ______ ____
ROOT
ATOM      1  N   UNL     1       1.210   9.074  19.326  0.00  0.00    +0.000 N 
ATOM      2  C   UNL     1       2.005   8.996  18.200  0.00  0.00    +0.000 C 
ATOM      3  O   UNL     1       2.360   9.959  17.533  0.00  0.00    +0.000 OA
ATOM      4  H   UNL     1       1.092   8.258  19.914  0.00  0.00    +0.000 HD
ENDROOT
BRANCH   2   5
ATOM      5  C   UNL     1       2.507   7.648  17.845  0.00  0.00    +0.000 A 
ATOM      6  C   UNL     1       3.832   7.523  17.414  0.00  0.00    +0.000 A 
ATOM      7  C   UNL     1       4.423   6.261  17.352  0.00  0.00    +0.000 A 
ATOM      8  C   UNL     1       3.678   5.127  17.707  0.00  0.00    +0.000 A 
ATOM      9  C   UNL     1       4.290   3.925  18.081  0.00  0.00    +0.000 A 
ATOM     10  C   UNL     1       3.486   2.895  18.560  0.00  0.00    +0.000 A 
ATOM     11  C   UNL     1       2.131   2.871  18.256  0.00  0.00    +0.000 A 
ATOM     12  C   UNL     1       1.510   4.071  17.949  0.00  0.00    +0.000 A 
ATOM     13  C   UNL     1       2.278   5.238  17.842  0.00  0.00    +0.000 A 
ATOM     14  C   UNL     1       1.704   6.511  17.967  0.00  0.00    +0.000 A 
BRANCH  10  15
ATOM     15  O   UNL     1       4.024   2.047  19.497  0.00  0.00    +0.000 OA
ATOM     16  C   UNL     1       3.625   2.410  20.835  0.00  0.00    +0.000 C 
ENDBRANCH  10  15
ENDBRANCH   2   5
BRANCH   1  17
ATOM     17  C   UNL     1       0.724  10.346  19.821  0.00  0.00    +0.000 C 
BRANCH  17  21
ATOM     18  C   UNL     1      -3.229  11.348  18.311  0.00  0.00    +0.000 A 
ATOM     19  C   UNL     1      -2.482  10.315  17.731  0.00  0.00    +0.000 A 
ATOM     20  C   UNL     1      -1.194  10.022  18.207  0.00  0.00    +0.000 A 
ATOM     21  C   UNL     1      -0.628  10.733  19.275  0.00  0.00    +0.000 A 
ATOM     22  C   UNL     1      -1.372  11.784  19.827  0.00  0.00    +0.000 A 
ATOM     23  C   UNL     1      -2.661  12.087  19.355  0.00  0.00    +0.000 A 
BRANCH  18  24
ATOM     24  C   UNL     1      -4.593  11.626  17.776  0.00  0.00    +0.000 C 
ATOM     25  O   UNL     1      -4.830  11.841  16.598  0.00  0.00    +0.000 OA
BRANCH  24  27
ATOM     26  C   UNL     1      -6.478  10.560  18.667  0.00  0.00    +0.000 C 
ATOM     27  O   UNL     1      -5.510  11.606  18.777  0.00  0.00    +0.000 OA
ENDBRANCH  24  27
ENDBRANCH  18  24
ENDBRANCH  17  21
ENDBRANCH   1  17
TORSDOF 6
ENDMDL
MODEL 9
REMARK VINA RESULT:      -7.6      1.581      9.091
REMARK  Name = 
REMARK  8 active torsions:
REMARK  status: ('A' for Active; 'I' for Inactive)
REMARK    1  A    between atoms: C_1  and  O_2
REMARK    2  A    between atoms: O_2  and  C_3
REMARK    3  A    between atoms: C_3  and  C_5
REMARK    4  A    between atoms: C_8  and  C_9
REMARK    5  A    between atoms: C_9  and  N_10
REMARK    6  A    between atoms: C_11  and  C_13
REMARK    7  A    between atoms: C_18  and  O_19
REMARK    8  A    between atoms: O_19  and  C_20
REMARK                            x       y       z     vdW  Elec       q    Type
REMARK                         _______ _______ _______ _____ _____    ______ ____
ROOT
ATOM      1  N   UNL     1       3.057   6.601  19.626  0.00  0.00    +0.000 N 
ATOM      2  C   UNL     1       1.892   6.815  20.337  0.00  0.00    +0.000 C 
ATOM      3  O   UNL     1       1.251   5.937  20.898  0.00  0.00    +0.000 OA
ATOM      4  H   UNL     1       3.614   7.392  19.328  0.00  0.00    +0.000 HD
ENDROOT
BRANCH   2   5
ATOM      5  C   UNL     1       1.457   8.224  20.471  0.00  0.00    +0.000 A 
ATOM      6  C   UNL     1       1.621   9.079  19.375  0.00  0.00    +0.000 A 
ATOM      7  C   UNL     1       0.969  10.312  19.356  0.00  0.00    +0.000 A 
ATOM      8  C   UNL     1       0.168  10.691  20.442  0.00  0.00    +0.000 A 
ATOM      9  C   UNL     1      -0.829  11.667  20.325  0.00  0.00    +0.000 A 
ATOM     10  C   UNL     1      -1.677  11.880  21.407  0.00  0.00    +0.000 A 
ATOM     11  C   UNL     1      -1.285  11.498  22.683  0.00  0.00    +0.000 A 
ATOM     12  C   UNL     1      -0.348  10.486  22.802  0.00  0.00    +0.000 A 
ATOM     13  C   UNL     1       0.256   9.965  21.650  0.00  0.00    +0.000 A 
ATOM     14  C   UNL     1       0.859   8.699  21.641  0.00  0.00    +0.000 A 
BRANCH  10  15
ATOM     15  O   UNL     1      -2.966  12.274  21.141  0.00  0.00    +0.000 OA
ATOM     16  C   UNL     1      -3.222  12.338  19.723  0.00  0.00    +0.000 C 
ENDBRANCH  10  15
ENDBRANCH   2   5
BRANCH   1  17
ATOM     17  C   UNL     1       3.628   5.276  19.493  0.00  0.00    +0.000 C 
BRANCH  17  21
ATOM     18  C   UNL     1       6.017   4.862  15.884  0.00  0.00    +0.000 A 
ATOM     19  C   UNL     1       4.864   4.090  16.071  0.00  0.00    +0.000 A 
ATOM     20  C   UNL     1       4.118   4.210  17.254  0.00  0.00    +0.000 A 
ATOM     21  C   UNL     1       4.489   5.107  18.267  0.00  0.00    +0.000 A 
ATOM     22  C   UNL     1       5.662   5.851  18.081  0.00  0.00    +0.000 A 
ATOM     23  C   UNL     1       6.417   5.736  16.902  0.00  0.00    +0.000 A 
BRANCH  18  24
ATOM     24  C   UNL     1       6.780   4.705  14.612  0.00  0.00    +0.000 C 
ATOM     25  O   UNL     1       7.720   5.415  14.292  0.00  0.00    +0.000 OA
BRANCH  24  27
ATOM     26  C   UNL     1       6.547   3.769  12.478  0.00  0.00    +0.000 C 
ATOM     27  O   UNL     1       6.280   3.677  13.879  0.00  0.00    +0.000 OA
ENDBRANCH  24  27
ENDBRANCH  18  24
ENDBRANCH  17  21
ENDBRANCH   1  17
TORSDOF 6
ENDMDL
