MODEL 1
REMARK VINA RESULT:      -7.6      0.000      0.000
REMARK  Name = 
REMARK  11 active torsions:
REMARK  status: ('A' for Active; 'I' for Inactive)
REMARK    1  A    between atoms: C_1  and  C_2
REMARK    2  A    between atoms: C_2  and  C_3
REMARK    3  A    between atoms: C_3  and  C_4
REMARK    4  A    between atoms: C_4  and  C_5
REMARK    5  A    between atoms: C_5  and  C_6
REMARK    6  A    between atoms: C_6  and  C_7
REMARK    7  A    between atoms: C_6  and  C_15
REMARK    8  A    between atoms: C_10  and  O_11
REMARK    9  A    between atoms: C_13  and  O_14
REMARK   10  A    between atoms: C_18  and  O_19
REMARK   11  A    between atoms: C_21  and  O_22
REMARK                            x       y       z     vdW  Elec       q    Type
REMARK                         _______ _______ _______ _____ _____    ______ ____
ROOT
ATOM      1  C   UNL     1       4.877   4.417  16.375  0.00  0.00    +0.000 C 
ENDROOT
BRANCH   1   2
ATOM      2  C   UNL     1       3.743   3.921  17.284  0.00  0.00    +0.000 A 
ATOM      3  C   UNL     1       3.653   2.536  17.546  0.00  0.00    +0.000 A 
ATOM      4  C   UNL     1       2.538   1.977  18.182  0.00  0.00    +0.000 A 
ATOM      5  C   UNL     1       1.482   2.800  18.546  0.00  0.00    +0.000 A 
ATOM      6  C   UNL     1       1.575   4.174  18.385  0.00  0.00    +0.000 A 
ATOM      7  C   UNL     1       2.715   4.730  17.795  0.00  0.00    +0.000 A 
BRANCH   5   8
ATOM      8  O   UNL     1       0.327   2.295  19.066  0.00  0.00    +0.000 OA
ATOM      9  H   UNL     1      -0.355   2.986  19.021  0.00  0.00    +0.000 HD
ENDBRANCH   5   8
BRANCH   7  10
ATOM     10  O   UNL     1       2.810   6.090  17.728  0.00  0.00    +0.000 OA
ATOM     11  H   UNL     1       3.260   6.407  18.530  0.00  0.00    +0.000 HD
ENDBRANCH   7  10
ENDBRANCH   1   2
BRANCH   1  12
ATOM     12  C   UNL     1       5.886   5.314  17.128  0.00  0.00    +0.000 A 
ATOM     13  C   UNL     1       6.608   4.810  18.229  0.00  0.00    +0.000 A 
ATOM     14  C   UNL     1       7.560   5.574  18.905  0.00  0.00    +0.000 A 
ATOM     15  C   UNL     1       7.815   6.865  18.477  0.00  0.00    +0.000 A 
ATOM     16  C   UNL     1       7.127   7.399  17.394  0.00  0.00    +0.000 A 
ATOM     17  C   UNL     1       6.169   6.627  16.726  0.00  0.00    +0.000 A 
BRANCH  15  18
ATOM     18  O   UNL     1       8.749   7.642  19.098  0.00  0.00    +0.000 OA
ATOM     19  H   UNL     1       8.930   7.265  19.972  0.00  0.00    +0.000 HD
ENDBRANCH  15  18
BRANCH  17  20
ATOM     20  O   UNL     1       5.517   7.157  15.644  0.00  0.00    +0.000 OA
ATOM     21  H   UNL     1       5.922   8.012  15.436  0.00  0.00    +0.000 HD
ENDBRANCH  17  20
ENDBRANCH   1  12
BRANCH   1  22
ATOM     22  C   UNL     1       5.667   3.364  15.561  0.00  0.00    +0.000 C 
BRANCH  22  23
ATOM     23  C   UNL     1       6.306   3.816  14.252  0.00  0.00    +0.000 C 
BRANCH  23  24
ATOM     24  C   UNL     1       5.332   4.187  13.131  0.00  0.00    +0.000 C 
BRANCH  24  26
ATOM     25  C   UNL     1       4.134   3.117  11.157  0.00  0.00    +0.000 C 
ATOM     26  C   UNL     1       5.351   3.087  12.064  0.00  0.00    +0.000 C 
ENDBRANCH  24  26
ENDBRANCH  23  24
ENDBRANCH  22  23
ENDBRANCH   1  22
TORSDOF 10
ENDMDL
MODEL 2
REMARK VINA RESULT:      -7.5      1.581      5.435
REMARK  Name = 
REMARK  11 active torsions:
REMARK  status: ('A' for Active; 'I' for Inactive)
REMARK    1  A    between atoms: C_1  and  C_2
REMARK    2  A    between atoms: C_2  and  C_3
REMARK    3  A    between atoms: C_3  and  C_4
REMARK    4  A    between atoms: C_4  and  C_5
REMARK    5  A    between atoms: C_5  and  C_6
REMARK    6  A    between atoms: C_6  and  C_7
REMARK    7  A    between atoms: C_6  and  C_15
REMARK    8  A    between atoms: C_10  and  O_11
REMARK    9  A    between atoms: C_13  and  O_14
REMARK   10  A    between atoms: C_18  and  O_19
REMARK   11  A    between atoms: C_21  and  O_22
REMARK                            x       y       z     vdW  Elec       q    Type
REMARK                         _______ _______ _______ _____ _____    ______ ____
ROOT
ATOM      1  C   UNL     1       5.311   4.200  17.145  0.00  0.00    +0.000 C 
ENDROOT
BRANCH   1   2
ATOM      2  C   UNL     1       6.015   5.514  17.517  0.00  0.00    +0.000 A 
ATOM      3  C   UNL     1       5.486   6.722  17.013  0.00  0.00    +0.000 A 
ATOM      4  C   UNL     1       6.181   7.933  17.123  0.00  0.00    +0.000 A 
ATOM      5  C   UNL     1       7.430   7.946  17.724  0.00  0.00    +0.000 A 
ATOM      6  C   UNL     1       7.940   6.796  18.308  0.00  0.00    +0.000 A 
ATOM      7  C   UNL     1       7.217   5.601  18.238  0.00  0.00    +0.000 A 
BRANCH   5   8
ATOM      8  O   UNL     1       8.197   9.073  17.758  0.00  0.00    +0.000 OA
ATOM      9  H   UNL     1       8.388   9.340  16.843  0.00  0.00    +0.000 HD
ENDBRANCH   5   8
BRANCH   7  10
ATOM     10  O   UNL     1       7.707   4.509  18.896  0.00  0.00    +0.000 OA
ATOM     11  H   UNL     1       8.300   4.028  18.295  0.00  0.00    +0.000 HD
ENDBRANCH   7  10
ENDBRANCH   1   2
BRANCH   1  12
ATOM     12  C   UNL     1       4.030   3.963  17.976  0.00  0.00    +0.000 A 
ATOM     13  C   UNL     1       2.776   4.391  17.495  0.00  0.00    +0.000 A 
ATOM     14  C   UNL     1       1.592   4.154  18.196  0.00  0.00    +0.000 A 
ATOM     15  C   UNL     1       1.646   3.466  19.395  0.00  0.00    +0.000 A 
ATOM     16  C   UNL     1       2.861   3.026  19.904  0.00  0.00    +0.000 A 
ATOM     17  C   UNL     1       4.044   3.274  19.198  0.00  0.00    +0.000 A 
BRANCH  15  18
ATOM     18  O   UNL     1       0.511   3.199  20.105  0.00  0.00    +0.000 OA
ATOM     19  H   UNL     1       0.739   3.160  21.045  0.00  0.00    +0.000 HD
ENDBRANCH  15  18
BRANCH  17  20
ATOM     20  O   UNL     1       5.233   2.810  19.697  0.00  0.00    +0.000 OA
ATOM     21  H   UNL     1       5.114   1.882  19.948  0.00  0.00    +0.000 HD
ENDBRANCH  17  20
ENDBRANCH   1  12
BRANCH   1  22
ATOM     22  C   UNL     1       4.983   3.951  15.653  0.00  0.00    +0.000 C 
BRANCH  22  23
ATOM     23  C   UNL     1       6.155   3.773  14.692  0.00  0.00    +0.000 C 
BRANCH  23  24
ATOM     24  C   UNL     1       5.962   4.367  13.294  0.00  0.00    +0.000 C 
BRANCH  24  26
ATOM     25  C   UNL     1       4.500   3.206  11.564  0.00  0.00    +0.000 C 
ATOM     26  C   UNL     1       5.841   3.227  12.276  0.00  0.00    +0.000 C 
ENDBRANCH  24  26
ENDBRANCH  23  24
ENDBRANCH  22  23
ENDBRANCH   1  22
TORSDOF 10
ENDMDL
MODEL 3
REMARK VINA RESULT:      -7.4      1.408      5.212
REMARK  Name = 
REMARK  11 active torsions:
REMARK  status: ('A' for Active; 'I' for Inactive)
REMARK    1  A    between atoms: C_1  and  C_2
REMARK    2  A    between atoms: C_2  and  C_3
REMARK    3  A    between atoms: C_3  and  C_4
REMARK    4  A    between atoms: C_4  and  C_5
REMARK    5  A    between atoms: C_5  and  C_6
REMARK    6  A    between atoms: C_6  and  C_7
REMARK    7  A    between atoms: C_6  and  C_15
REMARK    8  A    between atoms: C_10  and  O_11
REMARK    9  A    between atoms: C_13  and  O_14
REMARK   10  A    between atoms: C_18  and  O_19
REMARK   11  A    between atoms: C_21  and  O_22
REMARK                            x       y       z     vdW  Elec       q    Type
REMARK                         _______ _______ _______ _____ _____    ______ ____
ROOT
ATOM      1  C   UNL     1       5.525   4.153  17.103  0.00  0.00    +0.000 C 
ENDROOT
BRANCH   1   2
ATOM      2  C   UNL     1       6.508   5.286  17.435  0.00  0.00    +0.000 A 
ATOM      3  C   UNL     1       7.471   5.061  18.443  0.00  0.00    +0.000 A 
ATOM      4  C   UNL     1       8.258   6.100  18.955  0.00  0.00    +0.000 A 
ATOM      5  C   UNL     1       8.076   7.389  18.476  0.00  0.00    +0.000 A 
ATOM      6  C   UNL     1       7.203   7.630  17.425  0.00  0.00    +0.000 A 
ATOM      7  C   UNL     1       6.456   6.577  16.885  0.00  0.00    +0.000 A 
BRANCH   5   8
ATOM      8  O   UNL     1       8.735   8.454  19.015  0.00  0.00    +0.000 OA
ATOM      9  H   UNL     1       9.105   8.983  18.289  0.00  0.00    +0.000 HD
ENDBRANCH   5   8
BRANCH   7  10
ATOM     10  O   UNL     1       5.671   6.833  15.798  0.00  0.00    +0.000 OA
ATOM     11  H   UNL     1       6.120   7.492  15.243  0.00  0.00    +0.000 HD
ENDBRANCH   7  10
ENDBRANCH   1   2
BRANCH   1  12
ATOM     12  C   UNL     1       4.265   4.188  17.997  0.00  0.00    +0.000 A 
ATOM     13  C   UNL     1       3.147   4.964  17.628  0.00  0.00    +0.000 A 
ATOM     14  C   UNL     1       1.975   4.984  18.385  0.00  0.00    +0.000 A 
ATOM     15  C   UNL     1       1.898   4.208  19.528  0.00  0.00    +0.000 A 
ATOM     16  C   UNL     1       2.976   3.427  19.926  0.00  0.00    +0.000 A 
ATOM     17  C   UNL     1       4.150   3.418  19.164  0.00  0.00    +0.000 A 
BRANCH  15  18
ATOM     18  O   UNL     1       0.765   4.186  20.289  0.00  0.00    +0.000 OA
ATOM     19  H   UNL     1       0.471   3.267  20.375  0.00  0.00    +0.000 HD
ENDBRANCH  15  18
BRANCH  17  20
ATOM     20  O   UNL     1       5.196   2.623  19.553  0.00  0.00    +0.000 OA
ATOM     21  H   UNL     1       5.473   2.095  18.790  0.00  0.00    +0.000 HD
ENDBRANCH  17  20
ENDBRANCH   1  12
BRANCH   1  22
ATOM     22  C   UNL     1       5.080   3.988  15.631  0.00  0.00    +0.000 C 
BRANCH  22  23
ATOM     23  C   UNL     1       6.151   3.630  14.605  0.00  0.00    +0.000 C 
BRANCH  23  24
ATOM     24  C   UNL     1       5.975   4.253  13.217  0.00  0.00    +0.000 C 
BRANCH  24  26
ATOM     25  C   UNL     1       4.400   3.226  11.502  0.00  0.00    +0.000 C 
ATOM     26  C   UNL     1       5.750   3.137  12.191  0.00  0.00    +0.000 C 
ENDBRANCH  24  26
ENDBRANCH  23  24
ENDBRANCH  22  23
ENDBRANCH   1  22
TORSDOF 10
ENDMDL
MODEL 4
REMARK VINA RESULT:      -7.3      2.860      6.181
REMARK  Name = 
REMARK  11 active torsions:
REMARK  status: ('A' for Active; 'I' for Inactive)
REMARK    1  A    between atoms: C_1  and  C_2
REMARK    2  A    between atoms: C_2  and  C_3
REMARK    3  A    between atoms: C_3  and  C_4
REMARK    4  A    between atoms: C_4  and  C_5
REMARK    5  A    between atoms: C_5  and  C_6
REMARK    6  A    between atoms: C_6  and  C_7
REMARK    7  A    between atoms: C_6  and  C_15
REMARK    8  A    between atoms: C_10  and  O_11
REMARK    9  A    between atoms: C_13  and  O_14
REMARK   10  A    between atoms: C_18  and  O_19
REMARK   11  A    between atoms: C_21  and  O_22
REMARK                            x       y       z     vdW  Elec       q    Type
REMARK                         _______ _______ _______ _____ _____    ______ ____
ROOT
ATOM      1  C   UNL     1       3.060   5.418  18.472  0.00  0.00    +0.000 C 
ENDROOT
BRANCH   1   2
ATOM      2  C   UNL     1       4.416   5.436  17.751  0.00  0.00    +0.000 A 
ATOM      3  C   UNL     1       4.422   5.498  16.340  0.00  0.00    +0.000 A 
ATOM      4  C   UNL     1       5.595   5.304  15.600  0.00  0.00    +0.000 A 
ATOM      5  C   UNL     1       6.779   5.023  16.265  0.00  0.00    +0.000 A 
ATOM      6  C   UNL     1       6.827   5.042  17.651  0.00  0.00    +0.000 A 
ATOM      7  C   UNL     1       5.660   5.287  18.384  0.00  0.00    +0.000 A 
BRANCH   5   8
ATOM      8  O   UNL     1       7.924   4.716  15.591  0.00  0.00    +0.000 OA
ATOM      9  H   UNL     1       8.014   5.334  14.846  0.00  0.00    +0.000 HD
ENDBRANCH   5   8
BRANCH   7  10
ATOM     10  O   UNL     1       5.760   5.384  19.742  0.00  0.00    +0.000 OA
ATOM     11  H   UNL     1       6.442   4.762  20.046  0.00  0.00    +0.000 HD
ENDBRANCH   7  10
ENDBRANCH   1   2
BRANCH   1  12
ATOM     12  C   UNL     1       2.521   6.840  18.746  0.00  0.00    +0.000 A 
ATOM     13  C   UNL     1       2.419   7.780  17.701  0.00  0.00    +0.000 A 
ATOM     14  C   UNL     1       1.894   9.058  17.900  0.00  0.00    +0.000 A 
ATOM     15  C   UNL     1       1.446   9.413  19.160  0.00  0.00    +0.000 A 
ATOM     16  C   UNL     1       1.526   8.516  20.218  0.00  0.00    +0.000 A 
ATOM     17  C   UNL     1       2.060   7.239  20.010  0.00  0.00    +0.000 A 
BRANCH  15  18
ATOM     18  O   UNL     1       0.910  10.646  19.395  0.00  0.00    +0.000 OA
ATOM     19  H   UNL     1       1.612  11.228  19.722  0.00  0.00    +0.000 HD
ENDBRANCH  15  18
BRANCH  17  20
ATOM     20  O   UNL     1       2.109   6.354  21.055  0.00  0.00    +0.000 OA
ATOM     21  H   UNL     1       1.222   6.291  21.439  0.00  0.00    +0.000 HD
ENDBRANCH  17  20
ENDBRANCH   1  12
BRANCH   1  22
ATOM     22  C   UNL     1       1.922   4.570  17.855  0.00  0.00    +0.000 C 
BRANCH  22  23
ATOM     23  C   UNL     1       1.986   3.058  18.044  0.00  0.00    +0.000 C 
BRANCH  23  24
ATOM     24  C   UNL     1       0.883   2.452  18.917  0.00  0.00    +0.000 C 
BRANCH  24  26
ATOM     25  C   UNL     1       1.521   2.727  21.366  0.00  0.00    +0.000 C 
ATOM     26  C   UNL     1       0.737   3.288  20.194  0.00  0.00    +0.000 C 
ENDBRANCH  24  26
ENDBRANCH  23  24
ENDBRANCH  22  23
ENDBRANCH   1  22
TORSDOF 10
ENDMDL
MODEL 5
REMARK VINA RESULT:      -7.3      2.988      6.742
REMARK  Name = 
REMARK  11 active torsions:
REMARK  status: ('A' for Active; 'I' for Inactive)
REMARK    1  A    between atoms: C_1  and  C_2
REMARK    2  A    between atoms: C_2  and  C_3
REMARK    3  A    between atoms: C_3  and  C_4
REMARK    4  A    between atoms: C_4  and  C_5
REMARK    5  A    between atoms: C_5  and  C_6
REMARK    6  A    between atoms: C_6  and  C_7
REMARK    7  A    between atoms: C_6  and  C_15
REMARK    8  A    between atoms: C_10  and  O_11
REMARK    9  A    between atoms: C_13  and  O_14
REMARK   10  A    between atoms: C_18  and  O_19
REMARK   11  A    between atoms: C_21  and  O_22
REMARK                            x       y       z     vdW  Elec       q    Type
REMARK                         _______ _______ _______ _____ _____    ______ ____
ROOT
ATOM      1  C   UNL     1       2.748   5.987  18.068  0.00  0.00    +0.000 C 
ENDROOT
BRANCH   1   2
ATOM      2  C   UNL     1       4.134   5.688  17.475  0.00  0.00    +0.000 A 
ATOM      3  C   UNL     1       5.151   6.654  17.635  0.00  0.00    +0.000 A 
ATOM      4  C   UNL     1       6.369   6.560  16.950  0.00  0.00    +0.000 A 
ATOM      5  C   UNL     1       6.576   5.504  16.075  0.00  0.00    +0.000 A 
ATOM      6  C   UNL     1       5.635   4.492  15.961  0.00  0.00    +0.000 A 
ATOM      7  C   UNL     1       4.442   4.567  16.689  0.00  0.00    +0.000 A 
BRANCH   5   8
ATOM      8  O   UNL     1       7.696   5.425  15.300  0.00  0.00    +0.000 OA
ATOM      9  H   UNL     1       8.372   6.010  15.681  0.00  0.00    +0.000 HD
ENDBRANCH   5   8
BRANCH   7  10
ATOM     10  O   UNL     1       3.576   3.513  16.619  0.00  0.00    +0.000 OA
ATOM     11  H   UNL     1       3.103   3.447  17.465  0.00  0.00    +0.000 HD
ENDBRANCH   7  10
ENDBRANCH   1   2
BRANCH   1  12
ATOM     12  C   UNL     1       2.339   4.964  19.152  0.00  0.00    +0.000 A 
ATOM     13  C   UNL     1       2.811   5.097  20.474  0.00  0.00    +0.000 A 
ATOM     14  C   UNL     1       2.426   4.220  21.490  0.00  0.00    +0.000 A 
ATOM     15  C   UNL     1       1.544   3.196  21.198  0.00  0.00    +0.000 A 
ATOM     16  C   UNL     1       1.054   3.031  19.908  0.00  0.00    +0.000 A 
ATOM     17  C   UNL     1       1.450   3.911  18.894  0.00  0.00    +0.000 A 
BRANCH  15  18
ATOM     18  O   UNL     1       1.129   2.326  22.165  0.00  0.00    +0.000 OA
ATOM     19  H   UNL     1       0.962   2.827  22.977  0.00  0.00    +0.000 HD
ENDBRANCH  15  18
BRANCH  17  20
ATOM     20  O   UNL     1       0.938   3.754  17.633  0.00  0.00    +0.000 OA
ATOM     21  H   UNL     1       1.670   3.810  17.001  0.00  0.00    +0.000 HD
ENDBRANCH  17  20
ENDBRANCH   1  12
BRANCH   1  22
ATOM     22  C   UNL     1       2.484   7.412  18.609  0.00  0.00    +0.000 C 
BRANCH  22  23
ATOM     23  C   UNL     1       1.921   8.444  17.637  0.00  0.00    +0.000 C 
BRANCH  23  24
ATOM     24  C   UNL     1       1.557   9.800  18.248  0.00  0.00    +0.000 C 
BRANCH  24  26
ATOM     25  C   UNL     1      -0.564  10.251  19.581  0.00  0.00    +0.000 C 
ATOM     26  C   UNL     1       0.034   9.974  18.214  0.00  0.00    +0.000 C 
ENDBRANCH  24  26
ENDBRANCH  23  24
ENDBRANCH  22  23
ENDBRANCH   1  22
TORSDOF 10
ENDMDL
MODEL 6
REMARK VINA RESULT:      -7.3      1.121      1.567
REMARK  Name = 
REMARK  11 active torsions:
REMARK  status: ('A' for Active; 'I' for Inactive)
REMARK    1  A    between atoms: C_1  and  C_2
REMARK    2  A    between atoms: C_2  and  C_3
REMARK    3  A    between atoms: C_3  and  C_4
REMARK    4  A    between atoms: C_4  and  C_5
REMARK    5  A    between atoms: C_5  and  C_6
REMARK    6  A    between atoms: C_6  and  C_7
REMARK    7  A    between atoms: C_6  and  C_15
REMARK    8  A    between atoms: C_10  and  O_11
REMARK    9  A    between atoms: C_13  and  O_14
REMARK   10  A    between atoms: C_18  and  O_19
REMARK   11  A    between atoms: C_21  and  O_22
REMARK                            x       y       z     vdW  Elec       q    Type
REMARK                         _______ _______ _______ _____ _____    ______ ____
ROOT
ATOM      1  C   UNL     1       4.498   4.376  16.495  0.00  0.00    +0.000 C 
ENDROOT
BRANCH   1   2
ATOM      2  C   UNL     1       3.412   3.901  17.472  0.00  0.00    +0.000 A 
ATOM      3  C   UNL     1       2.382   4.803  17.816  0.00  0.00    +0.000 A 
ATOM      4  C   UNL     1       1.481   4.532  18.854  0.00  0.00    +0.000 A 
ATOM      5  C   UNL     1       1.613   3.356  19.577  0.00  0.00    +0.000 A 
ATOM      6  C   UNL     1       2.556   2.408  19.208  0.00  0.00    +0.000 A 
ATOM      7  C   UNL     1       3.420   2.665  18.138  0.00  0.00    +0.000 A 
BRANCH   5   8
ATOM      8  O   UNL     1       0.836   3.093  20.666  0.00  0.00    +0.000 OA
ATOM      9  H   UNL     1       0.321   2.289  20.485  0.00  0.00    +0.000 HD
ENDBRANCH   5   8
BRANCH   7  10
ATOM     10  O   UNL     1       4.278   1.676  17.749  0.00  0.00    +0.000 OA
ATOM     11  H   UNL     1       4.362   1.038  18.476  0.00  0.00    +0.000 HD
ENDBRANCH   7  10
ENDBRANCH   1   2
BRANCH   1  12
ATOM     12  C   UNL     1       5.580   5.232  17.190  0.00  0.00    +0.000 A 
ATOM     13  C   UNL     1       6.289   4.726  18.299  0.00  0.00    +0.000 A 
ATOM     14  C   UNL     1       7.305   5.451  18.924  0.00  0.00    +0.000 A 
ATOM     15  C   UNL     1       7.639   6.701  18.435  0.00  0.00    +0.000 A 
ATOM     16  C   UNL     1       6.967   7.236  17.343  0.00  0.00    +0.000 A 
ATOM     17  C   UNL     1       5.945   6.504  16.726  0.00  0.00    +0.000 A 
BRANCH  15  18
ATOM     18  O   UNL     1       8.637   7.437  19.005  0.00  0.00    +0.000 OA
ATOM     19  H   UNL     1       8.811   8.206  18.443  0.00  0.00    +0.000 HD
ENDBRANCH  15  18
BRANCH  17  20
ATOM     20  O   UNL     1       5.308   7.031  15.634  0.00  0.00    +0.000 OA
ATOM     21  H   UNL     1       4.355   6.899  15.747  0.00  0.00    +0.000 HD
ENDBRANCH  17  20
ENDBRANCH   1  12
BRANCH   1  22
ATOM     22  C   UNL     1       5.199   3.311  15.618  0.00  0.00    +0.000 C 
BRANCH  22  23
ATOM     23  C   UNL     1       6.388   3.762  14.774  0.00  0.00    +0.000 C 
BRANCH  23  24
ATOM     24  C   UNL     1       6.041   4.382  13.418  0.00  0.00    +0.000 C 
BRANCH  24  26
ATOM     25  C   UNL     1       4.567   3.249  11.679  0.00  0.00    +0.000 C 
ATOM     26  C   UNL     1       5.917   3.267  12.373  0.00  0.00    +0.000 C 
ENDBRANCH  24  26
ENDBRANCH  23  24
ENDBRANCH  22  23
ENDBRANCH   1  22
TORSDOF 10
ENDMDL
MODEL 7
REMARK VINA RESULT:      -7.2      3.162      5.595
REMARK  Name = 
REMARK  11 active torsions:
REMARK  status: ('A' for Active; 'I' for Inactive)
REMARK    1  A    between atoms: C_1  and  C_2
REMARK    2  A    between atoms: C_2  and  C_3
REMARK    3  A    between atoms: C_3  and  C_4
REMARK    4  A    between atoms: C_4  and  C_5
REMARK    5  A    between atoms: C_5  and  C_6
REMARK    6  A    between atoms: C_6  and  C_7
REMARK    7  A    between atoms: C_6  and  C_15
REMARK    8  A    between atoms: C_10  and  O_11
REMARK    9  A    between atoms: C_13  and  O_14
REMARK   10  A    between atoms: C_18  and  O_19
REMARK   11  A    between atoms: C_21  and  O_22
REMARK                            x       y       z     vdW  Elec       q    Type
REMARK                         _______ _______ _______ _____ _____    ______ ____
ROOT
ATOM      1  C   UNL     1       3.488   6.875  18.275  0.00  0.00    +0.000 C 
ENDROOT
BRANCH   1   2
ATOM      2  C   UNL     1       2.337   7.793  18.713  0.00  0.00    +0.000 A 
ATOM      3  C   UNL     1       1.829   8.721  17.777  0.00  0.00    +0.000 A 
ATOM      4  C   UNL     1       0.936   9.732  18.153  0.00  0.00    +0.000 A 
ATOM      5  C   UNL     1       0.554   9.841  19.482  0.00  0.00    +0.000 A 
ATOM      6  C   UNL     1       0.963   8.895  20.409  0.00  0.00    +0.000 A 
ATOM      7  C   UNL     1       1.815   7.857  20.015  0.00  0.00    +0.000 A 
BRANCH   5   8
ATOM      8  O   UNL     1      -0.223  10.872  19.921  0.00  0.00    +0.000 OA
ATOM      9  H   UNL     1      -0.990  10.949  19.330  0.00  0.00    +0.000 HD
ENDBRANCH   5   8
BRANCH   7  10
ATOM     10  O   UNL     1       2.129   6.896  20.932  0.00  0.00    +0.000 OA
ATOM     11  H   UNL     1       1.996   6.024  20.523  0.00  0.00    +0.000 HD
ENDBRANCH   7  10
ENDBRANCH   1   2
BRANCH   1  12
ATOM     12  C   UNL     1       3.136   5.377  18.428  0.00  0.00    +0.000 A 
ATOM     13  C   UNL     1       2.003   4.840  17.784  0.00  0.00    +0.000 A 
ATOM     14  C   UNL     1       1.679   3.484  17.861  0.00  0.00    +0.000 A 
ATOM     15  C   UNL     1       2.501   2.635  18.579  0.00  0.00    +0.000 A 
ATOM     16  C   UNL     1       3.629   3.124  19.227  0.00  0.00    +0.000 A 
ATOM     17  C   UNL     1       3.943   4.486  19.150  0.00  0.00    +0.000 A 
BRANCH  15  18
ATOM     18  O   UNL     1       2.231   1.300  18.667  0.00  0.00    +0.000 OA
ATOM     19  H   UNL     1       2.977   0.864  19.105  0.00  0.00    +0.000 HD
ENDBRANCH  15  18
BRANCH  17  20
ATOM     20  O   UNL     1       5.072   4.951  19.771  0.00  0.00    +0.000 OA
ATOM     21  H   UNL     1       5.459   5.643  19.215  0.00  0.00    +0.000 HD
ENDBRANCH  17  20
ENDBRANCH   1  12
BRANCH   1  22
ATOM     22  C   UNL     1       4.098   7.097  16.871  0.00  0.00    +0.000 C 
BRANCH  22  23
ATOM     23  C   UNL     1       5.448   6.451  16.577  0.00  0.00    +0.000 C 
BRANCH  23  24
ATOM     24  C   UNL     1       5.438   5.348  15.515  0.00  0.00    +0.000 C 
BRANCH  24  26
ATOM     25  C   UNL     1       7.285   4.583  17.091  0.00  0.00    +0.000 C 
ATOM     26  C   UNL     1       6.319   4.186  15.988  0.00  0.00    +0.000 C 
ENDBRANCH  24  26
ENDBRANCH  23  24
ENDBRANCH  22  23
ENDBRANCH   1  22
TORSDOF 10
ENDMDL
MODEL 8
REMARK VINA RESULT:      -7.2      1.528      5.487
REMARK  Name = 
REMARK  11 active torsions:
REMARK  status: ('A' for Active; 'I' for Inactive)
REMARK    1  A    between atoms: C_1  and  C_2
REMARK    2  A    between atoms: C_2  and  C_3
REMARK    3  A    between atoms: C_3  and  C_4
REMARK    4  A    between atoms: C_4  and  C_5
REMARK    5  A    between atoms: C_5  and  C_6
REMARK    6  A    between atoms: C_6  and  C_7
REMARK    7  A    between atoms: C_6  and  C_15
REMARK    8  A    between atoms: C_10  and  O_11
REMARK    9  A    between atoms: C_13  and  O_14
REMARK   10  A    between atoms: C_18  and  O_19
REMARK   11  A    between atoms: C_21  and  O_22
REMARK                            x       y       z     vdW  Elec       q    Type
REMARK                         _______ _______ _______ _____ _____    ______ ____
ROOT
ATOM      1  C   UNL     1       5.129   3.870  16.751  0.00  0.00    +0.000 C 
ENDROOT
BRANCH   1   2
ATOM      2  C   UNL     1       5.927   4.969  17.470  0.00  0.00    +0.000 A 
ATOM      3  C   UNL     1       6.380   6.070  16.712  0.00  0.00    +0.000 A 
ATOM      4  C   UNL     1       7.288   7.000  17.234  0.00  0.00    +0.000 A 
ATOM      5  C   UNL     1       7.773   6.826  18.522  0.00  0.00    +0.000 A 
ATOM      6  C   UNL     1       7.282   5.807  19.325  0.00  0.00    +0.000 A 
ATOM      7  C   UNL     1       6.337   4.912  18.812  0.00  0.00    +0.000 A 
BRANCH   5   8
ATOM      8  O   UNL     1       8.740   7.636  19.039  0.00  0.00    +0.000 OA
ATOM      9  H   UNL     1       9.605   7.296  18.756  0.00  0.00    +0.000 HD
ENDBRANCH   5   8
BRANCH   7  10
ATOM     10  O   UNL     1       5.812   3.974  19.654  0.00  0.00    +0.000 OA
ATOM     11  H   UNL     1       6.338   3.160  19.574  0.00  0.00    +0.000 HD
ENDBRANCH   7  10
ENDBRANCH   1   2
BRANCH   1  12
ATOM     12  C   UNL     1       3.768   3.594  17.428  0.00  0.00    +0.000 A 
ATOM     13  C   UNL     1       2.815   4.623  17.565  0.00  0.00    +0.000 A 
ATOM     14  C   UNL     1       1.557   4.401  18.128  0.00  0.00    +0.000 A 
ATOM     15  C   UNL     1       1.227   3.128  18.556  0.00  0.00    +0.000 A 
ATOM     16  C   UNL     1       2.136   2.084  18.438  0.00  0.00    +0.000 A 
ATOM     17  C   UNL     1       3.397   2.318  17.877  0.00  0.00    +0.000 A 
BRANCH  15  18
ATOM     18  O   UNL     1       0.002   2.862  19.098  0.00  0.00    +0.000 OA
ATOM     19  H   UNL     1       0.067   2.950  20.060  0.00  0.00    +0.000 HD
ENDBRANCH  15  18
BRANCH  17  20
ATOM     20  O   UNL     1       4.275   1.274  17.742  0.00  0.00    +0.000 OA
ATOM     21  H   UNL     1       4.464   1.159  16.798  0.00  0.00    +0.000 HD
ENDBRANCH  17  20
ENDBRANCH   1  12
BRANCH   1  22
ATOM     22  C   UNL     1       4.901   4.019  15.228  0.00  0.00    +0.000 C 
BRANCH  22  23
ATOM     23  C   UNL     1       6.103   3.817  14.310  0.00  0.00    +0.000 C 
BRANCH  23  24
ATOM     24  C   UNL     1       5.777   3.575  12.834  0.00  0.00    +0.000 C 
BRANCH  24  26
ATOM     25  C   UNL     1       7.747   5.161  12.552  0.00  0.00    +0.000 C 
ATOM     26  C   UNL     1       6.983   3.981  11.980  0.00  0.00    +0.000 C 
ENDBRANCH  24  26
ENDBRANCH  23  24
ENDBRANCH  22  23
ENDBRANCH   1  22
TORSDOF 10
ENDMDL
MODEL 9
REMARK VINA RESULT:      -7.2      3.713      6.510
REMARK  Name = 
REMARK  11 active torsions:
REMARK  status: ('A' for Active; 'I' for Inactive)
REMARK    1  A    between atoms: C_1  and  C_2
REMARK    2  A    between atoms: C_2  and  C_3
REMARK    3  A    between atoms: C_3  and  C_4
REMARK    4  A    between atoms: C_4  and  C_5
REMARK    5  A    between atoms: C_5  and  C_6
REMARK    6  A    between atoms: C_6  and  C_7
REMARK    7  A    between atoms: C_6  and  C_15
REMARK    8  A    between atoms: C_10  and  O_11
REMARK    9  A    between atoms: C_13  and  O_14
REMARK   10  A    between atoms: C_18  and  O_19
REMARK   11  A    between atoms: C_21  and  O_22
REMARK                            x       y       z     vdW  Elec       q    Type
REMARK                         _______ _______ _______ _____ _____    ______ ____
ROOT
ATOM      1  C   UNL     1       3.202   6.477  19.199  0.00  0.00    +0.000 C 
ENDROOT
BRANCH   1   2
ATOM      2  C   UNL     1       2.293   7.713  19.119  0.00  0.00    +0.000 A 
ATOM      3  C   UNL     1       2.184   8.383  17.880  0.00  0.00    +0.000 A 
ATOM      4  C   UNL     1       1.555   9.629  17.770  0.00  0.00    +0.000 A 
ATOM      5  C   UNL     1       1.043  10.234  18.909  0.00  0.00    +0.000 A 
ATOM      6  C   UNL     1       1.054   9.566  20.124  0.00  0.00    +0.000 A 
ATOM      7  C   UNL     1       1.640   8.299  20.215  0.00  0.00    +0.000 A 
BRANCH   5   8
ATOM      8  O   UNL     1       0.521  11.494  18.877  0.00  0.00    +0.000 OA
ATOM      9  H   UNL     1       0.286  11.748  19.785  0.00  0.00    +0.000 HD
ENDBRANCH   5   8
BRANCH   7  10
ATOM     10  O   UNL     1       1.559   7.634  21.406  0.00  0.00    +0.000 OA
ATOM     11  H   UNL     1       0.733   7.122  21.416  0.00  0.00    +0.000 HD
ENDBRANCH   7  10
ENDBRANCH   1   2
BRANCH   1  12
ATOM     12  C   UNL     1       2.408   5.156  19.093  0.00  0.00    +0.000 A 
ATOM     13  C   UNL     1       2.061   4.629  17.832  0.00  0.00    +0.000 A 
ATOM     14  C   UNL     1       1.385   3.416  17.695  0.00  0.00    +0.000 A 
ATOM     15  C   UNL     1       1.055   2.697  18.829  0.00  0.00    +0.000 A 
ATOM     16  C   UNL     1       1.380   3.179  20.091  0.00  0.00    +0.000 A 
ATOM     17  C   UNL     1       2.052   4.401  20.220  0.00  0.00    +0.000 A 
BRANCH  15  18
ATOM     18  O   UNL     1       0.408   1.498  18.741  0.00  0.00    +0.000 OA
ATOM     19  H   UNL     1      -0.038   1.453  17.882  0.00  0.00    +0.000 HD
ENDBRANCH  15  18
BRANCH  17  20
ATOM     20  O   UNL     1       2.391   4.852  21.468  0.00  0.00    +0.000 OA
ATOM     21  H   UNL     1       1.780   4.457  22.108  0.00  0.00    +0.000 HD
ENDBRANCH  17  20
ENDBRANCH   1  12
BRANCH   1  22
ATOM     22  C   UNL     1       4.412   6.404  18.238  0.00  0.00    +0.000 C 
BRANCH  22  23
ATOM     23  C   UNL     1       5.594   5.533  18.654  0.00  0.00    +0.000 C 
BRANCH  23  24
ATOM     24  C   UNL     1       6.919   5.833  17.948  0.00  0.00    +0.000 C 
BRANCH  24  26
ATOM     25  C   UNL     1       7.890   8.176  17.739  0.00  0.00    +0.000 C 
ATOM     26  C   UNL     1       6.826   7.202  17.265  0.00  0.00    +0.000 C 
ENDBRANCH  24  26
ENDBRANCH  23  24
ENDBRANCH  22  23
ENDBRANCH   1  22
TORSDOF 10
ENDMDL
