MODEL 1
REMARK VINA RESULT:      -8.8      0.000      0.000
REMARK  Name = 
REMARK  5 active torsions:
REMARK  status: ('A' for Active; 'I' for Inactive)
REMARK    1  A    between atoms: C_1  and  C_2
REMARK    2  A    between atoms: C_2  and  C_3
REMARK    3  A    between atoms: C_2  and  N_13
REMARK    4  A    between atoms: N_5  and  C_6
REMARK    5  A    between atoms: C_26  and  C_27
REMARK                            x       y       z     vdW  Elec       q    Type
REMARK                         _______ _______ _______ _____ _____    ______ ____
ROOT
ATOM      1  N   UNL     1       6.633   6.088  17.138  0.00  0.00    +0.000 NA
ATOM      2  C   UNL     1       5.529   6.893  16.585  0.00  0.00    +0.000 C 
ATOM      3  C   UNL     1       4.234   6.954  17.412  0.00  0.00    +0.000 C 
ATOM      4  C   UNL     1       3.766   5.628  18.036  0.00  0.00    +0.000 C 
ATOM      5  C   UNL     1       4.959   4.719  18.423  0.00  0.00    +0.000 C 
ATOM      6  C   UNL     1       4.440   3.301  18.708  0.00  0.00    +0.000 C 
ATOM      7  C   UNL     1       3.438   3.350  19.862  0.00  0.00    +0.000 C 
ATOM      8  C   UNL     1       2.342   4.392  19.650  0.00  0.00    +0.000 C 
ATOM      9  N   UNL     1       2.921   5.707  19.271  0.00  0.00    +0.000 N 
ATOM     10  C   UNL     1       2.209   6.835  19.687  0.00  0.00    +0.000 A 
ATOM     11  C   UNL     1       1.697   6.893  20.976  0.00  0.00    +0.000 A 
ATOM     12  C   UNL     1       0.989   8.003  21.358  0.00  0.00    +0.000 A 
ATOM     13  N   UNL     1       0.825   9.071  20.567  0.00  0.00    +0.000 NA
ATOM     14  C   UNL     1       1.393   8.999  19.344  0.00  0.00    +0.000 A 
ATOM     15  N   UNL     1       2.051   7.894  18.878  0.00  0.00    +0.000 NA
ATOM     16  C   UNL     1       6.080   4.733  17.377  0.00  0.00    +0.000 C 
ENDROOT
BRANCH  14  17
ATOM     17  C   UNL     1       1.296  10.237  18.443  0.00  0.00    +0.000 C 
ATOM     18  F   UNL     1       1.486  11.420  19.108  0.00  0.00    +0.000 F 
ATOM     19  F   UNL     1       2.217  10.248  17.429  0.00  0.00    +0.000 F 
ATOM     20  F   UNL     1       0.079  10.366  17.832  0.00  0.00    +0.000 F 
ENDBRANCH  14  17
BRANCH   1  22
ATOM     21  C   UNL     1       8.323   5.753  18.982  0.00  0.00    +0.000 C 
ATOM     22  C   UNL     1       7.261   6.679  18.369  0.00  0.00    +0.000 C 
BRANCH  22  23
ATOM     23  C   UNL     1       7.945   8.042  18.137  0.00  0.00    +0.000 C 
ATOM     24  O   UNL     1       7.836   8.606  17.037  0.00  0.00    +0.000 OA
ATOM     25  N   UNL     1       8.618   8.591  19.218  0.00  0.00    +0.000 N 
ATOM     26  H   UNL     1       9.008   7.899  19.848  0.00  0.00    +0.000 HD
BRANCH  25  27
ATOM     27  C   UNL     1       9.245   9.856  19.121  0.00  0.00    +0.000 A 
ATOM     28  C   UNL     1       9.626  10.396  17.882  0.00  0.00    +0.000 A 
ATOM     29  C   UNL     1      10.280  11.631  17.818  0.00  0.00    +0.000 A 
ATOM     30  C   UNL     1      10.576  12.317  18.994  0.00  0.00    +0.000 A 
ATOM     31 CL   UNL     1      11.401  13.826  18.925  0.00  0.00    +0.000 Cl
ATOM     32  C   UNL     1      10.206  11.783  20.229  0.00  0.00    +0.000 A 
ATOM     33  C   UNL     1       9.514  10.567  20.289  0.00  0.00    +0.000 A 
ENDBRANCH  25  27
ENDBRANCH  22  23
ENDBRANCH   1  22
TORSDOF 4
ENDMDL
MODEL 2
REMARK VINA RESULT:      -8.7      0.551      1.105
REMARK  Name = 
REMARK  5 active torsions:
REMARK  status: ('A' for Active; 'I' for Inactive)
REMARK    1  A    between atoms: C_1  and  C_2
REMARK    2  A    between atoms: C_2  and  C_3
REMARK    3  A    between atoms: C_2  and  N_13
REMARK    4  A    between atoms: N_5  and  C_6
REMARK    5  A    between atoms: C_26  and  C_27
REMARK                            x       y       z     vdW  Elec       q    Type
REMARK                         _______ _______ _______ _____ _____    ______ ____
ROOT
ATOM      1  N   UNL     1       6.486   5.894  17.133  0.00  0.00    +0.000 NA
ATOM      2  C   UNL     1       5.370   6.672  16.567  0.00  0.00    +0.000 C 
ATOM      3  C   UNL     1       4.107   6.806  17.436  0.00  0.00    +0.000 C 
ATOM      4  C   UNL     1       3.650   5.532  18.167  0.00  0.00    +0.000 C 
ATOM      5  C   UNL     1       4.848   4.637  18.571  0.00  0.00    +0.000 C 
ATOM      6  C   UNL     1       4.327   3.249  18.973  0.00  0.00    +0.000 C 
ATOM      7  C   UNL     1       3.370   3.390  20.157  0.00  0.00    +0.000 C 
ATOM      8  C   UNL     1       2.277   4.427  19.915  0.00  0.00    +0.000 C 
ATOM      9  N   UNL     1       2.854   5.706  19.424  0.00  0.00    +0.000 N 
ATOM     10  C   UNL     1       2.169   6.868  19.787  0.00  0.00    +0.000 A 
ATOM     11  C   UNL     1       1.707   7.022  21.087  0.00  0.00    +0.000 A 
ATOM     12  C   UNL     1       1.024   8.164  21.417  0.00  0.00    +0.000 A 
ATOM     13  N   UNL     1       0.841   9.177  20.561  0.00  0.00    +0.000 NA
ATOM     14  C   UNL     1       1.361   9.014  19.325  0.00  0.00    +0.000 A 
ATOM     15  N   UNL     1       1.990   7.871  18.913  0.00  0.00    +0.000 NA
ATOM     16  C   UNL     1       5.929   4.565  17.486  0.00  0.00    +0.000 C 
ENDROOT
BRANCH  14  17
ATOM     17  C   UNL     1       1.243  10.188  18.345  0.00  0.00    +0.000 C 
ATOM     18  F   UNL     1       0.071  10.197  17.635  0.00  0.00    +0.000 F 
ATOM     19  F   UNL     1       1.299  11.414  18.951  0.00  0.00    +0.000 F 
ATOM     20  F   UNL     1       2.230  10.202  17.399  0.00  0.00    +0.000 F 
ENDBRANCH  14  17
BRANCH   1  22
ATOM     21  C   UNL     1       8.187   5.637  18.981  0.00  0.00    +0.000 C 
ATOM     22  C   UNL     1       7.166   6.560  18.297  0.00  0.00    +0.000 C 
BRANCH  22  23
ATOM     23  C   UNL     1       7.918   7.856  17.930  0.00  0.00    +0.000 C 
ATOM     24  O   UNL     1       8.183   8.099  16.742  0.00  0.00    +0.000 OA
ATOM     25  N   UNL     1       8.218   8.716  18.976  0.00  0.00    +0.000 N 
ATOM     26  H   UNL     1       8.368   8.245  19.860  0.00  0.00    +0.000 HD
BRANCH  25  27
ATOM     27  C   UNL     1       8.871   9.950  18.740  0.00  0.00    +0.000 A 
ATOM     28  C   UNL     1      10.073  10.282  19.385  0.00  0.00    +0.000 A 
ATOM     29  C   UNL     1      10.676  11.525  19.164  0.00  0.00    +0.000 A 
ATOM     30  C   UNL     1      10.066  12.447  18.316  0.00  0.00    +0.000 A 
ATOM     31 CL   UNL     1      10.790  13.986  18.056  0.00  0.00    +0.000 Cl
ATOM     32  C   UNL     1       8.869  12.126  17.677  0.00  0.00    +0.000 A 
ATOM     33  C   UNL     1       8.288  10.865  17.866  0.00  0.00    +0.000 A 
ENDBRANCH  25  27
ENDBRANCH  22  23
ENDBRANCH   1  22
TORSDOF 4
ENDMDL
MODEL 3
REMARK VINA RESULT:      -8.0      4.948      8.527
REMARK  Name = 
REMARK  5 active torsions:
REMARK  status: ('A' for Active; 'I' for Inactive)
REMARK    1  A    between atoms: C_1  and  C_2
REMARK    2  A    between atoms: C_2  and  C_3
REMARK    3  A    between atoms: C_2  and  N_13
REMARK    4  A    between atoms: N_5  and  C_6
REMARK    5  A    between atoms: C_26  and  C_27
REMARK                            x       y       z     vdW  Elec       q    Type
REMARK                         _______ _______ _______ _____ _____    ______ ____
ROOT
ATOM      1  N   UNL     1       0.289   9.816  19.310  0.00  0.00    +0.000 NA
ATOM      2  C   UNL     1       0.782  10.831  18.361  0.00  0.00    +0.000 C 
ATOM      3  C   UNL     1       1.304  12.147  18.964  0.00  0.00    +0.000 C 
ATOM      4  C   UNL     1       0.472  12.742  20.112  0.00  0.00    +0.000 C 
ATOM      5  C   UNL     1      -0.198  11.641  20.971  0.00  0.00    +0.000 C 
ATOM      6  C   UNL     1      -1.271  12.282  21.864  0.00  0.00    +0.000 C 
ATOM      7  C   UNL     1      -0.618  13.319  22.779  0.00  0.00    +0.000 C 
ATOM      8  C   UNL     1       0.247  14.319  22.016  0.00  0.00    +0.000 C 
ATOM      9  N   UNL     1       1.183  13.623  21.094  0.00  0.00    +0.000 N 
ATOM     10  C   UNL     1       2.406  14.257  20.866  0.00  0.00    +0.000 A 
ATOM     11  C   UNL     1       3.108  14.810  21.929  0.00  0.00    +0.000 A 
ATOM     12  C   UNL     1       4.299  15.440  21.680  0.00  0.00    +0.000 A 
ATOM     13  N   UNL     1       4.858  15.489  20.464  0.00  0.00    +0.000 NA
ATOM     14  C   UNL     1       4.174  14.884  19.469  0.00  0.00    +0.000 A 
ATOM     15  N   UNL     1       2.949  14.300  19.639  0.00  0.00    +0.000 NA
ATOM     16  C   UNL     1      -0.751  10.485  20.130  0.00  0.00    +0.000 C 
ENDROOT
BRANCH  14  17
ATOM     17  C   UNL     1       4.825  14.847  18.081  0.00  0.00    +0.000 C 
ATOM     18  F   UNL     1       5.983  15.575  17.995  0.00  0.00    +0.000 F 
ATOM     19  F   UNL     1       5.166  13.586  17.670  0.00  0.00    +0.000 F 
ATOM     20  F   UNL     1       4.019  15.347  17.095  0.00  0.00    +0.000 F 
ENDBRANCH  14  17
BRANCH   1  22
ATOM     21  C   UNL     1       0.912   8.943  21.595  0.00  0.00    +0.000 C 
ATOM     22  C   UNL     1       1.367   9.189  20.148  0.00  0.00    +0.000 C 
BRANCH  22  23
ATOM     23  C   UNL     1       1.877   7.835  19.610  0.00  0.00    +0.000 C 
ATOM     24  O   UNL     1       2.291   7.753  18.443  0.00  0.00    +0.000 OA
ATOM     25  N   UNL     1       1.886   6.776  20.505  0.00  0.00    +0.000 N 
ATOM     26  H   UNL     1       1.158   6.830  21.206  0.00  0.00    +0.000 HD
BRANCH  25  27
ATOM     27  C   UNL     1       2.372   5.503  20.122  0.00  0.00    +0.000 A 
ATOM     28  C   UNL     1       3.704   5.312  19.724  0.00  0.00    +0.000 A 
ATOM     29  C   UNL     1       4.148   4.050  19.312  0.00  0.00    +0.000 A 
ATOM     30  C   UNL     1       3.254   2.983  19.276  0.00  0.00    +0.000 A 
ATOM     31 CL   UNL     1       3.785   1.433  18.750  0.00  0.00    +0.000 Cl
ATOM     32  C   UNL     1       1.927   3.166  19.664  0.00  0.00    +0.000 A 
ATOM     33  C   UNL     1       1.494   4.420  20.116  0.00  0.00    +0.000 A 
ENDBRANCH  25  27
ENDBRANCH  22  23
ENDBRANCH   1  22
TORSDOF 4
ENDMDL
MODEL 4
REMARK VINA RESULT:      -7.9      7.652     10.871
REMARK  Name = 
REMARK  5 active torsions:
REMARK  status: ('A' for Active; 'I' for Inactive)
REMARK    1  A    between atoms: C_1  and  C_2
REMARK    2  A    between atoms: C_2  and  C_3
REMARK    3  A    between atoms: C_2  and  N_13
REMARK    4  A    between atoms: N_5  and  C_6
REMARK    5  A    between atoms: C_26  and  C_27
REMARK                            x       y       z     vdW  Elec       q    Type
REMARK                         _______ _______ _______ _____ _____    ______ ____
ROOT
ATOM      1  N   UNL     1      -3.919  15.321  21.863  0.00  0.00    +0.000 NA
ATOM      2  C   UNL     1      -3.131  14.076  21.900  0.00  0.00    +0.000 C 
ATOM      3  C   UNL     1      -3.392  13.058  20.776  0.00  0.00    +0.000 C 
ATOM      4  C   UNL     1      -4.865  12.835  20.392  0.00  0.00    +0.000 C 
ATOM      5  C   UNL     1      -5.706  14.124  20.560  0.00  0.00    +0.000 C 
ATOM      6  C   UNL     1      -7.199  13.763  20.502  0.00  0.00    +0.000 C 
ATOM      7  C   UNL     1      -7.512  13.118  19.151  0.00  0.00    +0.000 C 
ATOM      8  C   UNL     1      -6.571  11.965  18.814  0.00  0.00    +0.000 C 
ATOM      9  N   UNL     1      -5.151  12.362  19.000  0.00  0.00    +0.000 N 
ATOM     10  C   UNL     1      -4.225  11.747  18.154  0.00  0.00    +0.000 A 
ATOM     11  C   UNL     1      -4.507  11.610  16.801  0.00  0.00    +0.000 A 
ATOM     12  C   UNL     1      -3.591  10.990  15.992  0.00  0.00    +0.000 A 
ATOM     13  N   UNL     1      -2.397  10.571  16.431  0.00  0.00    +0.000 NA
ATOM     14  C   UNL     1      -2.136  10.781  17.739  0.00  0.00    +0.000 A 
ATOM     15  N   UNL     1      -3.035  11.329  18.613  0.00  0.00    +0.000 NA
ATOM     16  C   UNL     1      -5.344  14.912  21.825  0.00  0.00    +0.000 C 
ENDROOT
BRANCH  14  17
ATOM     17  C   UNL     1      -0.746  10.389  18.257  0.00  0.00    +0.000 C 
ATOM     18  F   UNL     1       0.125  11.442  18.351  0.00  0.00    +0.000 F 
ATOM     19  F   UNL     1      -0.767   9.832  19.508  0.00  0.00    +0.000 F 
ATOM     20  F   UNL     1      -0.112   9.475  17.461  0.00  0.00    +0.000 F 
ENDBRANCH  14  17
BRANCH   1  22
ATOM     21  C   UNL     1      -4.118  17.657  20.926  0.00  0.00    +0.000 C 
ATOM     22  C   UNL     1      -3.554  16.241  20.731  0.00  0.00    +0.000 C 
BRANCH  22  23
ATOM     23  C   UNL     1      -2.034  16.397  20.510  0.00  0.00    +0.000 C 
ATOM     24  O   UNL     1      -1.331  16.897  21.402  0.00  0.00    +0.000 OA
ATOM     25  N   UNL     1      -1.528  15.911  19.314  0.00  0.00    +0.000 N 
ATOM     26  H   UNL     1      -2.186  15.958  18.546  0.00  0.00    +0.000 HD
BRANCH  25  27
ATOM     27  C   UNL     1      -0.142  15.971  19.032  0.00  0.00    +0.000 A 
ATOM     28  C   UNL     1       0.453  17.127  18.503  0.00  0.00    +0.000 A 
ATOM     29  C   UNL     1       1.818  17.144  18.196  0.00  0.00    +0.000 A 
ATOM     30  C   UNL     1       2.585  15.999  18.395  0.00  0.00    +0.000 A 
ATOM     31 CL   UNL     1       4.259  16.005  17.999  0.00  0.00    +0.000 Cl
ATOM     32  C   UNL     1       1.999  14.844  18.915  0.00  0.00    +0.000 A 
ATOM     33  C   UNL     1       0.641  14.841  19.261  0.00  0.00    +0.000 A 
ENDBRANCH  25  27
ENDBRANCH  22  23
ENDBRANCH   1  22
TORSDOF 4
ENDMDL
MODEL 5
REMARK VINA RESULT:      -7.9      4.906      8.463
REMARK  Name = 
REMARK  5 active torsions:
REMARK  status: ('A' for Active; 'I' for Inactive)
REMARK    1  A    between atoms: C_1  and  C_2
REMARK    2  A    between atoms: C_2  and  C_3
REMARK    3  A    between atoms: C_2  and  N_13
REMARK    4  A    between atoms: N_5  and  C_6
REMARK    5  A    between atoms: C_26  and  C_27
REMARK                            x       y       z     vdW  Elec       q    Type
REMARK                         _______ _______ _______ _____ _____    ______ ____
ROOT
ATOM      1  N   UNL     1       0.377   9.678  19.514  0.00  0.00    +0.000 NA
ATOM      2  C   UNL     1       0.852  10.658  18.520  0.00  0.00    +0.000 C 
ATOM      3  C   UNL     1       1.300  12.028  19.057  0.00  0.00    +0.000 C 
ATOM      4  C   UNL     1       0.413  12.651  20.149  0.00  0.00    +0.000 C 
ATOM      5  C   UNL     1      -0.232  11.572  21.054  0.00  0.00    +0.000 C 
ATOM      6  C   UNL     1      -1.356  12.214  21.882  0.00  0.00    +0.000 C 
ATOM      7  C   UNL     1      -0.772  13.330  22.749  0.00  0.00    +0.000 C 
ATOM      8  C   UNL     1       0.069  14.322  21.951  0.00  0.00    +0.000 C 
ATOM      9  N   UNL     1       1.058  13.617  21.094  0.00  0.00    +0.000 N 
ATOM     10  C   UNL     1       2.259  14.291  20.859  0.00  0.00    +0.000 A 
ATOM     11  C   UNL     1       2.908  14.935  21.905  0.00  0.00    +0.000 A 
ATOM     12  C   UNL     1       4.077  15.602  21.648  0.00  0.00    +0.000 A 
ATOM     13  N   UNL     1       4.665  15.606  20.446  0.00  0.00    +0.000 NA
ATOM     14  C   UNL     1       4.035  14.915  19.472  0.00  0.00    +0.000 A 
ATOM     15  N   UNL     1       2.831  14.288  19.645  0.00  0.00    +0.000 NA
ATOM     16  C   UNL     1      -0.712  10.346  20.268  0.00  0.00    +0.000 C 
ENDROOT
BRANCH  14  17
ATOM     17  C   UNL     1       4.723  14.828  18.103  0.00  0.00    +0.000 C 
ATOM     18  F   UNL     1       3.981  15.355  17.079  0.00  0.00    +0.000 F 
ATOM     19  F   UNL     1       5.921  15.490  18.051  0.00  0.00    +0.000 F 
ATOM     20  F   UNL     1       4.998  13.545  17.718  0.00  0.00    +0.000 F 
ENDBRANCH  14  17
BRANCH   1  22
ATOM     21  C   UNL     1       1.123   9.337  21.901  0.00  0.00    +0.000 C 
ATOM     22  C   UNL     1       1.459   9.149  20.413  0.00  0.00    +0.000 C 
BRANCH  22  23
ATOM     23  C   UNL     1       1.765   7.649  20.216  0.00  0.00    +0.000 C 
ATOM     24  O   UNL     1       1.340   6.821  21.037  0.00  0.00    +0.000 OA
ATOM     25  N   UNL     1       2.475   7.305  19.075  0.00  0.00    +0.000 N 
ATOM     26  H   UNL     1       3.115   8.026  18.763  0.00  0.00    +0.000 HD
BRANCH  25  27
ATOM     27  C   UNL     1       2.773   5.953  18.782  0.00  0.00    +0.000 A 
ATOM     28  C   UNL     1       1.939   5.177  17.962  0.00  0.00    +0.000 A 
ATOM     29  C   UNL     1       2.236   3.831  17.721  0.00  0.00    +0.000 A 
ATOM     30  C   UNL     1       3.354   3.253  18.318  0.00  0.00    +0.000 A 
ATOM     31 CL   UNL     1       3.714   1.593  18.045  0.00  0.00    +0.000 Cl
ATOM     32  C   UNL     1       4.183   4.017  19.139  0.00  0.00    +0.000 A 
ATOM     33  C   UNL     1       3.909   5.375  19.346  0.00  0.00    +0.000 A 
ENDBRANCH  25  27
ENDBRANCH  22  23
ENDBRANCH   1  22
TORSDOF 4
ENDMDL
MODEL 6
REMARK VINA RESULT:      -7.8      4.919      8.491
REMARK  Name = 
REMARK  5 active torsions:
REMARK  status: ('A' for Active; 'I' for Inactive)
REMARK    1  A    between atoms: C_1  and  C_2
REMARK    2  A    between atoms: C_2  and  C_3
REMARK    3  A    between atoms: C_2  and  N_13
REMARK    4  A    between atoms: N_5  and  C_6
REMARK    5  A    between atoms: C_26  and  C_27
REMARK                            x       y       z     vdW  Elec       q    Type
REMARK                         _______ _______ _______ _____ _____    ______ ____
ROOT
ATOM      1  N   UNL     1       0.447   9.647  19.445  0.00  0.00    +0.000 NA
ATOM      2  C   UNL     1       0.931  10.627  18.456  0.00  0.00    +0.000 C 
ATOM      3  C   UNL     1       1.362  12.001  18.996  0.00  0.00    +0.000 C 
ATOM      4  C   UNL     1       0.454  12.622  20.072  0.00  0.00    +0.000 C 
ATOM      5  C   UNL     1      -0.198  11.541  20.970  0.00  0.00    +0.000 C 
ATOM      6  C   UNL     1      -1.339  12.178  21.778  0.00  0.00    +0.000 C 
ATOM      7  C   UNL     1      -0.776  13.300  22.652  0.00  0.00    +0.000 C 
ATOM      8  C   UNL     1       0.071  14.296  21.863  0.00  0.00    +0.000 C 
ATOM      9  N   UNL     1       1.078  13.594  21.025  0.00  0.00    +0.000 N 
ATOM     10  C   UNL     1       2.278  14.276  20.806  0.00  0.00    +0.000 A 
ATOM     11  C   UNL     1       2.906  14.926  21.860  0.00  0.00    +0.000 A 
ATOM     12  C   UNL     1       4.075  15.600  21.620  0.00  0.00    +0.000 A 
ATOM     13  N   UNL     1       4.682  15.604  20.427  0.00  0.00    +0.000 NA
ATOM     14  C   UNL     1       4.072  14.906  19.445  0.00  0.00    +0.000 A 
ATOM     15  N   UNL     1       2.870  14.272  19.602  0.00  0.00    +0.000 NA
ATOM     16  C   UNL     1      -0.657  10.309  20.180  0.00  0.00    +0.000 C 
ENDROOT
BRANCH  14  17
ATOM     17  C   UNL     1       4.782  14.820  18.088  0.00  0.00    +0.000 C 
ATOM     18  F   UNL     1       5.099  13.542  17.712  0.00  0.00    +0.000 F 
ATOM     19  F   UNL     1       4.042  15.323  17.052  0.00  0.00    +0.000 F 
ATOM     20  F   UNL     1       5.967  15.503  18.055  0.00  0.00    +0.000 F 
ENDBRANCH  14  17
BRANCH   1  22
ATOM     21  C   UNL     1       1.191   9.381  21.843  0.00  0.00    +0.000 C 
ATOM     22  C   UNL     1       1.518   9.127  20.363  0.00  0.00    +0.000 C 
BRANCH  22  23
ATOM     23  C   UNL     1       1.788   7.614  20.224  0.00  0.00    +0.000 C 
ATOM     24  O   UNL     1       1.293   6.823  21.043  0.00  0.00    +0.000 OA
ATOM     25  N   UNL     1       2.548   7.216  19.135  0.00  0.00    +0.000 N 
ATOM     26  H   UNL     1       3.226   7.908  18.838  0.00  0.00    +0.000 HD
BRANCH  25  27
ATOM     27  C   UNL     1       2.818   5.847  18.895  0.00  0.00    +0.000 A 
ATOM     28  C   UNL     1       3.897   5.192  19.508  0.00  0.00    +0.000 A 
ATOM     29  C   UNL     1       4.165   3.848  19.223  0.00  0.00    +0.000 A 
ATOM     30  C   UNL     1       3.370   3.166  18.306  0.00  0.00    +0.000 A 
ATOM     31 CL   UNL     1       3.706   1.520  17.932  0.00  0.00    +0.000 Cl
ATOM     32  C   UNL     1       2.300   3.813  17.688  0.00  0.00    +0.000 A 
ATOM     33  C   UNL     1       2.006   5.145  18.006  0.00  0.00    +0.000 A 
ENDBRANCH  25  27
ENDBRANCH  22  23
ENDBRANCH   1  22
TORSDOF 4
ENDMDL
MODEL 7
REMARK VINA RESULT:      -7.8      6.218     10.239
REMARK  Name = 
REMARK  5 active torsions:
REMARK  status: ('A' for Active; 'I' for Inactive)
REMARK    1  A    between atoms: C_1  and  C_2
REMARK    2  A    between atoms: C_2  and  C_3
REMARK    3  A    between atoms: C_2  and  N_13
REMARK    4  A    between atoms: N_5  and  C_6
REMARK    5  A    between atoms: C_26  and  C_27
REMARK                            x       y       z     vdW  Elec       q    Type
REMARK                         _______ _______ _______ _____ _____    ______ ____
ROOT
ATOM      1  N   UNL     1      -1.874  12.622  20.864  0.00  0.00    +0.000 NA
ATOM      2  C   UNL     1      -1.375  13.267  19.636  0.00  0.00    +0.000 C 
ATOM      3  C   UNL     1      -0.695  14.638  19.801  0.00  0.00    +0.000 C 
ATOM      4  C   UNL     1      -1.375  15.619  20.770  0.00  0.00    +0.000 C 
ATOM      5  C   UNL     1      -2.064  14.885  21.947  0.00  0.00    +0.000 C 
ATOM      6  C   UNL     1      -3.002  15.862  22.672  0.00  0.00    +0.000 C 
ATOM      7  C   UNL     1      -2.189  17.041  23.208  0.00  0.00    +0.000 C 
ATOM      8  C   UNL     1      -1.307  17.686  22.142  0.00  0.00    +0.000 C 
ATOM      9  N   UNL     1      -0.514  16.662  21.413  0.00  0.00    +0.000 N 
ATOM     10  C   UNL     1       0.736  17.073  20.945  0.00  0.00    +0.000 A 
ATOM     11  C   UNL     1       1.568  17.827  21.761  0.00  0.00    +0.000 A 
ATOM     12  C   UNL     1       2.784  18.231  21.275  0.00  0.00    +0.000 A 
ATOM     13  N   UNL     1       3.243  17.874  20.070  0.00  0.00    +0.000 NA
ATOM     14  C   UNL     1       2.430  17.086  19.332  0.00  0.00    +0.000 A 
ATOM     15  N   UNL     1       1.178  16.707  19.730  0.00  0.00    +0.000 NA
ATOM     16  C   UNL     1      -2.781  13.602  21.509  0.00  0.00    +0.000 C 
ENDROOT
BRANCH  14  17
ATOM     17  C   UNL     1       2.959  16.589  17.981  0.00  0.00    +0.000 C 
ATOM     18  F   UNL     1       4.326  16.572  17.895  0.00  0.00    +0.000 F 
ATOM     19  F   UNL     1       2.569  15.311  17.679  0.00  0.00    +0.000 F 
ATOM     20  F   UNL     1       2.547  17.356  16.926  0.00  0.00    +0.000 F 
ENDBRANCH  14  17
BRANCH   1  22
ATOM     21  C   UNL     1      -1.335  11.286  22.936  0.00  0.00    +0.000 C 
ATOM     22  C   UNL     1      -0.787  12.148  21.788  0.00  0.00    +0.000 C 
BRANCH  22  23
ATOM     23  C   UNL     1       0.312  11.315  21.096  0.00  0.00    +0.000 C 
ATOM     24  O   UNL     1       1.500  11.660  21.196  0.00  0.00    +0.000 OA
ATOM     25  N   UNL     1      -0.104  10.174  20.426  0.00  0.00    +0.000 N 
ATOM     26  H   UNL     1      -1.039  10.245  20.044  0.00  0.00    +0.000 HD
BRANCH  25  27
ATOM     27  C   UNL     1       0.831   9.320  19.793  0.00  0.00    +0.000 A 
ATOM     28  C   UNL     1       1.237   9.530  18.466  0.00  0.00    +0.000 A 
ATOM     29  C   UNL     1       2.132   8.646  17.851  0.00  0.00    +0.000 A 
ATOM     30  C   UNL     1       2.603   7.540  18.554  0.00  0.00    +0.000 A 
ATOM     31 CL   UNL     1       3.686   6.437  17.798  0.00  0.00    +0.000 Cl
ATOM     32  C   UNL     1       2.198   7.323  19.871  0.00  0.00    +0.000 A 
ATOM     33  C   UNL     1       1.336   8.230  20.500  0.00  0.00    +0.000 A 
ENDBRANCH  25  27
ENDBRANCH  22  23
ENDBRANCH   1  22
TORSDOF 4
ENDMDL
MODEL 8
REMARK VINA RESULT:      -7.8      4.772      8.296
REMARK  Name = 
REMARK  5 active torsions:
REMARK  status: ('A' for Active; 'I' for Inactive)
REMARK    1  A    between atoms: C_1  and  C_2
REMARK    2  A    between atoms: C_2  and  C_3
REMARK    3  A    between atoms: C_2  and  N_13
REMARK    4  A    between atoms: N_5  and  C_6
REMARK    5  A    between atoms: C_26  and  C_27
REMARK                            x       y       z     vdW  Elec       q    Type
REMARK                         _______ _______ _______ _____ _____    ______ ____
ROOT
ATOM      1  N   UNL     1      -0.215  10.227  18.977  0.00  0.00    +0.000 NA
ATOM      2  C   UNL     1      -0.069  11.451  18.169  0.00  0.00    +0.000 C 
ATOM      3  C   UNL     1       0.322  12.735  18.921  0.00  0.00    +0.000 C 
ATOM      4  C   UNL     1      -0.387  12.975  20.265  0.00  0.00    +0.000 C 
ATOM      5  C   UNL     1      -0.706  11.647  20.995  0.00  0.00    +0.000 C 
ATOM      6  C   UNL     1      -1.701  11.923  22.133  0.00  0.00    +0.000 C 
ATOM      7  C   UNL     1      -1.081  12.914  23.118  0.00  0.00    +0.000 C 
ATOM      8  C   UNL     1      -0.540  14.168  22.436  0.00  0.00    +0.000 C 
ATOM      9  N   UNL     1       0.325  13.816  21.280  0.00  0.00    +0.000 N 
ATOM     10  C   UNL     1       1.367  14.703  21.000  0.00  0.00    +0.000 A 
ATOM     11  C   UNL     1       2.140  15.212  22.036  0.00  0.00    +0.000 A 
ATOM     12  C   UNL     1       3.148  16.091  21.739  0.00  0.00    +0.000 A 
ATOM     13  N   UNL     1       3.473  16.433  20.486  0.00  0.00    +0.000 NA
ATOM     14  C   UNL     1       2.738  15.866  19.505  0.00  0.00    +0.000 A 
ATOM     15  N   UNL     1       1.675  15.037  19.737  0.00  0.00    +0.000 NA
ATOM     16  C   UNL     1      -1.194  10.548  20.044  0.00  0.00    +0.000 C 
ENDROOT
BRANCH  14  17
ATOM     17  C   UNL     1       3.136  16.170  18.055  0.00  0.00    +0.000 C 
ATOM     18  F   UNL     1       3.205  15.058  17.257  0.00  0.00    +0.000 F 
ATOM     19  F   UNL     1       2.266  17.012  17.415  0.00  0.00    +0.000 F 
ATOM     20  F   UNL     1       4.364  16.761  17.945  0.00  0.00    +0.000 F 
ENDBRANCH  14  17
BRANCH   1  22
ATOM     21  C   UNL     1       0.881   8.892  20.817  0.00  0.00    +0.000 C 
ATOM     22  C   UNL     1       1.081   9.700  19.525  0.00  0.00    +0.000 C 
BRANCH  22  23
ATOM     23  C   UNL     1       1.855   8.788  18.550  0.00  0.00    +0.000 C 
ATOM     24  O   UNL     1       2.109   9.189  17.403  0.00  0.00    +0.000 OA
ATOM     25  N   UNL     1       2.271   7.562  19.045  0.00  0.00    +0.000 N 
ATOM     26  H   UNL     1       1.660   7.182  19.758  0.00  0.00    +0.000 HD
BRANCH  25  27
ATOM     27  C   UNL     1       3.022   6.669  18.243  0.00  0.00    +0.000 A 
ATOM     28  C   UNL     1       2.698   5.306  18.157  0.00  0.00    +0.000 A 
ATOM     29  C   UNL     1       3.481   4.438  17.389  0.00  0.00    +0.000 A 
ATOM     30  C   UNL     1       4.604   4.927  16.724  0.00  0.00    +0.000 A 
ATOM     31 CL   UNL     1       5.585   3.862  15.795  0.00  0.00    +0.000 Cl
ATOM     32  C   UNL     1       4.935   6.279  16.810  0.00  0.00    +0.000 A 
ATOM     33  C   UNL     1       4.126   7.155  17.546  0.00  0.00    +0.000 A 
ENDBRANCH  25  27
ENDBRANCH  22  23
ENDBRANCH   1  22
TORSDOF 4
ENDMDL
MODEL 9
REMARK VINA RESULT:      -7.7      6.158     10.491
REMARK  Name = 
REMARK  5 active torsions:
REMARK  status: ('A' for Active; 'I' for Inactive)
REMARK    1  A    between atoms: C_1  and  C_2
REMARK    2  A    between atoms: C_2  and  C_3
REMARK    3  A    between atoms: C_2  and  N_13
REMARK    4  A    between atoms: N_5  and  C_6
REMARK    5  A    between atoms: C_26  and  C_27
REMARK                            x       y       z     vdW  Elec       q    Type
REMARK                         _______ _______ _______ _____ _____    ______ ____
ROOT
ATOM      1  N   UNL     1       3.905  15.680  18.887  0.00  0.00    +0.000 NA
ATOM      2  C   UNL     1       4.983  15.225  17.991  0.00  0.00    +0.000 C 
ATOM      3  C   UNL     1       6.332  14.884  18.647  0.00  0.00    +0.000 C 
ATOM      4  C   UNL     1       6.818  15.851  19.739  0.00  0.00    +0.000 C 
ATOM      5  C   UNL     1       5.639  16.466  20.532  0.00  0.00    +0.000 C 
ATOM      6  C   UNL     1       6.151  17.660  21.353  0.00  0.00    +0.000 C 
ATOM      7  C   UNL     1       7.229  17.181  22.326  0.00  0.00    +0.000 C 
ATOM      8  C   UNL     1       8.326  16.370  21.641  0.00  0.00    +0.000 C 
ATOM      9  N   UNL     1       7.745  15.305  20.781  0.00  0.00    +0.000 N 
ATOM     10  C   UNL     1       8.503  14.139  20.652  0.00  0.00    +0.000 A 
ATOM     11  C   UNL     1       9.102  13.574  21.770  0.00  0.00    +0.000 A 
ATOM     12  C   UNL     1       9.852  12.438  21.617  0.00  0.00    +0.000 A 
ATOM     13  N   UNL     1       9.981  11.802  20.446  0.00  0.00    +0.000 NA
ATOM     14  C   UNL     1       9.331  12.348  19.396  0.00  0.00    +0.000 A 
ATOM     15  N   UNL     1       8.624  13.517  19.468  0.00  0.00    +0.000 NA
ATOM     16  C   UNL     1       4.450  16.838  19.638  0.00  0.00    +0.000 C 
ENDROOT
BRANCH  14  17
ATOM     17  C   UNL     1       9.388  11.600  18.058  0.00  0.00    +0.000 C 
ATOM     18  F   UNL     1      10.587  11.725  17.407  0.00  0.00    +0.000 F 
ATOM     19  F   UNL     1       9.188  10.250  18.178  0.00  0.00    +0.000 F 
ATOM     20  F   UNL     1       8.451  12.029  17.160  0.00  0.00    +0.000 F 
ENDBRANCH  14  17
BRANCH   1  22
ATOM     21  C   UNL     1       2.645  15.186  21.018  0.00  0.00    +0.000 C 
ATOM     22  C   UNL     1       3.372  14.607  19.794  0.00  0.00    +0.000 C 
BRANCH  22  23
ATOM     23  C   UNL     1       2.383  13.638  19.112  0.00  0.00    +0.000 C 
ATOM     24  O   UNL     1       2.696  13.090  18.043  0.00  0.00    +0.000 OA
ATOM     25  N   UNL     1       1.191  13.396  19.778  0.00  0.00    +0.000 N 
ATOM     26  H   UNL     1       0.872  14.179  20.336  0.00  0.00    +0.000 HD
BRANCH  25  27
ATOM     27  C   UNL     1       0.234  12.493  19.256  0.00  0.00    +0.000 A 
ATOM     28  C   UNL     1      -0.699  12.889  18.286  0.00  0.00    +0.000 A 
ATOM     29  C   UNL     1      -1.659  11.986  17.816  0.00  0.00    +0.000 A 
ATOM     30  C   UNL     1      -1.703  10.694  18.334  0.00  0.00    +0.000 A 
ATOM     31 CL   UNL     1      -2.895   9.584  17.779  0.00  0.00    +0.000 Cl
ATOM     32  C   UNL     1      -0.783  10.295  19.304  0.00  0.00    +0.000 A 
ATOM     33  C   UNL     1       0.205  11.187  19.742  0.00  0.00    +0.000 A 
ENDBRANCH  25  27
ENDBRANCH  22  23
ENDBRANCH   1  22
TORSDOF 4
ENDMDL
