MODEL 1
REMARK VINA RESULT:      -6.3      0.000      0.000
REMARK  Name = 
REMARK  9 active torsions:
REMARK  status: ('A' for Active; 'I' for Inactive)
REMARK    1  A    between atoms: C_1  and  C_2
REMARK    2  A    between atoms: C_2  and  C_3
REMARK    3  A    between atoms: C_3  and  C_4
REMARK    4  A    between atoms: C_4  and  N_5
REMARK    5  A    between atoms: N_5  and  C_6
REMARK    6  A    between atoms: C_6  and  C_7
REMARK    7  A    between atoms: C_21  and  C_22
REMARK    8  A    between atoms: C_29  and  C_31
REMARK    9  A    between atoms: C_31  and  C_32
REMARK                            x       y       z     vdW  Elec       q    Type
REMARK                         _______ _______ _______ _____ _____    ______ ____
ROOT
ATOM      1  C   UNL     1      -3.409  13.643  20.429  0.00  0.00    +0.000 C 
ATOM      2  O   UNL     1      -2.583  14.544  20.572  0.00  0.00    +0.000 OA
ATOM      3  N   UNL     1      -4.795  13.842  20.507  0.00  0.00    +0.000 N 
ATOM      4  C   UNL     1      -5.659  12.915  19.848  0.00  0.00    +0.000 A 
ATOM      5  C   UNL     1      -5.422  12.562  18.518  0.00  0.00    +0.000 A 
ATOM      6  C   UNL     1      -5.968  11.392  17.995  0.00  0.00    +0.000 A 
ATOM      7  C   UNL     1      -6.803  10.606  18.785  0.00  0.00    +0.000 A 
ATOM      8  C   UNL     1      -7.151  11.025  20.073  0.00  0.00    +0.000 A 
ATOM      9  C   UNL     1      -6.589  12.194  20.596  0.00  0.00    +0.000 A 
ATOM     10  N   UNL     1      -6.852  12.645  21.901  0.00  0.00    +0.000 N 
ATOM     11  C   UNL     1      -7.614  12.046  22.873  0.00  0.00    +0.000 A 
ATOM     12  C   UNL     1      -7.628  12.856  23.985  0.00  0.00    +0.000 A 
ATOM     13  C   UNL     1      -6.849  13.995  23.680  0.00  0.00    +0.000 A 
ATOM     14  C   UNL     1      -6.342  13.817  22.403  0.00  0.00    +0.000 A 
ATOM     15  C   UNL     1      -5.422  14.690  21.561  0.00  0.00    +0.000 C 
ENDROOT
BRANCH  15  16
ATOM     16  C   UNL     1      -4.504  15.523  22.462  0.00  0.00    +0.000 A 
ATOM     17  C   UNL     1      -4.260  16.885  22.196  0.00  0.00    +0.000 A 
ATOM     18  C   UNL     1      -3.355  17.622  22.965  0.00  0.00    +0.000 A 
ATOM     19  C   UNL     1      -2.662  17.001  23.998  0.00  0.00    +0.000 A 
ATOM     20 CL   UNL     1      -1.527  17.901  24.928  0.00  0.00    +0.000 Cl
ATOM     21  C   UNL     1      -2.870  15.650  24.273  0.00  0.00    +0.000 A 
ATOM     22  C   UNL     1      -3.788  14.915  23.511  0.00  0.00    +0.000 A 
ENDBRANCH  15  16
BRANCH   1  23
ATOM     23  C   UNL     1      -2.937  12.149  20.262  0.00  0.00    +0.000 C 
BRANCH  23  24
ATOM     24  N   UNL     1      -1.604  11.600  19.898  0.00  0.00    +0.000 N 
ATOM     25  C   UNL     1      -0.775  10.985  20.858  0.00  0.00    +0.000 C 
ATOM     26  O   UNL     1       0.260  10.400  20.519  0.00  0.00    +0.000 OA
BRANCH  25  27
ATOM     27  C   UNL     1      -1.157  11.068  22.349  0.00  0.00    +0.000 C 
ATOM     28  C   UNL     1      -0.419  10.032  23.188  0.00  0.00    +0.000 C 
ATOM     29 CL   UNL     1      -0.748  12.707  22.935  0.00  0.00    +0.000 Cl
ENDBRANCH  25  27
BRANCH  24  30
ATOM     30  C   UNL     1      -1.109  11.532  18.510  0.00  0.00    +0.000 C 
BRANCH  30  31
ATOM     31  C   UNL     1      -1.739  10.470  17.631  0.00  0.00    +0.000 C 
BRANCH  31  33
ATOM     32  C   UNL     1      -3.038   9.847  15.621  0.00  0.00    +0.000 C 
ATOM     33  C   UNL     1      -2.523  11.019  16.446  0.00  0.00    +0.000 C 
ENDBRANCH  31  33
ENDBRANCH  30  31
ENDBRANCH  24  30
ENDBRANCH  23  24
ENDBRANCH   1  23
TORSDOF 7
ENDMDL
MODEL 2
REMARK VINA RESULT:      -6.3      2.357      5.515
REMARK  Name = 
REMARK  9 active torsions:
REMARK  status: ('A' for Active; 'I' for Inactive)
REMARK    1  A    between atoms: C_1  and  C_2
REMARK    2  A    between atoms: C_2  and  C_3
REMARK    3  A    between atoms: C_3  and  C_4
REMARK    4  A    between atoms: C_4  and  N_5
REMARK    5  A    between atoms: N_5  and  C_6
REMARK    6  A    between atoms: C_6  and  C_7
REMARK    7  A    between atoms: C_21  and  C_22
REMARK    8  A    between atoms: C_29  and  C_31
REMARK    9  A    between atoms: C_31  and  C_32
REMARK                            x       y       z     vdW  Elec       q    Type
REMARK                         _______ _______ _______ _____ _____    ______ ____
ROOT
ATOM      1  C   UNL     1      -4.128  13.477  20.480  0.00  0.00    +0.000 C 
ATOM      2  O   UNL     1      -3.516  12.565  19.928  0.00  0.00    +0.000 OA
ATOM      3  N   UNL     1      -3.502  14.579  21.082  0.00  0.00    +0.000 N 
ATOM      4  C   UNL     1      -4.242  15.791  21.231  0.00  0.00    +0.000 A 
ATOM      5  C   UNL     1      -4.938  16.324  20.145  0.00  0.00    +0.000 A 
ATOM      6  C   UNL     1      -5.970  17.237  20.352  0.00  0.00    +0.000 A 
ATOM      7  C   UNL     1      -6.266  17.663  21.645  0.00  0.00    +0.000 A 
ATOM      8  C   UNL     1      -5.485  17.235  22.722  0.00  0.00    +0.000 A 
ATOM      9  C   UNL     1      -4.458  16.310  22.508  0.00  0.00    +0.000 A 
ATOM     10  N   UNL     1      -3.669  15.796  23.552  0.00  0.00    +0.000 N 
ATOM     11  C   UNL     1      -3.774  16.039  24.899  0.00  0.00    +0.000 A 
ATOM     12  C   UNL     1      -2.771  15.356  25.550  0.00  0.00    +0.000 A 
ATOM     13  C   UNL     1      -2.025  14.673  24.564  0.00  0.00    +0.000 A 
ATOM     14  C   UNL     1      -2.629  14.924  23.342  0.00  0.00    +0.000 A 
ATOM     15  C   UNL     1      -2.290  14.438  21.939  0.00  0.00    +0.000 C 
ENDROOT
BRANCH  15  16
ATOM     16  C   UNL     1      -1.599  13.071  22.000  0.00  0.00    +0.000 A 
ATOM     17  C   UNL     1      -1.991  12.097  22.939  0.00  0.00    +0.000 A 
ATOM     18  C   UNL     1      -1.304  10.886  23.055  0.00  0.00    +0.000 A 
ATOM     19  C   UNL     1      -0.199  10.640  22.248  0.00  0.00    +0.000 A 
ATOM     20 CL   UNL     1       0.665   9.159  22.409  0.00  0.00    +0.000 Cl
ATOM     21  C   UNL     1       0.223  11.593  21.323  0.00  0.00    +0.000 A 
ATOM     22  C   UNL     1      -0.474  12.802  21.198  0.00  0.00    +0.000 A 
ENDBRANCH  15  16
BRANCH   1  23
ATOM     23  C   UNL     1      -5.693  13.398  20.651  0.00  0.00    +0.000 C 
BRANCH  23  24
ATOM     24  N   UNL     1      -6.542  12.321  21.225  0.00  0.00    +0.000 N 
ATOM     25  C   UNL     1      -6.873  12.298  22.595  0.00  0.00    +0.000 C 
ATOM     26  O   UNL     1      -7.699  11.487  23.032  0.00  0.00    +0.000 OA
BRANCH  25  27
ATOM     27  C   UNL     1      -6.177  13.280  23.556  0.00  0.00    +0.000 C 
ATOM     28  C   UNL     1      -7.176  14.165  24.292  0.00  0.00    +0.000 C 
ATOM     29 CL   UNL     1      -5.242  12.326  24.744  0.00  0.00    +0.000 Cl
ENDBRANCH  25  27
BRANCH  24  30
ATOM     30  C   UNL     1      -7.203  11.288  20.404  0.00  0.00    +0.000 C 
BRANCH  30  31
ATOM     31  C   UNL     1      -6.477  10.881  19.139  0.00  0.00    +0.000 C 
BRANCH  31  33
ATOM     32  C   UNL     1      -5.591  12.071  17.160  0.00  0.00    +0.000 C 
ATOM     33  C   UNL     1      -6.863  11.687  17.905  0.00  0.00    +0.000 C 
ENDBRANCH  31  33
ENDBRANCH  30  31
ENDBRANCH  24  30
ENDBRANCH  23  24
ENDBRANCH   1  23
TORSDOF 7
ENDMDL
MODEL 3
REMARK VINA RESULT:      -6.2      3.686      7.306
REMARK  Name = 
REMARK  9 active torsions:
REMARK  status: ('A' for Active; 'I' for Inactive)
REMARK    1  A    between atoms: C_1  and  C_2
REMARK    2  A    between atoms: C_2  and  C_3
REMARK    3  A    between atoms: C_3  and  C_4
REMARK    4  A    between atoms: C_4  and  N_5
REMARK    5  A    between atoms: N_5  and  C_6
REMARK    6  A    between atoms: C_6  and  C_7
REMARK    7  A    between atoms: C_21  and  C_22
REMARK    8  A    between atoms: C_29  and  C_31
REMARK    9  A    between atoms: C_31  and  C_32
REMARK                            x       y       z     vdW  Elec       q    Type
REMARK                         _______ _______ _______ _____ _____    ______ ____
ROOT
ATOM      1  C   UNL     1       0.825  12.288  21.008  0.00  0.00    +0.000 C 
ATOM      2  O   UNL     1       1.883  11.672  21.123  0.00  0.00    +0.000 OA
ATOM      3  N   UNL     1      -0.435  11.673  20.999  0.00  0.00    +0.000 N 
ATOM      4  C   UNL     1      -1.578  12.443  21.372  0.00  0.00    +0.000 A 
ATOM      5  C   UNL     1      -1.558  13.202  22.544  0.00  0.00    +0.000 A 
ATOM      6  C   UNL     1      -2.458  14.252  22.716  0.00  0.00    +0.000 A 
ATOM      7  C   UNL     1      -3.417  14.506  21.739  0.00  0.00    +0.000 A 
ATOM      8  C   UNL     1      -3.527  13.667  20.627  0.00  0.00    +0.000 A 
ATOM      9  C   UNL     1      -2.614  12.621  20.455  0.00  0.00    +0.000 A 
ATOM     10  N   UNL     1      -2.632  11.773  19.335  0.00  0.00    +0.000 N 
ATOM     11  C   UNL     1      -3.454  11.828  18.237  0.00  0.00    +0.000 A 
ATOM     12  C   UNL     1      -3.147  10.777  17.402  0.00  0.00    +0.000 A 
ATOM     13  C   UNL     1      -2.100  10.052  18.014  0.00  0.00    +0.000 A 
ATOM     14  C   UNL     1      -1.769  10.716  19.184  0.00  0.00    +0.000 A 
ATOM     15  C   UNL     1      -0.706  10.422  20.235  0.00  0.00    +0.000 C 
ENDROOT
BRANCH  15  16
ATOM     16  C   UNL     1       0.480   9.686  19.602  0.00  0.00    +0.000 A 
ATOM     17  C   UNL     1       0.961  10.038  18.326  0.00  0.00    +0.000 A 
ATOM     18  C   UNL     1       1.984   9.311  17.711  0.00  0.00    +0.000 A 
ATOM     19  C   UNL     1       2.526   8.205  18.355  0.00  0.00    +0.000 A 
ATOM     20 CL   UNL     1       3.767   7.292  17.587  0.00  0.00    +0.000 Cl
ATOM     21  C   UNL     1       2.058   7.821  19.611  0.00  0.00    +0.000 A 
ATOM     22  C   UNL     1       1.041   8.559  20.233  0.00  0.00    +0.000 A 
ENDBRANCH  15  16
BRANCH   1  23
ATOM     23  C   UNL     1       0.833  13.841  20.740  0.00  0.00    +0.000 C 
BRANCH  23  24
ATOM     24  N   UNL     1       0.912  14.592  19.458  0.00  0.00    +0.000 N 
ATOM     25  C   UNL     1       0.354  15.879  19.325  0.00  0.00    +0.000 C 
ATOM     26  O   UNL     1       0.555  16.554  18.308  0.00  0.00    +0.000 OA
BRANCH  25  27
ATOM     27  C   UNL     1      -0.535  16.437  20.453  0.00  0.00    +0.000 C 
ATOM     28  C   UNL     1       0.179  17.507  21.270  0.00  0.00    +0.000 C 
ATOM     29 CL   UNL     1      -2.002  17.138  19.708  0.00  0.00    +0.000 Cl
ENDBRANCH  25  27
BRANCH  24  30
ATOM     30  C   UNL     1       1.680  14.120  18.290  0.00  0.00    +0.000 C 
BRANCH  30  31
ATOM     31  C   UNL     1       3.188  14.165  18.425  0.00  0.00    +0.000 C 
BRANCH  31  33
ATOM     32  C   UNL     1       4.102  16.458  18.593  0.00  0.00    +0.000 C 
ATOM     33  C   UNL     1       3.856  15.291  17.645  0.00  0.00    +0.000 C 
ENDBRANCH  31  33
ENDBRANCH  30  31
ENDBRANCH  24  30
ENDBRANCH  23  24
ENDBRANCH   1  23
TORSDOF 7
ENDMDL
MODEL 4
REMARK VINA RESULT:      -6.1      3.725      7.237
REMARK  Name = 
REMARK  9 active torsions:
REMARK  status: ('A' for Active; 'I' for Inactive)
REMARK    1  A    between atoms: C_1  and  C_2
REMARK    2  A    between atoms: C_2  and  C_3
REMARK    3  A    between atoms: C_3  and  C_4
REMARK    4  A    between atoms: C_4  and  N_5
REMARK    5  A    between atoms: N_5  and  C_6
REMARK    6  A    between atoms: C_6  and  C_7
REMARK    7  A    between atoms: C_21  and  C_22
REMARK    8  A    between atoms: C_29  and  C_31
REMARK    9  A    between atoms: C_31  and  C_32
REMARK                            x       y       z     vdW  Elec       q    Type
REMARK                         _______ _______ _______ _____ _____    ______ ____
ROOT
ATOM      1  C   UNL     1       0.791  12.084  21.162  0.00  0.00    +0.000 C 
ATOM      2  O   UNL     1       1.833  11.442  21.281  0.00  0.00    +0.000 OA
ATOM      3  N   UNL     1      -0.477  11.493  21.049  0.00  0.00    +0.000 N 
ATOM      4  C   UNL     1      -1.625  12.255  21.424  0.00  0.00    +0.000 A 
ATOM      5  C   UNL     1      -1.651  12.926  22.648  0.00  0.00    +0.000 A 
ATOM      6  C   UNL     1      -2.542  13.977  22.854  0.00  0.00    +0.000 A 
ATOM      7  C   UNL     1      -3.450  14.317  21.855  0.00  0.00    +0.000 A 
ATOM      8  C   UNL     1      -3.519  13.563  20.680  0.00  0.00    +0.000 A 
ATOM      9  C   UNL     1      -2.614  12.517  20.475  0.00  0.00    +0.000 A 
ATOM     10  N   UNL     1      -2.590  11.752  19.296  0.00  0.00    +0.000 N 
ATOM     11  C   UNL     1      -3.358  11.901  18.168  0.00  0.00    +0.000 A 
ATOM     12  C   UNL     1      -3.027  10.908  17.274  0.00  0.00    +0.000 A 
ATOM     13  C   UNL     1      -2.020  10.123  17.879  0.00  0.00    +0.000 A 
ATOM     14  C   UNL     1      -1.736  10.694  19.109  0.00  0.00    +0.000 A 
ATOM     15  C   UNL     1      -0.729  10.306  20.184  0.00  0.00    +0.000 C 
ENDROOT
BRANCH  15  16
ATOM     16  C   UNL     1       0.476   9.597  19.555  0.00  0.00    +0.000 A 
ATOM     17  C   UNL     1       0.965   9.973  18.288  0.00  0.00    +0.000 A 
ATOM     18  C   UNL     1       2.006   9.270  17.675  0.00  0.00    +0.000 A 
ATOM     19  C   UNL     1       2.559   8.164  18.311  0.00  0.00    +0.000 A 
ATOM     20 CL   UNL     1       3.823   7.282  17.545  0.00  0.00    +0.000 Cl
ATOM     21  C   UNL     1       2.084   7.758  19.557  0.00  0.00    +0.000 A 
ATOM     22  C   UNL     1       1.049   8.471  20.177  0.00  0.00    +0.000 A 
ENDBRANCH  15  16
BRANCH   1  23
ATOM     23  C   UNL     1       0.833  13.652  21.008  0.00  0.00    +0.000 C 
BRANCH  23  24
ATOM     24  N   UNL     1       0.967  14.493  19.789  0.00  0.00    +0.000 N 
ATOM     25  C   UNL     1       2.229  14.910  19.319  0.00  0.00    +0.000 C 
ATOM     26  O   UNL     1       2.340  15.478  18.226  0.00  0.00    +0.000 OA
BRANCH  25  27
ATOM     27  C   UNL     1       3.475  14.675  20.193  0.00  0.00    +0.000 C 
ATOM     28  C   UNL     1       4.768  14.855  19.407  0.00  0.00    +0.000 C 
ATOM     29 CL   UNL     1       3.434  15.845  21.545  0.00  0.00    +0.000 Cl
ENDBRANCH  25  27
BRANCH  24  30
ATOM     30  C   UNL     1      -0.171  14.836  18.914  0.00  0.00    +0.000 C 
BRANCH  30  31
ATOM     31  C   UNL     1      -1.067  15.956  19.399  0.00  0.00    +0.000 C 
BRANCH  31  33
ATOM     32  C   UNL     1      -0.542  17.573  17.602  0.00  0.00    +0.000 C 
ATOM     33  C   UNL     1      -0.537  17.355  19.109  0.00  0.00    +0.000 C 
ENDBRANCH  31  33
ENDBRANCH  30  31
ENDBRANCH  24  30
ENDBRANCH  23  24
ENDBRANCH   1  23
TORSDOF 7
ENDMDL
MODEL 5
REMARK VINA RESULT:      -5.9      2.307      5.630
REMARK  Name = 
REMARK  9 active torsions:
REMARK  status: ('A' for Active; 'I' for Inactive)
REMARK    1  A    between atoms: C_1  and  C_2
REMARK    2  A    between atoms: C_2  and  C_3
REMARK    3  A    between atoms: C_3  and  C_4
REMARK    4  A    between atoms: C_4  and  N_5
REMARK    5  A    between atoms: N_5  and  C_6
REMARK    6  A    between atoms: C_6  and  C_7
REMARK    7  A    between atoms: C_21  and  C_22
REMARK    8  A    between atoms: C_29  and  C_31
REMARK    9  A    between atoms: C_31  and  C_32
REMARK                            x       y       z     vdW  Elec       q    Type
REMARK                         _______ _______ _______ _____ _____    ______ ____
ROOT
ATOM      1  C   UNL     1      -3.508  13.668  20.507  0.00  0.00    +0.000 C 
ATOM      2  O   UNL     1      -2.906  12.748  19.956  0.00  0.00    +0.000 OA
ATOM      3  N   UNL     1      -2.869  14.732  21.160  0.00  0.00    +0.000 N 
ATOM      4  C   UNL     1      -3.572  15.966  21.310  0.00  0.00    +0.000 A 
ATOM      5  C   UNL     1      -4.206  16.549  20.211  0.00  0.00    +0.000 A 
ATOM      6  C   UNL     1      -5.213  17.493  20.401  0.00  0.00    +0.000 A 
ATOM      7  C   UNL     1      -5.544  17.898  21.692  0.00  0.00    +0.000 A 
ATOM      8  C   UNL     1      -4.821  17.418  22.787  0.00  0.00    +0.000 A 
ATOM      9  C   UNL     1      -3.820  16.462  22.590  0.00  0.00    +0.000 A 
ATOM     10  N   UNL     1      -3.090  15.896  23.650  0.00  0.00    +0.000 N 
ATOM     11  C   UNL     1      -3.239  16.111  24.998  0.00  0.00    +0.000 A 
ATOM     12  C   UNL     1      -2.287  15.378  25.670  0.00  0.00    +0.000 A 
ATOM     13  C   UNL     1      -1.526  14.693  24.696  0.00  0.00    +0.000 A 
ATOM     14  C   UNL     1      -2.074  14.993  23.459  0.00  0.00    +0.000 A 
ATOM     15  C   UNL     1      -1.697  14.529  22.059  0.00  0.00    +0.000 C 
ENDROOT
BRANCH  15  16
ATOM     16  C   UNL     1      -1.056  13.137  22.112  0.00  0.00    +0.000 A 
ATOM     17  C   UNL     1       0.012  12.792  21.262  0.00  0.00    +0.000 A 
ATOM     18  C   UNL     1       0.537  11.497  21.247  0.00  0.00    +0.000 A 
ATOM     19  C   UNL     1      -0.014  10.520  22.069  0.00  0.00    +0.000 A 
ATOM     20 CL   UNL     1       0.615   8.918  22.033  0.00  0.00    +0.000 Cl
ATOM     21  C   UNL     1      -1.083  10.828  22.908  0.00  0.00    +0.000 A 
ATOM     22  C   UNL     1      -1.601  12.130  22.932  0.00  0.00    +0.000 A 
ENDBRANCH  15  16
BRANCH   1  23
ATOM     23  C   UNL     1      -5.080  13.640  20.615  0.00  0.00    +0.000 C 
BRANCH  23  24
ATOM     24  N   UNL     1      -5.989  12.571  21.107  0.00  0.00    +0.000 N 
ATOM     25  C   UNL     1      -6.433  12.543  22.445  0.00  0.00    +0.000 C 
ATOM     26  O   UNL     1      -7.304  11.741  22.805  0.00  0.00    +0.000 OA
BRANCH  25  27
ATOM     27  C   UNL     1      -5.807  13.508  23.469  0.00  0.00    +0.000 C 
ATOM     28  C   UNL     1      -6.862  14.333  24.198  0.00  0.00    +0.000 C 
ATOM     29 CL   UNL     1      -4.888  12.537  24.655  0.00  0.00    +0.000 Cl
ENDBRANCH  25  27
BRANCH  24  30
ATOM     30  C   UNL     1      -6.593  11.554  20.226  0.00  0.00    +0.000 C 
BRANCH  30  31
ATOM     31  C   UNL     1      -7.445  12.082  19.090  0.00  0.00    +0.000 C 
BRANCH  31  33
ATOM     32  C   UNL     1      -5.501  11.180  17.856  0.00  0.00    +0.000 C 
ATOM     33  C   UNL     1      -6.817  11.932  17.710  0.00  0.00    +0.000 C 
ENDBRANCH  31  33
ENDBRANCH  30  31
ENDBRANCH  24  30
ENDBRANCH  23  24
ENDBRANCH   1  23
TORSDOF 7
ENDMDL
MODEL 6
REMARK VINA RESULT:      -5.9      3.240      6.655
REMARK  Name = 
REMARK  9 active torsions:
REMARK  status: ('A' for Active; 'I' for Inactive)
REMARK    1  A    between atoms: C_1  and  C_2
REMARK    2  A    between atoms: C_2  and  C_3
REMARK    3  A    between atoms: C_3  and  C_4
REMARK    4  A    between atoms: C_4  and  N_5
REMARK    5  A    between atoms: N_5  and  C_6
REMARK    6  A    between atoms: C_6  and  C_7
REMARK    7  A    between atoms: C_21  and  C_22
REMARK    8  A    between atoms: C_29  and  C_31
REMARK    9  A    between atoms: C_31  and  C_32
REMARK                            x       y       z     vdW  Elec       q    Type
REMARK                         _______ _______ _______ _____ _____    ______ ____
ROOT
ATOM      1  C   UNL     1      -1.348  13.265  21.426  0.00  0.00    +0.000 C 
ATOM      2  O   UNL     1      -1.500  14.479  21.550  0.00  0.00    +0.000 OA
ATOM      3  N   UNL     1      -0.092  12.639  21.398  0.00  0.00    +0.000 N 
ATOM      4  C   UNL     1      -0.004  11.261  21.762  0.00  0.00    +0.000 A 
ATOM      5  C   UNL     1      -0.602  10.809  22.940  0.00  0.00    +0.000 A 
ATOM      6  C   UNL     1      -0.887   9.455  23.108  0.00  0.00    +0.000 A 
ATOM      7  C   UNL     1      -0.517   8.545  22.121  0.00  0.00    +0.000 A 
ATOM      8  C   UNL     1       0.202   8.974  21.002  0.00  0.00    +0.000 A 
ATOM      9  C   UNL     1       0.474  10.335  20.834  0.00  0.00    +0.000 A 
ATOM     10  N   UNL     1       1.144  10.844  19.708  0.00  0.00    +0.000 N 
ATOM     11  C   UNL     1       1.586  10.163  18.600  0.00  0.00    +0.000 A 
ATOM     12  C   UNL     1       2.222  11.051  17.762  0.00  0.00    +0.000 A 
ATOM     13  C   UNL     1       2.168  12.320  18.381  0.00  0.00    +0.000 A 
ATOM     14  C   UNL     1       1.455  12.173  19.560  0.00  0.00    +0.000 A 
ATOM     15  C   UNL     1       1.055  13.189  20.621  0.00  0.00    +0.000 C 
ENDROOT
BRANCH  15  16
ATOM     16  C   UNL     1       0.909  14.582  19.998  0.00  0.00    +0.000 A 
ATOM     17  C   UNL     1       0.117  14.789  18.852  0.00  0.00    +0.000 A 
ATOM     18  C   UNL     1       0.054  16.039  18.231  0.00  0.00    +0.000 A 
ATOM     19  C   UNL     1       0.802  17.098  18.734  0.00  0.00    +0.000 A 
ATOM     20 CL   UNL     1       0.747  18.631  17.955  0.00  0.00    +0.000 Cl
ATOM     21  C   UNL     1       1.610  16.917  19.856  0.00  0.00    +0.000 A 
ATOM     22  C   UNL     1       1.662  15.667  20.487  0.00  0.00    +0.000 A 
ENDBRANCH  15  16
BRANCH   1  23
ATOM     23  C   UNL     1      -2.588  12.327  21.169  0.00  0.00    +0.000 C 
BRANCH  23  24
ATOM     24  N   UNL     1      -3.685  12.442  20.171  0.00  0.00    +0.000 N 
ATOM     25  C   UNL     1      -3.626  11.770  18.933  0.00  0.00    +0.000 C 
ATOM     26  O   UNL     1      -4.605  11.749  18.178  0.00  0.00    +0.000 OA
BRANCH  25  27
ATOM     27  C   UNL     1      -2.317  11.075  18.513  0.00  0.00    +0.000 C 
ATOM     28  C   UNL     1      -2.574   9.790  17.735  0.00  0.00    +0.000 C 
ATOM     29 CL   UNL     1      -1.389  12.213  17.492  0.00  0.00    +0.000 Cl
ENDBRANCH  25  27
BRANCH  24  30
ATOM     30  C   UNL     1      -4.956  13.141  20.443  0.00  0.00    +0.000 C 
BRANCH  30  31
ATOM     31  C   UNL     1      -6.093  12.278  20.949  0.00  0.00    +0.000 C 
BRANCH  31  33
ATOM     32  C   UNL     1      -7.597  14.222  20.671  0.00  0.00    +0.000 C 
ATOM     33  C   UNL     1      -7.474  12.717  20.476  0.00  0.00    +0.000 C 
ENDBRANCH  31  33
ENDBRANCH  30  31
ENDBRANCH  24  30
ENDBRANCH  23  24
ENDBRANCH   1  23
TORSDOF 7
ENDMDL
MODEL 7
REMARK VINA RESULT:      -5.8      2.766      5.608
REMARK  Name = 
REMARK  9 active torsions:
REMARK  status: ('A' for Active; 'I' for Inactive)
REMARK    1  A    between atoms: C_1  and  C_2
REMARK    2  A    between atoms: C_2  and  C_3
REMARK    3  A    between atoms: C_3  and  C_4
REMARK    4  A    between atoms: C_4  and  N_5
REMARK    5  A    between atoms: N_5  and  C_6
REMARK    6  A    between atoms: C_6  and  C_7
REMARK    7  A    between atoms: C_21  and  C_22
REMARK    8  A    between atoms: C_29  and  C_31
REMARK    9  A    between atoms: C_31  and  C_32
REMARK                            x       y       z     vdW  Elec       q    Type
REMARK                         _______ _______ _______ _____ _____    ______ ____
ROOT
ATOM      1  C   UNL     1      -2.529  12.475  21.002  0.00  0.00    +0.000 C 
ATOM      2  O   UNL     1      -3.497  12.634  21.743  0.00  0.00    +0.000 OA
ATOM      3  N   UNL     1      -1.199  12.499  21.447  0.00  0.00    +0.000 N 
ATOM      4  C   UNL     1      -0.205  11.823  20.676  0.00  0.00    +0.000 A 
ATOM      5  C   UNL     1      -0.419  10.508  20.258  0.00  0.00    +0.000 A 
ATOM      6  C   UNL     1       0.311   9.983  19.193  0.00  0.00    +0.000 A 
ATOM      7  C   UNL     1       1.299  10.754  18.586  0.00  0.00    +0.000 A 
ATOM      8  C   UNL     1       1.609  12.022  19.088  0.00  0.00    +0.000 A 
ATOM      9  C   UNL     1       0.864  12.547  20.149  0.00  0.00    +0.000 A 
ATOM     10  N   UNL     1       1.085  13.835  20.668  0.00  0.00    +0.000 N 
ATOM     11  C   UNL     1       1.974  14.788  20.235  0.00  0.00    +0.000 A 
ATOM     12  C   UNL     1       1.879  15.886  21.059  0.00  0.00    +0.000 A 
ATOM     13  C   UNL     1       0.898  15.593  22.033  0.00  0.00    +0.000 A 
ATOM     14  C   UNL     1       0.390  14.338  21.740  0.00  0.00    +0.000 A 
ATOM     15  C   UNL     1      -0.700  13.516  22.416  0.00  0.00    +0.000 C 
ENDROOT
BRANCH  15  16
ATOM     16  C   UNL     1      -1.722  14.439  23.091  0.00  0.00    +0.000 A 
ATOM     17  C   UNL     1      -2.205  14.169  24.386  0.00  0.00    +0.000 A 
ATOM     18  C   UNL     1      -3.202  14.958  24.966  0.00  0.00    +0.000 A 
ATOM     19  C   UNL     1      -3.748  16.017  24.249  0.00  0.00    +0.000 A 
ATOM     20 CL   UNL     1      -4.994  16.973  24.953  0.00  0.00    +0.000 Cl
ATOM     21  C   UNL     1      -3.302  16.296  22.958  0.00  0.00    +0.000 A 
ATOM     22  C   UNL     1      -2.293  15.513  22.382  0.00  0.00    +0.000 A 
ENDBRANCH  15  16
BRANCH   1  23
ATOM     23  C   UNL     1      -2.730  12.348  19.444  0.00  0.00    +0.000 C 
BRANCH  23  24
ATOM     24  N   UNL     1      -3.603  11.433  18.662  0.00  0.00    +0.000 N 
ATOM     25  C   UNL     1      -4.968  11.718  18.455  0.00  0.00    +0.000 C 
ATOM     26  O   UNL     1      -5.646  11.033  17.680  0.00  0.00    +0.000 OA
BRANCH  25  27
ATOM     27  C   UNL     1      -5.620  12.883  19.222  0.00  0.00    +0.000 C 
ATOM     28  C   UNL     1      -6.516  13.730  18.325  0.00  0.00    +0.000 C 
ATOM     29 CL   UNL     1      -6.595  12.193  20.553  0.00  0.00    +0.000 Cl
ENDBRANCH  25  27
BRANCH  24  30
ATOM     30  C   UNL     1      -3.095  10.250  17.941  0.00  0.00    +0.000 C 
BRANCH  30  31
ATOM     31  C   UNL     1      -2.301  10.530  16.682  0.00  0.00    +0.000 C 
BRANCH  31  33
ATOM     32  C   UNL     1      -3.714  10.359  14.659  0.00  0.00    +0.000 C 
ATOM     33  C   UNL     1      -2.665   9.642  15.499  0.00  0.00    +0.000 C 
ENDBRANCH  31  33
ENDBRANCH  30  31
ENDBRANCH  24  30
ENDBRANCH  23  24
ENDBRANCH   1  23
TORSDOF 7
ENDMDL
MODEL 8
REMARK VINA RESULT:      -5.8      3.651      7.472
REMARK  Name = 
REMARK  9 active torsions:
REMARK  status: ('A' for Active; 'I' for Inactive)
REMARK    1  A    between atoms: C_1  and  C_2
REMARK    2  A    between atoms: C_2  and  C_3
REMARK    3  A    between atoms: C_3  and  C_4
REMARK    4  A    between atoms: C_4  and  N_5
REMARK    5  A    between atoms: N_5  and  C_6
REMARK    6  A    between atoms: C_6  and  C_7
REMARK    7  A    between atoms: C_21  and  C_22
REMARK    8  A    between atoms: C_29  and  C_31
REMARK    9  A    between atoms: C_31  and  C_32
REMARK                            x       y       z     vdW  Elec       q    Type
REMARK                         _______ _______ _______ _____ _____    ______ ____
ROOT
ATOM      1  C   UNL     1      -0.963  10.529  18.238  0.00  0.00    +0.000 C 
ATOM      2  O   UNL     1      -0.359   9.984  17.316  0.00  0.00    +0.000 OA
ATOM      3  N   UNL     1      -0.328  11.093  19.355  0.00  0.00    +0.000 N 
ATOM      4  C   UNL     1      -1.006  12.114  20.086  0.00  0.00    +0.000 A 
ATOM      5  C   UNL     1      -1.573  13.198  19.413  0.00  0.00    +0.000 A 
ATOM      6  C   UNL     1      -2.565  13.963  20.024  0.00  0.00    +0.000 A 
ATOM      7  C   UNL     1      -2.945  13.681  21.334  0.00  0.00    +0.000 A 
ATOM      8  C   UNL     1      -2.286  12.684  22.058  0.00  0.00    +0.000 A 
ATOM      9  C   UNL     1      -1.301  11.912  21.435  0.00  0.00    +0.000 A 
ATOM     10  N   UNL     1      -0.636  10.858  22.086  0.00  0.00    +0.000 N 
ATOM     11  C   UNL     1      -0.842  10.374  23.354  0.00  0.00    +0.000 A 
ATOM     12  C   UNL     1       0.059   9.361  23.592  0.00  0.00    +0.000 A 
ATOM     13  C   UNL     1       0.847   9.223  22.427  0.00  0.00    +0.000 A 
ATOM     14  C   UNL     1       0.365  10.128  21.495  0.00  0.00    +0.000 A 
ATOM     15  C   UNL     1       0.795  10.413  20.062  0.00  0.00    +0.000 C 
ENDROOT
BRANCH  15  16
ATOM     16  C   UNL     1       1.397   9.155  19.426  0.00  0.00    +0.000 A 
ATOM     17  C   UNL     1       1.379   7.917  20.098  0.00  0.00    +0.000 A 
ATOM     18  C   UNL     1       2.006   6.790  19.558  0.00  0.00    +0.000 A 
ATOM     19  C   UNL     1       2.682   6.891  18.347  0.00  0.00    +0.000 A 
ATOM     20 CL   UNL     1       3.477   5.511  17.695  0.00  0.00    +0.000 Cl
ATOM     21  C   UNL     1       2.732   8.107  17.668  0.00  0.00    +0.000 A 
ATOM     22  C   UNL     1       2.092   9.233  18.203  0.00  0.00    +0.000 A 
ENDBRANCH  15  16
BRANCH   1  23
ATOM     23  C   UNL     1      -2.538  10.522  18.274  0.00  0.00    +0.000 C 
BRANCH  23  24
ATOM     24  N   UNL     1      -3.522  11.045  17.289  0.00  0.00    +0.000 N 
ATOM     25  C   UNL     1      -4.794  11.500  17.691  0.00  0.00    +0.000 C 
ATOM     26  O   UNL     1      -5.544  12.070  16.889  0.00  0.00    +0.000 OA
BRANCH  25  27
ATOM     27  C   UNL     1      -5.258  11.261  19.140  0.00  0.00    +0.000 C 
ATOM     28  C   UNL     1      -5.874  12.510  19.758  0.00  0.00    +0.000 C 
ATOM     29 CL   UNL     1      -6.470   9.947  19.124  0.00  0.00    +0.000 Cl
ENDBRANCH  25  27
BRANCH  24  30
ATOM     30  C   UNL     1      -3.205  11.252  15.863  0.00  0.00    +0.000 C 
BRANCH  30  31
ATOM     31  C   UNL     1      -2.955   9.999  15.049  0.00  0.00    +0.000 C 
BRANCH  31  33
ATOM     32  C   UNL     1      -2.715   9.492  12.640  0.00  0.00    +0.000 C 
ATOM     33  C   UNL     1      -3.688   9.959  13.714  0.00  0.00    +0.000 C 
ENDBRANCH  31  33
ENDBRANCH  30  31
ENDBRANCH  24  30
ENDBRANCH  23  24
ENDBRANCH   1  23
TORSDOF 7
ENDMDL
MODEL 9
REMARK VINA RESULT:      -5.8      0.826      1.240
REMARK  Name = 
REMARK  9 active torsions:
REMARK  status: ('A' for Active; 'I' for Inactive)
REMARK    1  A    between atoms: C_1  and  C_2
REMARK    2  A    between atoms: C_2  and  C_3
REMARK    3  A    between atoms: C_3  and  C_4
REMARK    4  A    between atoms: C_4  and  N_5
REMARK    5  A    between atoms: N_5  and  C_6
REMARK    6  A    between atoms: C_6  and  C_7
REMARK    7  A    between atoms: C_21  and  C_22
REMARK    8  A    between atoms: C_29  and  C_31
REMARK    9  A    between atoms: C_31  and  C_32
REMARK                            x       y       z     vdW  Elec       q    Type
REMARK                         _______ _______ _______ _____ _____    ______ ____
ROOT
ATOM      1  C   UNL     1      -3.330  13.426  20.375  0.00  0.00    +0.000 C 
ATOM      2  O   UNL     1      -2.437  14.269  20.429  0.00  0.00    +0.000 OA
ATOM      3  N   UNL     1      -4.693  13.729  20.503  0.00  0.00    +0.000 N 
ATOM      4  C   UNL     1      -5.651  12.835  19.938  0.00  0.00    +0.000 A 
ATOM      5  C   UNL     1      -5.505  12.394  18.621  0.00  0.00    +0.000 A 
ATOM      6  C   UNL     1      -6.158  11.240  18.191  0.00  0.00    +0.000 A 
ATOM      7  C   UNL     1      -7.007  10.562  19.062  0.00  0.00    +0.000 A 
ATOM      8  C   UNL     1      -7.261  11.074  20.337  0.00  0.00    +0.000 A 
ATOM      9  C   UNL     1      -6.593  12.225  20.767  0.00  0.00    +0.000 A 
ATOM     10  N   UNL     1      -6.760  12.764  22.054  0.00  0.00    +0.000 N 
ATOM     11  C   UNL     1      -7.514  12.276  23.093  0.00  0.00    +0.000 A 
ATOM     12  C   UNL     1      -7.416  13.144  24.156  0.00  0.00    +0.000 A 
ATOM     13  C   UNL     1      -6.573  14.204  23.752  0.00  0.00    +0.000 A 
ATOM     14  C   UNL     1      -6.144  13.920  22.465  0.00  0.00    +0.000 A 
ATOM     15  C   UNL     1      -5.206  14.677  21.534  0.00  0.00    +0.000 C 
ENDROOT
BRANCH  15  16
ATOM     16  C   UNL     1      -4.188  15.488  22.345  0.00  0.00    +0.000 A 
ATOM     17  C   UNL     1      -3.536  14.932  23.462  0.00  0.00    +0.000 A 
ATOM     18  C   UNL     1      -2.676  15.697  24.254  0.00  0.00    +0.000 A 
ATOM     19  C   UNL     1      -2.474  17.040  23.954  0.00  0.00    +0.000 A 
ATOM     20 CL   UNL     1      -1.436  17.991  24.944  0.00  0.00    +0.000 Cl
ATOM     21  C   UNL     1      -3.121  17.622  22.865  0.00  0.00    +0.000 A 
ATOM     22  C   UNL     1      -3.972  16.851  22.063  0.00  0.00    +0.000 A 
ENDBRANCH  15  16
BRANCH   1  23
ATOM     23  C   UNL     1      -2.974  11.894  20.273  0.00  0.00    +0.000 C 
BRANCH  23  24
ATOM     24  N   UNL     1      -2.021  11.189  19.375  0.00  0.00    +0.000 N 
ATOM     25  C   UNL     1      -0.679  10.977  19.749  0.00  0.00    +0.000 C 
ATOM     26  O   UNL     1       0.063  10.261  19.065  0.00  0.00    +0.000 OA
BRANCH  25  27
ATOM     27  C   UNL     1      -0.129  11.666  21.012  0.00  0.00    +0.000 C 
ATOM     28  C   UNL     1      -0.027  10.705  22.190  0.00  0.00    +0.000 C 
ATOM     29 CL   UNL     1       1.494  12.311  20.629  0.00  0.00    +0.000 Cl
ENDBRANCH  25  27
BRANCH  24  30
ATOM     30  C   UNL     1      -2.426  10.549  18.109  0.00  0.00    +0.000 C 
BRANCH  30  31
ATOM     31  C   UNL     1      -2.340  11.416  16.869  0.00  0.00    +0.000 C 
BRANCH  31  33
ATOM     32  C   UNL     1      -2.873  10.009  14.906  0.00  0.00    +0.000 C 
ATOM     33  C   UNL     1      -3.397  11.113  15.815  0.00  0.00    +0.000 C 
ENDBRANCH  31  33
ENDBRANCH  30  31
ENDBRANCH  24  30
ENDBRANCH  23  24
ENDBRANCH   1  23
TORSDOF 7
ENDMDL
