MODEL 1
REMARK VINA RESULT:      -7.2      0.000      0.000
REMARK  Name = 
REMARK  5 active torsions:
REMARK  status: ('A' for Active; 'I' for Inactive)
REMARK    1  A    between atoms: C_1  and  O_2
REMARK    2  A    between atoms: O_2  and  C_3
REMARK    3  A    between atoms: C_6  and  C_7
REMARK    4  A    between atoms: C_13  and  C_14
REMARK    5  A    between atoms: N_20  and  C_21
REMARK                            x       y       z     vdW  Elec       q    Type
REMARK                         _______ _______ _______ _____ _____    ______ ____
ROOT
ATOM      1  C   UNL     1       0.090  12.808  18.884  0.00  0.00    +0.000 C 
ATOM      2  O   UNL     1      -0.677  12.942  17.930  0.00  0.00    +0.000 OA
ATOM      3  N   UNL     1       0.559  13.927  19.599  0.00  0.00    +0.000 N 
ATOM      4  C   UNL     1      -0.052  15.226  19.326  0.00  0.00    +0.000 C 
ATOM      5  C   UNL     1       0.988  16.290  19.002  0.00  0.00    +0.000 C 
ATOM      6  C   UNL     1       2.072  16.352  20.078  0.00  0.00    +0.000 C 
ATOM      7  C   UNL     1       2.726  14.982  20.295  0.00  0.00    +0.000 C 
ATOM      8  C   UNL     1       1.650  13.934  20.585  0.00  0.00    +0.000 C 
ENDROOT
BRANCH   1  12
ATOM      9  C   UNL     1       1.297   8.845  20.101  0.00  0.00    +0.000 A 
ATOM     10  C   UNL     1       1.661   9.375  18.869  0.00  0.00    +0.000 A 
ATOM     11  C   UNL     1       1.291  10.667  18.536  0.00  0.00    +0.000 A 
ATOM     12  C   UNL     1       0.417  11.409  19.341  0.00  0.00    +0.000 A 
ATOM     13  C   UNL     1       0.009  10.883  20.607  0.00  0.00    +0.000 A 
ATOM     14  C   UNL     1      -0.819  11.563  21.537  0.00  0.00    +0.000 A 
ATOM     15  C   UNL     1      -1.102  11.056  22.805  0.00  0.00    +0.000 A 
ATOM     16  C   UNL     1      -0.586   9.830  23.187  0.00  0.00    +0.000 A 
ATOM     17  C   UNL     1       0.181   9.101  22.280  0.00  0.00    +0.000 A 
ATOM     18  C   UNL     1       0.491   9.597  20.994  0.00  0.00    +0.000 A 
BRANCH   9  20
ATOM     19  C   UNL     1       2.398   6.827  19.521  0.00  0.00    +0.000 C 
ATOM     20  O   UNL     1       1.702   7.592  20.502  0.00  0.00    +0.000 OA
ENDBRANCH   9  20
ENDBRANCH   1  12
BRANCH   7  21
ATOM     21  C   UNL     1       3.592  14.495  19.127  0.00  0.00    +0.000 C 
ATOM     22  O   UNL     1       3.162  13.659  18.328  0.00  0.00    +0.000 OA
ATOM     23  N   UNL     1       4.886  14.986  18.993  0.00  0.00    +0.000 N 
ATOM     24  C   UNL     1       5.642  14.434  17.870  0.00  0.00    +0.000 C 
ATOM     25  C   UNL     1       7.034  15.001  17.633  0.00  0.00    +0.000 C 
ATOM     26  C   UNL     1       8.079  14.459  18.614  0.00  0.00    +0.000 C 
ATOM     27  N   UNL     1       8.025  15.016  19.974  0.00  0.00    +0.000 NA
ATOM     28  C   UNL     1       9.110  14.457  20.784  0.00  0.00    +0.000 C 
ATOM     29  C   UNL     1       6.739  14.793  20.650  0.00  0.00    +0.000 C 
ATOM     30  C   UNL     1       5.620  15.662  20.060  0.00  0.00    +0.000 C 
ENDBRANCH   7  21
TORSDOF 3
ENDMDL
MODEL 2
REMARK VINA RESULT:      -7.0      2.998      5.192
REMARK  Name = 
REMARK  5 active torsions:
REMARK  status: ('A' for Active; 'I' for Inactive)
REMARK    1  A    between atoms: C_1  and  O_2
REMARK    2  A    between atoms: O_2  and  C_3
REMARK    3  A    between atoms: C_6  and  C_7
REMARK    4  A    between atoms: C_13  and  C_14
REMARK    5  A    between atoms: N_20  and  C_21
REMARK                            x       y       z     vdW  Elec       q    Type
REMARK                         _______ _______ _______ _____ _____    ______ ____
ROOT
ATOM      1  C   UNL     1      -2.756  12.612  22.993  0.00  0.00    +0.000 C 
ATOM      2  O   UNL     1      -3.906  12.225  22.782  0.00  0.00    +0.000 OA
ATOM      3  N   UNL     1      -2.507  13.717  23.831  0.00  0.00    +0.000 N 
ATOM      4  C   UNL     1      -3.617  14.254  24.614  0.00  0.00    +0.000 C 
ATOM      5  C   UNL     1      -3.783  15.754  24.413  0.00  0.00    +0.000 C 
ATOM      6  C   UNL     1      -2.469  16.496  24.652  0.00  0.00    +0.000 C 
ATOM      7  C   UNL     1      -1.343  15.938  23.772  0.00  0.00    +0.000 C 
ATOM      8  C   UNL     1      -1.227  14.426  23.975  0.00  0.00    +0.000 C 
ENDROOT
BRANCH   1  12
ATOM      9  C   UNL     1       0.366  10.045  21.476  0.00  0.00    +0.000 A 
ATOM     10  C   UNL     1      -0.163   9.879  22.751  0.00  0.00    +0.000 A 
ATOM     11  C   UNL     1      -1.194  10.696  23.182  0.00  0.00    +0.000 A 
ATOM     12  C   UNL     1      -1.619  11.799  22.430  0.00  0.00    +0.000 A 
ATOM     13  C   UNL     1      -1.080  12.007  21.121  0.00  0.00    +0.000 A 
ATOM     14  C   UNL     1      -1.475  13.047  20.240  0.00  0.00    +0.000 A 
ATOM     15  C   UNL     1      -1.000  13.146  18.932  0.00  0.00    +0.000 A 
ATOM     16  C   UNL     1      -0.088  12.220  18.459  0.00  0.00    +0.000 A 
ATOM     17  C   UNL     1       0.373  11.219  19.313  0.00  0.00    +0.000 A 
ATOM     18  C   UNL     1      -0.100  11.090  20.638  0.00  0.00    +0.000 A 
BRANCH   9  20
ATOM     19  C   UNL     1       1.149   7.821  21.227  0.00  0.00    +0.000 C 
ATOM     20  O   UNL     1       1.343   9.212  20.980  0.00  0.00    +0.000 OA
ENDBRANCH   9  20
ENDBRANCH   1  12
BRANCH   7  21
ATOM     21  C   UNL     1      -1.500  16.227  22.274  0.00  0.00    +0.000 C 
ATOM     22  O   UNL     1      -2.614  16.241  21.747  0.00  0.00    +0.000 OA
ATOM     23  N   UNL     1      -0.362  16.446  21.505  0.00  0.00    +0.000 N 
ATOM     24  C   UNL     1      -0.614  16.677  20.083  0.00  0.00    +0.000 C 
ATOM     25  C   UNL     1       0.593  17.004  19.216  0.00  0.00    +0.000 C 
ATOM     26  C   UNL     1       1.438  15.772  18.874  0.00  0.00    +0.000 C 
ATOM     27  N   UNL     1       2.290  15.264  19.960  0.00  0.00    +0.000 NA
ATOM     28  C   UNL     1       3.083  14.129  19.481  0.00  0.00    +0.000 C 
ATOM     29  C   UNL     1       1.539  14.870  21.160  0.00  0.00    +0.000 C 
ATOM     30  C   UNL     1       0.991  16.085  21.922  0.00  0.00    +0.000 C 
ENDBRANCH   7  21
TORSDOF 3
ENDMDL
MODEL 3
REMARK VINA RESULT:      -6.9      4.946      7.320
REMARK  Name = 
REMARK  5 active torsions:
REMARK  status: ('A' for Active; 'I' for Inactive)
REMARK    1  A    between atoms: C_1  and  O_2
REMARK    2  A    between atoms: O_2  and  C_3
REMARK    3  A    between atoms: C_6  and  C_7
REMARK    4  A    between atoms: C_13  and  C_14
REMARK    5  A    between atoms: N_20  and  C_21
REMARK                            x       y       z     vdW  Elec       q    Type
REMARK                         _______ _______ _______ _____ _____    ______ ____
ROOT
ATOM      1  C   UNL     1      -0.664  11.404  19.706  0.00  0.00    +0.000 C 
ATOM      2  O   UNL     1      -0.223  12.549  19.813  0.00  0.00    +0.000 OA
ATOM      3  N   UNL     1      -0.381  10.425  20.677  0.00  0.00    +0.000 N 
ATOM      4  C   UNL     1       0.262  10.850  21.919  0.00  0.00    +0.000 C 
ATOM      5  C   UNL     1       1.512  10.035  22.222  0.00  0.00    +0.000 C 
ATOM      6  C   UNL     1       1.222   8.536  22.181  0.00  0.00    +0.000 C 
ATOM      7  C   UNL     1       0.599   8.122  20.842  0.00  0.00    +0.000 C 
ATOM      8  C   UNL     1      -0.634   8.982  20.556  0.00  0.00    +0.000 C 
ENDROOT
BRANCH   1  12
ATOM      9  C   UNL     1      -3.287  10.302  16.458  0.00  0.00    +0.000 A 
ATOM     10  C   UNL     1      -1.945   9.940  16.470  0.00  0.00    +0.000 A 
ATOM     11  C   UNL     1      -1.149  10.275  17.553  0.00  0.00    +0.000 A 
ATOM     12  C   UNL     1      -1.615  11.115  18.573  0.00  0.00    +0.000 A 
ATOM     13  C   UNL     1      -2.987  11.520  18.578  0.00  0.00    +0.000 A 
ATOM     14  C   UNL     1      -3.592  12.313  19.587  0.00  0.00    +0.000 A 
ATOM     15  C   UNL     1      -4.959  12.594  19.605  0.00  0.00    +0.000 A 
ATOM     16  C   UNL     1      -5.774  12.110  18.598  0.00  0.00    +0.000 A 
ATOM     17  C   UNL     1      -5.208  11.379  17.555  0.00  0.00    +0.000 A 
ATOM     18  C   UNL     1      -3.830  11.073  17.518  0.00  0.00    +0.000 A 
BRANCH   9  20
ATOM     19  C   UNL     1      -3.592  10.046  14.121  0.00  0.00    +0.000 C 
ATOM     20  O   UNL     1      -4.131   9.931  15.436  0.00  0.00    +0.000 OA
ENDBRANCH   9  20
ENDBRANCH   1  12
BRANCH   7  21
ATOM     21  C   UNL     1       1.551   8.203  19.643  0.00  0.00    +0.000 C 
ATOM     22  O   UNL     1       1.528   9.174  18.883  0.00  0.00    +0.000 OA
ATOM     23  N   UNL     1       2.426   7.149  19.401  0.00  0.00    +0.000 N 
ATOM     24  C   UNL     1       3.266   7.305  18.214  0.00  0.00    +0.000 C 
ATOM     25  C   UNL     1       4.297   6.216  17.955  0.00  0.00    +0.000 C 
ATOM     26  C   UNL     1       3.688   4.939  17.367  0.00  0.00    +0.000 C 
ATOM     27  N   UNL     1       2.952   4.089  18.315  0.00  0.00    +0.000 NA
ATOM     28  C   UNL     1       2.477   2.881  17.636  0.00  0.00    +0.000 C 
ATOM     29  C   UNL     1       1.820   4.771  18.958  0.00  0.00    +0.000 C 
ATOM     30  C   UNL     1       2.283   5.816  19.983  0.00  0.00    +0.000 C 
ENDBRANCH   7  21
TORSDOF 3
ENDMDL
MODEL 4
REMARK VINA RESULT:      -6.8      3.237      6.588
REMARK  Name = 
REMARK  5 active torsions:
REMARK  status: ('A' for Active; 'I' for Inactive)
REMARK    1  A    between atoms: C_1  and  O_2
REMARK    2  A    between atoms: O_2  and  C_3
REMARK    3  A    between atoms: C_6  and  C_7
REMARK    4  A    between atoms: C_13  and  C_14
REMARK    5  A    between atoms: N_20  and  C_21
REMARK                            x       y       z     vdW  Elec       q    Type
REMARK                         _______ _______ _______ _____ _____    ______ ____
ROOT
ATOM      1  C   UNL     1      -0.780  11.140  22.563  0.00  0.00    +0.000 C 
ATOM      2  O   UNL     1      -0.209  10.497  23.445  0.00  0.00    +0.000 OA
ATOM      3  N   UNL     1      -0.708  10.741  21.214  0.00  0.00    +0.000 N 
ATOM      4  C   UNL     1      -0.130   9.434  20.911  0.00  0.00    +0.000 C 
ATOM      5  C   UNL     1       0.976   9.527  19.869  0.00  0.00    +0.000 C 
ATOM      6  C   UNL     1       0.504  10.276  18.623  0.00  0.00    +0.000 C 
ATOM      7  C   UNL     1      -0.044  11.664  18.978  0.00  0.00    +0.000 C 
ATOM      8  C   UNL     1      -1.129  11.534  20.050  0.00  0.00    +0.000 C 
ENDROOT
BRANCH   1  12
ATOM      9  C   UNL     1      -3.370  14.287  23.988  0.00  0.00    +0.000 A 
ATOM     10  C   UNL     1      -3.784  12.960  23.946  0.00  0.00    +0.000 A 
ATOM     11  C   UNL     1      -2.907  11.976  23.524  0.00  0.00    +0.000 A 
ATOM     12  C   UNL     1      -1.655  12.294  22.980  0.00  0.00    +0.000 A 
ATOM     13  C   UNL     1      -1.208  13.653  22.992  0.00  0.00    +0.000 A 
ATOM     14  C   UNL     1       0.060  14.091  22.530  0.00  0.00    +0.000 A 
ATOM     15  C   UNL     1       0.493  15.410  22.660  0.00  0.00    +0.000 A 
ATOM     16  C   UNL     1      -0.337  16.354  23.238  0.00  0.00    +0.000 A 
ATOM     17  C   UNL     1      -1.615  15.977  23.648  0.00  0.00    +0.000 A 
ATOM     18  C   UNL     1      -2.075  14.647  23.536  0.00  0.00    +0.000 A 
BRANCH   9  20
ATOM     19  C   UNL     1      -5.389  15.503  23.733  0.00  0.00    +0.000 C 
ATOM     20  O   UNL     1      -4.185  15.288  24.466  0.00  0.00    +0.000 OA
ENDBRANCH   9  20
ENDBRANCH   1  12
BRANCH   7  21
ATOM     21  C   UNL     1       1.012  12.665  19.460  0.00  0.00    +0.000 C 
ATOM     22  O   UNL     1       1.892  12.322  20.254  0.00  0.00    +0.000 OA
ATOM     23  N   UNL     1       0.952  13.980  19.013  0.00  0.00    +0.000 N 
ATOM     24  C   UNL     1       1.982  14.865  19.557  0.00  0.00    +0.000 C 
ATOM     25  C   UNL     1       2.007  16.293  19.033  0.00  0.00    +0.000 C 
ATOM     26  C   UNL     1       0.914  17.176  19.644  0.00  0.00    +0.000 C 
ATOM     27  N   UNL     1      -0.446  16.955  19.128  0.00  0.00    +0.000 NA
ATOM     28  C   UNL     1      -1.375  17.901  19.750  0.00  0.00    +0.000 C 
ATOM     29  C   UNL     1      -0.933  15.583  19.324  0.00  0.00    +0.000 C 
ATOM     30  C   UNL     1      -0.229  14.583  18.397  0.00  0.00    +0.000 C 
ENDBRANCH   7  21
TORSDOF 3
ENDMDL
MODEL 5
REMARK VINA RESULT:      -6.6      3.360      8.730
REMARK  Name = 
REMARK  5 active torsions:
REMARK  status: ('A' for Active; 'I' for Inactive)
REMARK    1  A    between atoms: C_1  and  O_2
REMARK    2  A    between atoms: O_2  and  C_3
REMARK    3  A    between atoms: C_6  and  C_7
REMARK    4  A    between atoms: C_13  and  C_14
REMARK    5  A    between atoms: N_20  and  C_21
REMARK                            x       y       z     vdW  Elec       q    Type
REMARK                         _______ _______ _______ _____ _____    ______ ____
ROOT
ATOM      1  C   UNL     1       0.696  12.386  19.380  0.00  0.00    +0.000 C 
ATOM      2  O   UNL     1       0.911  11.548  18.503  0.00  0.00    +0.000 OA
ATOM      3  N   UNL     1       0.519  12.000  20.722  0.00  0.00    +0.000 N 
ATOM      4  C   UNL     1       0.810  10.616  21.087  0.00  0.00    +0.000 C 
ATOM      5  C   UNL     1      -0.352   9.963  21.823  0.00  0.00    +0.000 C 
ATOM      6  C   UNL     1      -0.805  10.812  23.010  0.00  0.00    +0.000 C 
ATOM      7  C   UNL     1      -1.154  12.242  22.576  0.00  0.00    +0.000 C 
ATOM      8  C   UNL     1       0.023  12.853  21.813  0.00  0.00    +0.000 C 
ENDROOT
BRANCH   1  12
ATOM      9  C   UNL     1       0.678  16.615  18.507  0.00  0.00    +0.000 A 
ATOM     10  C   UNL     1      -0.489  15.927  18.820  0.00  0.00    +0.000 A 
ATOM     11  C   UNL     1      -0.432  14.581  19.137  0.00  0.00    +0.000 A 
ATOM     12  C   UNL     1       0.750  13.843  18.996  0.00  0.00    +0.000 A 
ATOM     13  C   UNL     1       1.964  14.520  18.657  0.00  0.00    +0.000 A 
ATOM     14  C   UNL     1       3.234  13.896  18.548  0.00  0.00    +0.000 A 
ATOM     15  C   UNL     1       4.408  14.615  18.320  0.00  0.00    +0.000 A 
ATOM     16  C   UNL     1       4.356  15.989  18.168  0.00  0.00    +0.000 A 
ATOM     17  C   UNL     1       3.120  16.632  18.207  0.00  0.00    +0.000 A 
ATOM     18  C   UNL     1       1.918  15.930  18.446  0.00  0.00    +0.000 A 
BRANCH   9  20
ATOM     19  C   UNL     1      -0.050  18.377  17.099  0.00  0.00    +0.000 C 
ATOM     20  O   UNL     1       0.678  17.968  18.254  0.00  0.00    +0.000 OA
ENDBRANCH   9  20
ENDBRANCH   1  12
BRANCH   7  21
ATOM     21  C   UNL     1      -2.418  12.358  21.717  0.00  0.00    +0.000 C 
ATOM     22  O   UNL     1      -2.366  12.212  20.493  0.00  0.00    +0.000 OA
ATOM     23  N   UNL     1      -3.628  12.660  22.332  0.00  0.00    +0.000 N 
ATOM     24  C   UNL     1      -4.768  12.785  21.423  0.00  0.00    +0.000 C 
ATOM     25  C   UNL     1      -6.128  13.033  22.057  0.00  0.00    +0.000 C 
ATOM     26  C   UNL     1      -6.323  14.483  22.513  0.00  0.00    +0.000 C 
ATOM     27  N   UNL     1      -5.620  14.862  23.748  0.00  0.00    +0.000 NA
ATOM     28  C   UNL     1      -5.940  16.248  24.098  0.00  0.00    +0.000 C 
ATOM     29  C   UNL     1      -4.162  14.697  23.668  0.00  0.00    +0.000 C 
ATOM     30  C   UNL     1      -3.747  13.219  23.677  0.00  0.00    +0.000 C 
ENDBRANCH   7  21
TORSDOF 3
ENDMDL
MODEL 6
REMARK VINA RESULT:      -6.6      1.069      1.193
REMARK  Name = 
REMARK  5 active torsions:
REMARK  status: ('A' for Active; 'I' for Inactive)
REMARK    1  A    between atoms: C_1  and  O_2
REMARK    2  A    between atoms: O_2  and  C_3
REMARK    3  A    between atoms: C_6  and  C_7
REMARK    4  A    between atoms: C_13  and  C_14
REMARK    5  A    between atoms: N_20  and  C_21
REMARK                            x       y       z     vdW  Elec       q    Type
REMARK                         _______ _______ _______ _____ _____    ______ ____
ROOT
ATOM      1  C   UNL     1       0.769  13.739  19.409  0.00  0.00    +0.000 C 
ATOM      2  O   UNL     1      -0.073  14.251  18.670  0.00  0.00    +0.000 OA
ATOM      3  N   UNL     1       1.496  14.519  20.328  0.00  0.00    +0.000 N 
ATOM      4  C   UNL     1       1.080  15.904  20.539  0.00  0.00    +0.000 C 
ATOM      5  C   UNL     1       2.237  16.880  20.369  0.00  0.00    +0.000 C 
ATOM      6  C   UNL     1       3.434  16.477  21.229  0.00  0.00    +0.000 C 
ATOM      7  C   UNL     1       3.874  15.036  20.938  0.00  0.00    +0.000 C 
ATOM      8  C   UNL     1       2.681  14.090  21.086  0.00  0.00    +0.000 C 
ENDROOT
BRANCH   1  12
ATOM      9  C   UNL     1       1.452   9.477  19.270  0.00  0.00    +0.000 A 
ATOM     10  C   UNL     1       1.890  10.322  18.257  0.00  0.00    +0.000 A 
ATOM     11  C   UNL     1       1.690  11.688  18.362  0.00  0.00    +0.000 A 
ATOM     12  C   UNL     1       0.911  12.238  19.389  0.00  0.00    +0.000 A 
ATOM     13  C   UNL     1       0.430  11.391  20.437  0.00  0.00    +0.000 A 
ATOM     14  C   UNL     1      -0.313  11.837  21.561  0.00  0.00    +0.000 A 
ATOM     15  C   UNL     1      -0.668  10.991  22.612  0.00  0.00    +0.000 A 
ATOM     16  C   UNL     1      -0.315   9.655  22.569  0.00  0.00    +0.000 A 
ATOM     17  C   UNL     1       0.360   9.163  21.453  0.00  0.00    +0.000 A 
ATOM     18  C   UNL     1       0.740  10.000  20.381  0.00  0.00    +0.000 A 
BRANCH   9  20
ATOM     19  C   UNL     1       2.525   7.668  18.178  0.00  0.00    +0.000 C 
ATOM     20  O   UNL     1       1.691   8.122  19.241  0.00  0.00    +0.000 OA
ENDBRANCH   9  20
ENDBRANCH   1  12
BRANCH   7  21
ATOM     21  C   UNL     1       4.504  14.828  19.556  0.00  0.00    +0.000 C 
ATOM     22  O   UNL     1       3.853  14.332  18.632  0.00  0.00    +0.000 OA
ATOM     23  N   UNL     1       5.836  15.178  19.360  0.00  0.00    +0.000 N 
ATOM     24  C   UNL     1       6.354  14.907  18.019  0.00  0.00    +0.000 C 
ATOM     25  C   UNL     1       7.781  15.349  17.732  0.00  0.00    +0.000 C 
ATOM     26  C   UNL     1       8.833  14.413  18.336  0.00  0.00    +0.000 C 
ATOM     27  N   UNL     1       9.032  14.532  19.789  0.00  0.00    +0.000 NA
ATOM     28  C   UNL     1      10.101  13.628  20.221  0.00  0.00    +0.000 C 
ATOM     29  C   UNL     1       7.817  14.270  20.572  0.00  0.00    +0.000 C 
ATOM     30  C   UNL     1       6.791  15.404  20.442  0.00  0.00    +0.000 C 
ENDBRANCH   7  21
TORSDOF 3
ENDMDL
MODEL 7
REMARK VINA RESULT:      -6.6      2.861      7.094
REMARK  Name = 
REMARK  5 active torsions:
REMARK  status: ('A' for Active; 'I' for Inactive)
REMARK    1  A    between atoms: C_1  and  O_2
REMARK    2  A    between atoms: O_2  and  C_3
REMARK    3  A    between atoms: C_6  and  C_7
REMARK    4  A    between atoms: C_13  and  C_14
REMARK    5  A    between atoms: N_20  and  C_21
REMARK                            x       y       z     vdW  Elec       q    Type
REMARK                         _______ _______ _______ _____ _____    ______ ____
ROOT
ATOM      1  C   UNL     1       0.341  15.733  21.260  0.00  0.00    +0.000 C 
ATOM      2  O   UNL     1       0.483  16.433  22.264  0.00  0.00    +0.000 OA
ATOM      3  N   UNL     1      -0.888  15.106  20.982  0.00  0.00    +0.000 N 
ATOM      4  C   UNL     1      -2.050  15.477  21.787  0.00  0.00    +0.000 C 
ATOM      5  C   UNL     1      -2.742  14.260  22.386  0.00  0.00    +0.000 C 
ATOM      6  C   UNL     1      -3.064  13.220  21.314  0.00  0.00    +0.000 C 
ATOM      7  C   UNL     1      -1.809  12.817  20.529  0.00  0.00    +0.000 C 
ATOM      8  C   UNL     1      -1.124  14.066  19.970  0.00  0.00    +0.000 C 
ENDROOT
BRANCH   1  12
ATOM      9  C   UNL     1       3.583  15.251  18.449  0.00  0.00    +0.000 A 
ATOM     10  C   UNL     1       3.489  14.474  19.598  0.00  0.00    +0.000 A 
ATOM     11  C   UNL     1       2.409  14.630  20.450  0.00  0.00    +0.000 A 
ATOM     12  C   UNL     1       1.482  15.666  20.277  0.00  0.00    +0.000 A 
ATOM     13  C   UNL     1       1.564  16.495  19.114  0.00  0.00    +0.000 A 
ATOM     14  C   UNL     1       0.650  17.532  18.794  0.00  0.00    +0.000 A 
ATOM     15  C   UNL     1       0.707  18.243  17.596  0.00  0.00    +0.000 A 
ATOM     16  C   UNL     1       1.700  17.962  16.675  0.00  0.00    +0.000 A 
ATOM     17  C   UNL     1       2.655  16.992  16.978  0.00  0.00    +0.000 A 
ATOM     18  C   UNL     1       2.614  16.251  18.180  0.00  0.00    +0.000 A 
BRANCH   9  20
ATOM     19  C   UNL     1       5.872  14.751  18.092  0.00  0.00    +0.000 C 
ATOM     20  O   UNL     1       4.602  15.083  17.539  0.00  0.00    +0.000 OA
ENDBRANCH   9  20
ENDBRANCH   1  12
BRANCH   7  21
ATOM     21  C   UNL     1      -0.786  12.007  21.333  0.00  0.00    +0.000 C 
ATOM     22  O   UNL     1      -0.256  12.480  22.341  0.00  0.00    +0.000 OA
ATOM     23  N   UNL     1      -0.435  10.734  20.894  0.00  0.00    +0.000 N 
ATOM     24  C   UNL     1       0.574  10.057  21.707  0.00  0.00    +0.000 C 
ATOM     25  C   UNL     1       0.930   8.631  21.315  0.00  0.00    +0.000 C 
ATOM     26  C   UNL     1       1.852   8.556  20.093  0.00  0.00    +0.000 C 
ATOM     27  N   UNL     1       1.210   8.810  18.794  0.00  0.00    +0.000 NA
ATOM     28  C   UNL     1       2.189   8.648  17.716  0.00  0.00    +0.000 C 
ATOM     29  C   UNL     1       0.584  10.135  18.698  0.00  0.00    +0.000 C 
ATOM     30  C   UNL     1      -0.692  10.233  19.545  0.00  0.00    +0.000 C 
ENDBRANCH   7  21
TORSDOF 3
ENDMDL
MODEL 8
REMARK VINA RESULT:      -6.6      4.082      7.465
REMARK  Name = 
REMARK  5 active torsions:
REMARK  status: ('A' for Active; 'I' for Inactive)
REMARK    1  A    between atoms: C_1  and  O_2
REMARK    2  A    between atoms: O_2  and  C_3
REMARK    3  A    between atoms: C_6  and  C_7
REMARK    4  A    between atoms: C_13  and  C_14
REMARK    5  A    between atoms: N_20  and  C_21
REMARK                            x       y       z     vdW  Elec       q    Type
REMARK                         _______ _______ _______ _____ _____    ______ ____
ROOT
ATOM      1  C   UNL     1      -0.579  11.688  19.556  0.00  0.00    +0.000 C 
ATOM      2  O   UNL     1      -0.068  10.574  19.682  0.00  0.00    +0.000 OA
ATOM      3  N   UNL     1       0.217  12.850  19.523  0.00  0.00    +0.000 N 
ATOM      4  C   UNL     1       1.666  12.691  19.421  0.00  0.00    +0.000 C 
ATOM      5  C   UNL     1       2.403  13.463  20.507  0.00  0.00    +0.000 C 
ATOM      6  C   UNL     1       1.962  14.926  20.545  0.00  0.00    +0.000 C 
ATOM      7  C   UNL     1       0.442  15.049  20.709  0.00  0.00    +0.000 C 
ATOM      8  C   UNL     1      -0.264  14.236  19.622  0.00  0.00    +0.000 C 
ENDROOT
BRANCH   1  12
ATOM      9  C   UNL     1      -4.830  12.176  18.979  0.00  0.00    +0.000 A 
ATOM     10  C   UNL     1      -4.203  12.560  20.159  0.00  0.00    +0.000 A 
ATOM     11  C   UNL     1      -2.830  12.428  20.286  0.00  0.00    +0.000 A 
ATOM     12  C   UNL     1      -2.065  11.765  19.317  0.00  0.00    +0.000 A 
ATOM     13  C   UNL     1      -2.686  11.341  18.100  0.00  0.00    +0.000 A 
ATOM     14  C   UNL     1      -2.008  10.718  17.021  0.00  0.00    +0.000 A 
ATOM     15  C   UNL     1      -2.634  10.419  15.810  0.00  0.00    +0.000 A 
ATOM     16  C   UNL     1      -3.975  10.710  15.639  0.00  0.00    +0.000 A 
ATOM     17  C   UNL     1      -4.693  11.265  16.698  0.00  0.00    +0.000 A 
ATOM     18  C   UNL     1      -4.081  11.586  17.929  0.00  0.00    +0.000 A 
BRANCH   9  20
ATOM     19  C   UNL     1      -7.031  11.573  19.619  0.00  0.00    +0.000 C 
ATOM     20  O   UNL     1      -6.181  12.353  18.783  0.00  0.00    +0.000 OA
ENDBRANCH   9  20
ENDBRANCH   1  12
BRANCH   7  21
ATOM     21  C   UNL     1      -0.091  14.614  22.079  0.00  0.00    +0.000 C 
ATOM     22  O   UNL     1       0.284  13.560  22.597  0.00  0.00    +0.000 OA
ATOM     23  N   UNL     1      -1.030  15.412  22.724  0.00  0.00    +0.000 N 
ATOM     24  C   UNL     1      -1.502  14.893  24.008  0.00  0.00    +0.000 C 
ATOM     25  C   UNL     1      -2.468  15.771  24.789  0.00  0.00    +0.000 C 
ATOM     26  C   UNL     1      -3.897  15.731  24.238  0.00  0.00    +0.000 C 
ATOM     27  N   UNL     1      -4.123  16.493  23.001  0.00  0.00    +0.000 NA
ATOM     28  C   UNL     1      -5.537  16.418  22.621  0.00  0.00    +0.000 C 
ATOM     29  C   UNL     1      -3.286  16.051  21.877  0.00  0.00    +0.000 C 
ATOM     30  C   UNL     1      -1.816  16.451  22.062  0.00  0.00    +0.000 C 
ENDBRANCH   7  21
TORSDOF 3
ENDMDL
MODEL 9
REMARK VINA RESULT:      -6.6      2.435      3.751
REMARK  Name = 
REMARK  5 active torsions:
REMARK  status: ('A' for Active; 'I' for Inactive)
REMARK    1  A    between atoms: C_1  and  O_2
REMARK    2  A    between atoms: O_2  and  C_3
REMARK    3  A    between atoms: C_6  and  C_7
REMARK    4  A    between atoms: C_13  and  C_14
REMARK    5  A    between atoms: N_20  and  C_21
REMARK                            x       y       z     vdW  Elec       q    Type
REMARK                         _______ _______ _______ _____ _____    ______ ____
ROOT
ATOM      1  C   UNL     1      -2.330  13.045  21.276  0.00  0.00    +0.000 C 
ATOM      2  O   UNL     1      -3.555  13.013  21.151  0.00  0.00    +0.000 OA
ATOM      3  N   UNL     1      -1.713  13.980  22.129  0.00  0.00    +0.000 N 
ATOM      4  C   UNL     1      -2.562  14.763  23.024  0.00  0.00    +0.000 C 
ATOM      5  C   UNL     1      -2.304  16.258  22.894  0.00  0.00    +0.000 C 
ATOM      6  C   UNL     1      -0.818  16.580  23.045  0.00  0.00    +0.000 C 
ATOM      7  C   UNL     1       0.033  15.780  22.051  0.00  0.00    +0.000 C 
ATOM      8  C   UNL     1      -0.276  14.287  22.188  0.00  0.00    +0.000 C 
ENDROOT
BRANCH   1  12
ATOM      9  C   UNL     1       0.114  10.197  19.140  0.00  0.00    +0.000 A 
ATOM     10  C   UNL     1      -0.574  11.210  18.482  0.00  0.00    +0.000 A 
ATOM     11  C   UNL     1      -1.310  12.130  19.209  0.00  0.00    +0.000 A 
ATOM     12  C   UNL     1      -1.519  11.978  20.587  0.00  0.00    +0.000 A 
ATOM     13  C   UNL     1      -0.839  10.933  21.289  0.00  0.00    +0.000 A 
ATOM     14  C   UNL     1      -0.919  10.716  22.689  0.00  0.00    +0.000 A 
ATOM     15  C   UNL     1      -0.154   9.751  23.345  0.00  0.00    +0.000 A 
ATOM     16  C   UNL     1       0.706   8.945  22.622  0.00  0.00    +0.000 A 
ATOM     17  C   UNL     1       0.767   9.084  21.236  0.00  0.00    +0.000 A 
ATOM     18  C   UNL     1       0.011  10.059  20.548  0.00  0.00    +0.000 A 
BRANCH   9  20
ATOM     19  C   UNL     1       2.083   9.856  17.865  0.00  0.00    +0.000 C 
ATOM     20  O   UNL     1       0.914   9.304  18.465  0.00  0.00    +0.000 OA
ENDBRANCH   9  20
ENDBRANCH   1  12
BRANCH   7  21
ATOM     21  C   UNL     1      -0.142  16.191  20.584  0.00  0.00    +0.000 C 
ATOM     22  O   UNL     1      -1.233  16.076  20.022  0.00  0.00    +0.000 OA
ATOM     23  N   UNL     1       0.958  16.670  19.880  0.00  0.00    +0.000 N 
ATOM     24  C   UNL     1       0.697  17.001  18.480  0.00  0.00    +0.000 C 
ATOM     25  C   UNL     1       1.848  17.608  17.691  0.00  0.00    +0.000 C 
ATOM     26  C   UNL     1       2.893  16.573  17.261  0.00  0.00    +0.000 C 
ATOM     27  N   UNL     1       3.797  16.102  18.321  0.00  0.00    +0.000 NA
ATOM     28  C   UNL     1       4.777  15.167  17.762  0.00  0.00    +0.000 C 
ATOM     29  C   UNL     1       3.100  15.470  19.450  0.00  0.00    +0.000 C 
ATOM     30  C   UNL     1       2.344  16.494  20.307  0.00  0.00    +0.000 C 
ENDBRANCH   7  21
TORSDOF 3
ENDMDL
