MODEL 1
REMARK VINA RESULT:      -7.5      0.000      0.000
REMARK  Name = 
REMARK  13 active torsions:
REMARK  status: ('A' for Active; 'I' for Inactive)
REMARK    1  A    between atoms: C_2  and  O_3
REMARK    2  A    between atoms: C_2  and  C_4
REMARK    3  A    between atoms: C_4  and  C_5
REMARK    4  A    between atoms: C_5  and  O_6
REMARK    5  A    between atoms: C_5  and  C_7
REMARK    6  A    between atoms: C_7  and  C_8
REMARK    7  A    between atoms: C_8  and  O_9
REMARK    8  A    between atoms: C_8  and  C_10
REMARK    9  A    between atoms: C_10  and  C_11
REMARK   10  A    between atoms: C_11  and  N_12
REMARK   11  A    between atoms: C_13  and  C_14
REMARK   12  A    between atoms: C_19  and  C_20
REMARK   13  A    between atoms: C_26  and  C_27
REMARK                            x       y       z     vdW  Elec       q    Type
REMARK                         _______ _______ _______ _____ _____    ______ ____
ROOT
ATOM      1  N   UNL     1       4.380   4.508  18.169  0.00  0.00    +0.000 N 
ATOM      2  C   UNL     1       3.626   3.602  17.429  0.00  0.00    +0.000 A 
ATOM      3  N   UNL     1       4.119   3.521  16.204  0.00  0.00    +0.000 NA
ATOM      4  C   UNL     1       5.201   4.344  16.124  0.00  0.00    +0.000 A 
ATOM      5  C   UNL     1       5.386   5.045  17.313  0.00  0.00    +0.000 A 
ENDROOT
BRANCH   5   6
ATOM      6  C   UNL     1       6.344   6.146  17.638  0.00  0.00    +0.000 A 
ATOM      7  C   UNL     1       7.449   5.897  18.476  0.00  0.00    +0.000 A 
ATOM      8  C   UNL     1       8.339   6.914  18.846  0.00  0.00    +0.000 A 
ATOM      9  C   UNL     1       8.188   8.184  18.316  0.00  0.00    +0.000 A 
ATOM     10  F   UNL     1       9.057   9.152  18.634  0.00  0.00    +0.000 F 
ATOM     11  C   UNL     1       7.133   8.465  17.467  0.00  0.00    +0.000 A 
ATOM     12  C   UNL     1       6.198   7.466  17.175  0.00  0.00    +0.000 A 
ENDBRANCH   5   6
BRANCH   4  13
ATOM     13  C   UNL     1       5.966   4.408  14.896  0.00  0.00    +0.000 A 
ATOM     14  C   UNL     1       5.570   3.677  13.769  0.00  0.00    +0.000 A 
ATOM     15  C   UNL     1       6.314   3.746  12.594  0.00  0.00    +0.000 A 
ATOM     16  C   UNL     1       7.442   4.553  12.578  0.00  0.00    +0.000 A 
ATOM     17  N   UNL     1       7.874   5.257  13.646  0.00  0.00    +0.000 NA
ATOM     18  C   UNL     1       7.138   5.152  14.779  0.00  0.00    +0.000 A 
ENDBRANCH   4  13
BRANCH   2  19
ATOM     19  C   UNL     1       2.421   2.766  17.813  0.00  0.00    +0.000 C 
ATOM     20  F   UNL     1       2.412   2.219  19.045  0.00  0.00    +0.000 F 
ATOM     21  F   UNL     1       1.278   3.501  17.730  0.00  0.00    +0.000 F 
ATOM     22  F   UNL     1       2.266   1.718  16.956  0.00  0.00    +0.000 F 
ENDBRANCH   2  19
BRANCH   1  23
ATOM     23  C   UNL     1       4.305   4.912  19.565  0.00  0.00    +0.000 C 
BRANCH  23  24
ATOM     24  C   UNL     1       2.999   5.242  20.251  0.00  0.00    +0.000 C 
BRANCH  24  25
ATOM     25  C   UNL     1       2.527   6.671  19.963  0.00  0.00    +0.000 C 
BRANCH  25  26
ATOM     26  O   UNL     1       2.262   6.809  18.568  0.00  0.00    +0.000 OA
ATOM     27  H   UNL     1       2.603   7.674  18.275  0.00  0.00    +0.000 HD
ENDBRANCH  25  26
BRANCH  25  28
ATOM     28  C   UNL     1       1.251   7.014  20.743  0.00  0.00    +0.000 C 
BRANCH  28  29
ATOM     29  C   UNL     1       1.124   8.505  21.097  0.00  0.00    +0.000 C 
BRANCH  29  30
ATOM     30  O   UNL     1       1.239   9.284  19.903  0.00  0.00    +0.000 OA
ATOM     31  H   UNL     1       0.471   9.106  19.333  0.00  0.00    +0.000 HD
ENDBRANCH  29  30
BRANCH  29  32
ATOM     32  C   UNL     1      -0.196   8.841  21.788  0.00  0.00    +0.000 C 
BRANCH  32  34
ATOM     33  O   UNL     1      -0.150  10.981  22.922  0.00  0.00    +0.000 OA
ATOM     34  C   UNL     1      -0.378  10.335  21.913  0.00  0.00    +0.000 C 
BRANCH  34  35
ATOM     35  O   UNL     1      -0.827  10.909  20.777  0.00  0.00    +0.000 OA
ATOM     36  H   UNL     1      -1.690  10.575  20.464  0.00  0.00    +0.000 HD
ENDBRANCH  34  35
ENDBRANCH  32  34
ENDBRANCH  29  32
ENDBRANCH  28  29
ENDBRANCH  25  28
ENDBRANCH  24  25
ENDBRANCH  23  24
ENDBRANCH   1  23
TORSDOF 13
ENDMDL
MODEL 2
REMARK VINA RESULT:      -7.5      1.543      1.928
REMARK  Name = 
REMARK  13 active torsions:
REMARK  status: ('A' for Active; 'I' for Inactive)
REMARK    1  A    between atoms: C_2  and  O_3
REMARK    2  A    between atoms: C_2  and  C_4
REMARK    3  A    between atoms: C_4  and  C_5
REMARK    4  A    between atoms: C_5  and  O_6
REMARK    5  A    between atoms: C_5  and  C_7
REMARK    6  A    between atoms: C_7  and  C_8
REMARK    7  A    between atoms: C_8  and  O_9
REMARK    8  A    between atoms: C_8  and  C_10
REMARK    9  A    between atoms: C_10  and  C_11
REMARK   10  A    between atoms: C_11  and  N_12
REMARK   11  A    between atoms: C_13  and  C_14
REMARK   12  A    between atoms: C_19  and  C_20
REMARK   13  A    between atoms: C_26  and  C_27
REMARK                            x       y       z     vdW  Elec       q    Type
REMARK                         _______ _______ _______ _____ _____    ______ ____
ROOT
ATOM      1  N   UNL     1       4.445   4.372  18.135  0.00  0.00    +0.000 N 
ATOM      2  C   UNL     1       3.703   3.469  17.377  0.00  0.00    +0.000 A 
ATOM      3  N   UNL     1       4.188   3.428  16.148  0.00  0.00    +0.000 NA
ATOM      4  C   UNL     1       5.253   4.275  16.080  0.00  0.00    +0.000 A 
ATOM      5  C   UNL     1       5.432   4.951  17.285  0.00  0.00    +0.000 A 
ENDROOT
BRANCH   5   6
ATOM      6  C   UNL     1       6.370   6.063  17.629  0.00  0.00    +0.000 A 
ATOM      7  C   UNL     1       7.473   5.822  18.471  0.00  0.00    +0.000 A 
ATOM      8  C   UNL     1       8.344   6.848  18.861  0.00  0.00    +0.000 A 
ATOM      9  C   UNL     1       8.175   8.123  18.345  0.00  0.00    +0.000 A 
ATOM     10  F   UNL     1       9.026   9.100  18.681  0.00  0.00    +0.000 F 
ATOM     11  C   UNL     1       7.122   8.397  17.493  0.00  0.00    +0.000 A 
ATOM     12  C   UNL     1       6.205   7.386  17.183  0.00  0.00    +0.000 A 
ENDBRANCH   5   6
BRANCH   4  13
ATOM     13  C   UNL     1       6.007   4.384  14.849  0.00  0.00    +0.000 A 
ATOM     14  C   UNL     1       5.610   3.684  13.704  0.00  0.00    +0.000 A 
ATOM     15  C   UNL     1       6.344   3.797  12.525  0.00  0.00    +0.000 A 
ATOM     16  C   UNL     1       7.463   4.617  12.525  0.00  0.00    +0.000 A 
ATOM     17  N   UNL     1       7.896   5.292  13.611  0.00  0.00    +0.000 NA
ATOM     18  C   UNL     1       7.170   5.145  14.745  0.00  0.00    +0.000 A 
ENDBRANCH   4  13
BRANCH   2  19
ATOM     19  C   UNL     1       2.519   2.599  17.750  0.00  0.00    +0.000 C 
ATOM     20  F   UNL     1       2.185   1.607  16.901  0.00  0.00    +0.000 F 
ATOM     21  F   UNL     1       2.723   1.998  18.954  0.00  0.00    +0.000 F 
ATOM     22  F   UNL     1       1.390   3.351  17.883  0.00  0.00    +0.000 F 
ENDBRANCH   2  19
BRANCH   1  23
ATOM     23  C   UNL     1       4.371   4.740  19.540  0.00  0.00    +0.000 C 
BRANCH  23  24
ATOM     24  C   UNL     1       3.092   4.657  20.341  0.00  0.00    +0.000 C 
BRANCH  24  25
ATOM     25  C   UNL     1       2.155   5.840  20.080  0.00  0.00    +0.000 C 
BRANCH  25  26
ATOM     26  O   UNL     1       1.835   6.472  21.318  0.00  0.00    +0.000 OA
ATOM     27  H   UNL     1       2.629   6.461  21.883  0.00  0.00    +0.000 HD
ENDBRANCH  25  26
BRANCH  25  28
ATOM     28  C   UNL     1       2.798   6.878  19.150  0.00  0.00    +0.000 C 
BRANCH  28  29
ATOM     29  C   UNL     1       1.852   8.022  18.751  0.00  0.00    +0.000 C 
BRANCH  29  30
ATOM     30  O   UNL     1       1.448   8.731  19.926  0.00  0.00    +0.000 OA
ATOM     31  H   UNL     1       2.184   9.292  20.227  0.00  0.00    +0.000 HD
ENDBRANCH  29  30
BRANCH  29  32
ATOM     32  C   UNL     1       2.487   9.003  17.769  0.00  0.00    +0.000 C 
BRANCH  32  34
ATOM     33  O   UNL     1       2.494  11.416  17.989  0.00  0.00    +0.000 OA
ATOM     34  C   UNL     1       1.866  10.374  17.892  0.00  0.00    +0.000 C 
BRANCH  34  35
ATOM     35  O   UNL     1       0.516  10.346  17.885  0.00  0.00    +0.000 OA
ATOM     36  H   UNL     1       0.102  10.406  18.767  0.00  0.00    +0.000 HD
ENDBRANCH  34  35
ENDBRANCH  32  34
ENDBRANCH  29  32
ENDBRANCH  28  29
ENDBRANCH  25  28
ENDBRANCH  24  25
ENDBRANCH  23  24
ENDBRANCH   1  23
TORSDOF 13
ENDMDL
MODEL 3
REMARK VINA RESULT:      -7.4      1.447      2.039
REMARK  Name = 
REMARK  13 active torsions:
REMARK  status: ('A' for Active; 'I' for Inactive)
REMARK    1  A    between atoms: C_2  and  O_3
REMARK    2  A    between atoms: C_2  and  C_4
REMARK    3  A    between atoms: C_4  and  C_5
REMARK    4  A    between atoms: C_5  and  O_6
REMARK    5  A    between atoms: C_5  and  C_7
REMARK    6  A    between atoms: C_7  and  C_8
REMARK    7  A    between atoms: C_8  and  O_9
REMARK    8  A    between atoms: C_8  and  C_10
REMARK    9  A    between atoms: C_10  and  C_11
REMARK   10  A    between atoms: C_11  and  N_12
REMARK   11  A    between atoms: C_13  and  C_14
REMARK   12  A    between atoms: C_19  and  C_20
REMARK   13  A    between atoms: C_26  and  C_27
REMARK                            x       y       z     vdW  Elec       q    Type
REMARK                         _______ _______ _______ _____ _____    ______ ____
ROOT
ATOM      1  N   UNL     1       4.421   4.466  18.153  0.00  0.00    +0.000 N 
ATOM      2  C   UNL     1       3.682   3.548  17.409  0.00  0.00    +0.000 A 
ATOM      3  N   UNL     1       4.176   3.480  16.185  0.00  0.00    +0.000 NA
ATOM      4  C   UNL     1       5.244   4.323  16.106  0.00  0.00    +0.000 A 
ATOM      5  C   UNL     1       5.416   5.024  17.298  0.00  0.00    +0.000 A 
ENDROOT
BRANCH   5   6
ATOM      6  C   UNL     1       6.354   6.141  17.625  0.00  0.00    +0.000 A 
ATOM      7  C   UNL     1       6.118   7.434  17.118  0.00  0.00    +0.000 A 
ATOM      8  C   UNL     1       7.002   8.494  17.359  0.00  0.00    +0.000 A 
ATOM      9  C   UNL     1       8.097   8.300  18.184  0.00  0.00    +0.000 A 
ATOM     10  F   UNL     1       8.925   9.319  18.450  0.00  0.00    +0.000 F 
ATOM     11  C   UNL     1       8.351   7.054  18.725  0.00  0.00    +0.000 A 
ATOM     12  C   UNL     1       7.513   5.979  18.405  0.00  0.00    +0.000 A 
ENDBRANCH   5   6
BRANCH   4  13
ATOM     13  C   UNL     1       6.006   4.404  14.879  0.00  0.00    +0.000 A 
ATOM     14  C   UNL     1       5.616   3.680  13.746  0.00  0.00    +0.000 A 
ATOM     15  C   UNL     1       6.359   3.765  12.571  0.00  0.00    +0.000 A 
ATOM     16  C   UNL     1       7.479   4.584  12.560  0.00  0.00    +0.000 A 
ATOM     17  N   UNL     1       7.905   5.283  13.634  0.00  0.00    +0.000 NA
ATOM     18  C   UNL     1       7.171   5.161  14.767  0.00  0.00    +0.000 A 
ENDBRANCH   4  13
BRANCH   2  19
ATOM     19  C   UNL     1       2.493   2.689  17.792  0.00  0.00    +0.000 C 
ATOM     20  F   UNL     1       1.304   3.305  17.943  0.00  0.00    +0.000 F 
ATOM     21  F   UNL     1       2.285   1.714  16.865  0.00  0.00    +0.000 F 
ATOM     22  F   UNL     1       2.718   2.052  18.975  0.00  0.00    +0.000 F 
ENDBRANCH   2  19
BRANCH   1  23
ATOM     23  C   UNL     1       4.338   4.864  19.549  0.00  0.00    +0.000 C 
BRANCH  23  24
ATOM     24  C   UNL     1       3.076   4.716  20.369  0.00  0.00    +0.000 C 
BRANCH  24  25
ATOM     25  C   UNL     1       2.103   5.882  20.169  0.00  0.00    +0.000 C 
BRANCH  25  26
ATOM     26  O   UNL     1       1.814   6.477  21.433  0.00  0.00    +0.000 OA
ATOM     27  H   UNL     1       2.640   6.849  21.794  0.00  0.00    +0.000 HD
ENDBRANCH  25  26
BRANCH  25  28
ATOM     28  C   UNL     1       2.689   6.955  19.241  0.00  0.00    +0.000 C 
BRANCH  28  29
ATOM     29  C   UNL     1       1.723   8.116  18.952  0.00  0.00    +0.000 C 
BRANCH  29  30
ATOM     30  O   UNL     1       1.475   8.837  20.163  0.00  0.00    +0.000 OA
ATOM     31  H   UNL     1       0.677   9.382  20.049  0.00  0.00    +0.000 HD
ENDBRANCH  29  30
BRANCH  29  32
ATOM     32  C   UNL     1       2.254   9.081  17.896  0.00  0.00    +0.000 C 
BRANCH  32  34
ATOM     33  O   UNL     1       0.471  10.642  18.398  0.00  0.00    +0.000 OA
ATOM     34  C   UNL     1       1.620  10.444  18.037  0.00  0.00    +0.000 C 
BRANCH  34  35
ATOM     35  O   UNL     1       2.458  11.453  17.722  0.00  0.00    +0.000 OA
ATOM     36  H   UNL     1       2.471  12.189  18.364  0.00  0.00    +0.000 HD
ENDBRANCH  34  35
ENDBRANCH  32  34
ENDBRANCH  29  32
ENDBRANCH  28  29
ENDBRANCH  25  28
ENDBRANCH  24  25
ENDBRANCH  23  24
ENDBRANCH   1  23
TORSDOF 13
ENDMDL
MODEL 4
REMARK VINA RESULT:      -7.4      1.276      1.905
REMARK  Name = 
REMARK  13 active torsions:
REMARK  status: ('A' for Active; 'I' for Inactive)
REMARK    1  A    between atoms: C_2  and  O_3
REMARK    2  A    between atoms: C_2  and  C_4
REMARK    3  A    between atoms: C_4  and  C_5
REMARK    4  A    between atoms: C_5  and  O_6
REMARK    5  A    between atoms: C_5  and  C_7
REMARK    6  A    between atoms: C_7  and  C_8
REMARK    7  A    between atoms: C_8  and  O_9
REMARK    8  A    between atoms: C_8  and  C_10
REMARK    9  A    between atoms: C_10  and  C_11
REMARK   10  A    between atoms: C_11  and  N_12
REMARK   11  A    between atoms: C_13  and  C_14
REMARK   12  A    between atoms: C_19  and  C_20
REMARK   13  A    between atoms: C_26  and  C_27
REMARK                            x       y       z     vdW  Elec       q    Type
REMARK                         _______ _______ _______ _____ _____    ______ ____
ROOT
ATOM      1  N   UNL     1       4.397   4.507  18.226  0.00  0.00    +0.000 N 
ATOM      2  C   UNL     1       3.633   3.607  17.487  0.00  0.00    +0.000 A 
ATOM      3  N   UNL     1       4.121   3.524  16.261  0.00  0.00    +0.000 NA
ATOM      4  C   UNL     1       5.209   4.340  16.178  0.00  0.00    +0.000 A 
ATOM      5  C   UNL     1       5.403   5.038  17.367  0.00  0.00    +0.000 A 
ENDROOT
BRANCH   5   6
ATOM      6  C   UNL     1       6.370   6.132  17.690  0.00  0.00    +0.000 A 
ATOM      7  C   UNL     1       6.192   7.417  17.143  0.00  0.00    +0.000 A 
ATOM      8  C   UNL     1       7.105   8.454  17.378  0.00  0.00    +0.000 A 
ATOM      9  C   UNL     1       8.172   8.246  18.237  0.00  0.00    +0.000 A 
ATOM     10  F   UNL     1       9.027   9.243  18.498  0.00  0.00    +0.000 F 
ATOM     11  C   UNL     1       8.368   7.007  18.818  0.00  0.00    +0.000 A 
ATOM     12  C   UNL     1       7.503   5.953  18.505  0.00  0.00    +0.000 A 
ENDBRANCH   5   6
BRANCH   4  13
ATOM     13  C   UNL     1       5.970   4.400  14.948  0.00  0.00    +0.000 A 
ATOM     14  C   UNL     1       5.564   3.676  13.821  0.00  0.00    +0.000 A 
ATOM     15  C   UNL     1       6.304   3.741  12.643  0.00  0.00    +0.000 A 
ATOM     16  C   UNL     1       7.439   4.538  12.624  0.00  0.00    +0.000 A 
ATOM     17  N   UNL     1       7.881   5.236  13.693  0.00  0.00    +0.000 NA
ATOM     18  C   UNL     1       7.148   5.134  14.828  0.00  0.00    +0.000 A 
ENDBRANCH   4  13
BRANCH   2  19
ATOM     19  C   UNL     1       2.424   2.779  17.875  0.00  0.00    +0.000 C 
ATOM     20  F   UNL     1       2.414   2.232  19.107  0.00  0.00    +0.000 F 
ATOM     21  F   UNL     1       1.286   3.521  17.795  0.00  0.00    +0.000 F 
ATOM     22  F   UNL     1       2.260   1.732  17.018  0.00  0.00    +0.000 F 
ENDBRANCH   2  19
BRANCH   1  23
ATOM     23  C   UNL     1       4.329   4.909  19.623  0.00  0.00    +0.000 C 
BRANCH  23  24
ATOM     24  C   UNL     1       3.020   5.122  20.350  0.00  0.00    +0.000 C 
BRANCH  24  25
ATOM     25  C   UNL     1       2.222   6.304  19.792  0.00  0.00    +0.000 C 
BRANCH  25  26
ATOM     26  O   UNL     1       1.578   6.987  20.867  0.00  0.00    +0.000 OA
ATOM     27  H   UNL     1       0.904   6.395  21.248  0.00  0.00    +0.000 HD
ENDBRANCH  25  26
BRANCH  25  28
ATOM     28  C   UNL     1       3.124   7.296  19.047  0.00  0.00    +0.000 C 
BRANCH  28  29
ATOM     29  C   UNL     1       2.428   8.004  17.873  0.00  0.00    +0.000 C 
BRANCH  29  30
ATOM     30  O   UNL     1       1.183   7.353  17.601  0.00  0.00    +0.000 OA
ATOM     31  H   UNL     1       0.986   7.431  16.650  0.00  0.00    +0.000 HD
ENDBRANCH  29  30
BRANCH  29  32
ATOM     32  C   UNL     1       2.170   9.485  18.140  0.00  0.00    +0.000 C 
BRANCH  32  34
ATOM     33  O   UNL     1      -0.183   9.997  17.880  0.00  0.00    +0.000 OA
ATOM     34  C   UNL     1       0.754   9.714  18.610  0.00  0.00    +0.000 C 
BRANCH  34  35
ATOM     35  O   UNL     1       0.610   9.573  19.944  0.00  0.00    +0.000 OA
ATOM     36  H   UNL     1       1.202   8.912  20.351  0.00  0.00    +0.000 HD
ENDBRANCH  34  35
ENDBRANCH  32  34
ENDBRANCH  29  32
ENDBRANCH  28  29
ENDBRANCH  25  28
ENDBRANCH  24  25
ENDBRANCH  23  24
ENDBRANCH   1  23
TORSDOF 13
ENDMDL
MODEL 5
REMARK VINA RESULT:      -7.3      0.849      1.377
REMARK  Name = 
REMARK  13 active torsions:
REMARK  status: ('A' for Active; 'I' for Inactive)
REMARK    1  A    between atoms: C_2  and  O_3
REMARK    2  A    between atoms: C_2  and  C_4
REMARK    3  A    between atoms: C_4  and  C_5
REMARK    4  A    between atoms: C_5  and  O_6
REMARK    5  A    between atoms: C_5  and  C_7
REMARK    6  A    between atoms: C_7  and  C_8
REMARK    7  A    between atoms: C_8  and  O_9
REMARK    8  A    between atoms: C_8  and  C_10
REMARK    9  A    between atoms: C_10  and  C_11
REMARK   10  A    between atoms: C_11  and  N_12
REMARK   11  A    between atoms: C_13  and  C_14
REMARK   12  A    between atoms: C_19  and  C_20
REMARK   13  A    between atoms: C_26  and  C_27
REMARK                            x       y       z     vdW  Elec       q    Type
REMARK                         _______ _______ _______ _____ _____    ______ ____
ROOT
ATOM      1  N   UNL     1       4.380   4.484  18.190  0.00  0.00    +0.000 N 
ATOM      2  C   UNL     1       3.619   3.594  17.437  0.00  0.00    +0.000 A 
ATOM      3  N   UNL     1       4.116   3.520  16.214  0.00  0.00    +0.000 NA
ATOM      4  C   UNL     1       5.207   4.332  16.146  0.00  0.00    +0.000 A 
ATOM      5  C   UNL     1       5.394   5.020  17.343  0.00  0.00    +0.000 A 
ENDROOT
BRANCH   5   6
ATOM      6  C   UNL     1       6.362   6.107  17.682  0.00  0.00    +0.000 A 
ATOM      7  C   UNL     1       6.183   7.402  17.158  0.00  0.00    +0.000 A 
ATOM      8  C   UNL     1       7.097   8.435  17.410  0.00  0.00    +0.000 A 
ATOM      9  C   UNL     1       8.166   8.211  18.262  0.00  0.00    +0.000 A 
ATOM     10  F   UNL     1       9.022   9.203  18.538  0.00  0.00    +0.000 F 
ATOM     11  C   UNL     1       8.364   6.962  18.819  0.00  0.00    +0.000 A 
ATOM     12  C   UNL     1       7.497   5.914  18.491  0.00  0.00    +0.000 A 
ENDBRANCH   5   6
BRANCH   4  13
ATOM     13  C   UNL     1       5.977   4.401  14.922  0.00  0.00    +0.000 A 
ATOM     14  C   UNL     1       5.585   3.676  13.790  0.00  0.00    +0.000 A 
ATOM     15  C   UNL     1       6.334   3.749  12.618  0.00  0.00    +0.000 A 
ATOM     16  C   UNL     1       7.463   4.555  12.610  0.00  0.00    +0.000 A 
ATOM     17  N   UNL     1       7.891   5.254  13.684  0.00  0.00    +0.000 NA
ATOM     18  C   UNL     1       7.151   5.144  14.813  0.00  0.00    +0.000 A 
ENDBRANCH   4  13
BRANCH   2  19
ATOM     19  C   UNL     1       2.404   2.766  17.808  0.00  0.00    +0.000 C 
ATOM     20  F   UNL     1       1.204   3.381  17.793  0.00  0.00    +0.000 F 
ATOM     21  F   UNL     1       2.278   1.696  16.977  0.00  0.00    +0.000 F 
ATOM     22  F   UNL     1       2.530   2.261  19.068  0.00  0.00    +0.000 F 
ENDBRANCH   2  19
BRANCH   1  23
ATOM     23  C   UNL     1       4.303   4.875  19.589  0.00  0.00    +0.000 C 
BRANCH  23  24
ATOM     24  C   UNL     1       3.389   5.973  20.082  0.00  0.00    +0.000 C 
BRANCH  24  25
ATOM     25  C   UNL     1       1.954   5.488  20.308  0.00  0.00    +0.000 C 
BRANCH  25  26
ATOM     26  O   UNL     1       1.954   4.453  21.290  0.00  0.00    +0.000 OA
ATOM     27  H   UNL     1       2.172   3.612  20.849  0.00  0.00    +0.000 HD
ENDBRANCH  25  26
BRANCH  25  28
ATOM     28  C   UNL     1       1.041   6.625  20.790  0.00  0.00    +0.000 C 
BRANCH  28  29
ATOM     29  C   UNL     1       1.719   8.005  20.790  0.00  0.00    +0.000 C 
BRANCH  29  30
ATOM     30  O   UNL     1       1.455   8.660  19.546  0.00  0.00    +0.000 OA
ATOM     31  H   UNL     1       0.963   9.482  19.719  0.00  0.00    +0.000 HD
ENDBRANCH  29  30
BRANCH  29  32
ATOM     32  C   UNL     1       1.249   8.898  21.935  0.00  0.00    +0.000 C 
BRANCH  32  34
ATOM     33  O   UNL     1       1.236  11.268  21.434  0.00  0.00    +0.000 OA
ATOM     34  C   UNL     1       0.666  10.189  21.413  0.00  0.00    +0.000 C 
BRANCH  34  35
ATOM     35  O   UNL     1      -0.576  10.042  20.906  0.00  0.00    +0.000 OA
ATOM     36  H   UNL     1      -0.754  10.568  20.102  0.00  0.00    +0.000 HD
ENDBRANCH  34  35
ENDBRANCH  32  34
ENDBRANCH  29  32
ENDBRANCH  28  29
ENDBRANCH  25  28
ENDBRANCH  24  25
ENDBRANCH  23  24
ENDBRANCH   1  23
TORSDOF 13
ENDMDL
MODEL 6
REMARK VINA RESULT:      -7.3      3.706      6.709
REMARK  Name = 
REMARK  13 active torsions:
REMARK  status: ('A' for Active; 'I' for Inactive)
REMARK    1  A    between atoms: C_2  and  O_3
REMARK    2  A    between atoms: C_2  and  C_4
REMARK    3  A    between atoms: C_4  and  C_5
REMARK    4  A    between atoms: C_5  and  O_6
REMARK    5  A    between atoms: C_5  and  C_7
REMARK    6  A    between atoms: C_7  and  C_8
REMARK    7  A    between atoms: C_8  and  O_9
REMARK    8  A    between atoms: C_8  and  C_10
REMARK    9  A    between atoms: C_10  and  C_11
REMARK   10  A    between atoms: C_11  and  N_12
REMARK   11  A    between atoms: C_13  and  C_14
REMARK   12  A    between atoms: C_19  and  C_20
REMARK   13  A    between atoms: C_26  and  C_27
REMARK                            x       y       z     vdW  Elec       q    Type
REMARK                         _______ _______ _______ _____ _____    ______ ____
ROOT
ATOM      1  N   UNL     1       3.553   4.041  19.899  0.00  0.00    +0.000 N 
ATOM      2  C   UNL     1       2.383   3.921  20.643  0.00  0.00    +0.000 A 
ATOM      3  N   UNL     1       1.776   5.095  20.694  0.00  0.00    +0.000 NA
ATOM      4  C   UNL     1       2.514   5.990  19.980  0.00  0.00    +0.000 A 
ATOM      5  C   UNL     1       3.684   5.404  19.501  0.00  0.00    +0.000 A 
ENDROOT
BRANCH   5   6
ATOM      6  C   UNL     1       4.848   6.025  18.798  0.00  0.00    +0.000 A 
ATOM      7  C   UNL     1       6.163   5.713  19.196  0.00  0.00    +0.000 A 
ATOM      8  C   UNL     1       7.278   6.314  18.598  0.00  0.00    +0.000 A 
ATOM      9  C   UNL     1       7.101   7.177  17.530  0.00  0.00    +0.000 A 
ATOM     10  F   UNL     1       8.164   7.726  16.927  0.00  0.00    +0.000 F 
ATOM     11  C   UNL     1       5.829   7.489  17.089  0.00  0.00    +0.000 A 
ATOM     12  C   UNL     1       4.718   6.955  17.751  0.00  0.00    +0.000 A 
ENDBRANCH   5   6
BRANCH   4  13
ATOM     13  C   UNL     1       2.045   7.351  19.831  0.00  0.00    +0.000 A 
ATOM     14  C   UNL     1       1.511   8.047  20.922  0.00  0.00    +0.000 A 
ATOM     15  C   UNL     1       1.063   9.356  20.766  0.00  0.00    +0.000 A 
ATOM     16  C   UNL     1       1.165   9.940  19.511  0.00  0.00    +0.000 A 
ATOM     17  N   UNL     1       1.652   9.300  18.426  0.00  0.00    +0.000 NA
ATOM     18  C   UNL     1       2.061   8.021  18.609  0.00  0.00    +0.000 A 
ENDBRANCH   4  13
BRANCH   2  19
ATOM     19  C   UNL     1       1.765   2.723  21.335  0.00  0.00    +0.000 C 
ATOM     20  F   UNL     1       0.785   2.958  22.230  0.00  0.00    +0.000 F 
ATOM     21  F   UNL     1       1.231   1.862  20.425  0.00  0.00    +0.000 F 
ATOM     22  F   UNL     1       2.712   2.019  22.018  0.00  0.00    +0.000 F 
ENDBRANCH   2  19
BRANCH   1  23
ATOM     23  C   UNL     1       4.541   3.055  19.490  0.00  0.00    +0.000 C 
BRANCH  23  24
ATOM     24  C   UNL     1       4.173   1.783  18.760  0.00  0.00    +0.000 C 
BRANCH  24  25
ATOM     25  C   UNL     1       3.585   2.049  17.372  0.00  0.00    +0.000 C 
BRANCH  25  26
ATOM     26  O   UNL     1       2.169   1.873  17.417  0.00  0.00    +0.000 OA
ATOM     27  H   UNL     1       1.947   1.049  16.946  0.00  0.00    +0.000 HD
ENDBRANCH  25  26
BRANCH  25  28
ATOM     28  C   UNL     1       3.889   3.475  16.891  0.00  0.00    +0.000 C 
BRANCH  28  29
ATOM     29  C   UNL     1       5.270   3.624  16.234  0.00  0.00    +0.000 C 
BRANCH  29  30
ATOM     30  O   UNL     1       5.685   2.358  15.712  0.00  0.00    +0.000 OA
ATOM     31  H   UNL     1       6.489   2.484  15.178  0.00  0.00    +0.000 HD
ENDBRANCH  29  30
BRANCH  29  32
ATOM     32  C   UNL     1       5.284   4.657  15.109  0.00  0.00    +0.000 C 
BRANCH  32  34
ATOM     33  O   UNL     1       6.569   3.776  13.255  0.00  0.00    +0.000 OA
ATOM     34  C   UNL     1       6.507   4.495  14.238  0.00  0.00    +0.000 C 
BRANCH  34  35
ATOM     35  O   UNL     1       7.554   5.238  14.654  0.00  0.00    +0.000 OA
ATOM     36  H   UNL     1       8.018   4.886  15.438  0.00  0.00    +0.000 HD
ENDBRANCH  34  35
ENDBRANCH  32  34
ENDBRANCH  29  32
ENDBRANCH  28  29
ENDBRANCH  25  28
ENDBRANCH  24  25
ENDBRANCH  23  24
ENDBRANCH   1  23
TORSDOF 13
ENDMDL
MODEL 7
REMARK VINA RESULT:      -7.3      1.011      1.322
REMARK  Name = 
REMARK  13 active torsions:
REMARK  status: ('A' for Active; 'I' for Inactive)
REMARK    1  A    between atoms: C_2  and  O_3
REMARK    2  A    between atoms: C_2  and  C_4
REMARK    3  A    between atoms: C_4  and  C_5
REMARK    4  A    between atoms: C_5  and  O_6
REMARK    5  A    between atoms: C_5  and  C_7
REMARK    6  A    between atoms: C_7  and  C_8
REMARK    7  A    between atoms: C_8  and  O_9
REMARK    8  A    between atoms: C_8  and  C_10
REMARK    9  A    between atoms: C_10  and  C_11
REMARK   10  A    between atoms: C_11  and  N_12
REMARK   11  A    between atoms: C_13  and  C_14
REMARK   12  A    between atoms: C_19  and  C_20
REMARK   13  A    between atoms: C_26  and  C_27
REMARK                            x       y       z     vdW  Elec       q    Type
REMARK                         _______ _______ _______ _____ _____    ______ ____
ROOT
ATOM      1  N   UNL     1       4.442   4.444  18.147  0.00  0.00    +0.000 N 
ATOM      2  C   UNL     1       3.689   3.540  17.402  0.00  0.00    +0.000 A 
ATOM      3  N   UNL     1       4.171   3.479  16.172  0.00  0.00    +0.000 NA
ATOM      4  C   UNL     1       5.245   4.313  16.092  0.00  0.00    +0.000 A 
ATOM      5  C   UNL     1       5.435   5.001  17.288  0.00  0.00    +0.000 A 
ENDROOT
BRANCH   5   6
ATOM      6  C   UNL     1       6.385   6.107  17.617  0.00  0.00    +0.000 A 
ATOM      7  C   UNL     1       7.478   5.868  18.473  0.00  0.00    +0.000 A 
ATOM      8  C   UNL     1       8.361   6.890  18.848  0.00  0.00    +0.000 A 
ATOM      9  C   UNL     1       8.214   8.155  18.305  0.00  0.00    +0.000 A 
ATOM     10  F   UNL     1       9.077   9.128  18.628  0.00  0.00    +0.000 F 
ATOM     11  C   UNL     1       7.172   8.426  17.439  0.00  0.00    +0.000 A 
ATOM     12  C   UNL     1       6.243   7.423  17.141  0.00  0.00    +0.000 A 
ENDBRANCH   5   6
BRANCH   4  13
ATOM     13  C   UNL     1       5.998   4.399  14.858  0.00  0.00    +0.000 A 
ATOM     14  C   UNL     1       5.600   3.677  13.727  0.00  0.00    +0.000 A 
ATOM     15  C   UNL     1       6.332   3.767  12.546  0.00  0.00    +0.000 A 
ATOM     16  C   UNL     1       7.450   4.588  12.528  0.00  0.00    +0.000 A 
ATOM     17  N   UNL     1       7.883   5.285  13.600  0.00  0.00    +0.000 NA
ATOM     18  C   UNL     1       7.160   5.159  14.738  0.00  0.00    +0.000 A 
ENDBRANCH   4  13
BRANCH   2  19
ATOM     19  C   UNL     1       2.496   2.688  17.787  0.00  0.00    +0.000 C 
ATOM     20  F   UNL     1       1.297   3.298  17.870  0.00  0.00    +0.000 F 
ATOM     21  F   UNL     1       2.327   1.667  16.903  0.00  0.00    +0.000 F 
ATOM     22  F   UNL     1       2.688   2.111  19.007  0.00  0.00    +0.000 F 
ENDBRANCH   2  19
BRANCH   1  23
ATOM     23  C   UNL     1       4.376   4.830  19.548  0.00  0.00    +0.000 C 
BRANCH  23  24
ATOM     24  C   UNL     1       3.353   5.808  20.079  0.00  0.00    +0.000 C 
BRANCH  24  25
ATOM     25  C   UNL     1       2.001   5.148  20.367  0.00  0.00    +0.000 C 
BRANCH  25  26
ATOM     26  O   UNL     1       2.125   4.296  21.505  0.00  0.00    +0.000 OA
ATOM     27  H   UNL     1       2.005   3.374  21.213  0.00  0.00    +0.000 HD
ENDBRANCH  25  26
BRANCH  25  28
ATOM     28  C   UNL     1       0.911   6.190  20.649  0.00  0.00    +0.000 C 
BRANCH  28  29
ATOM     29  C   UNL     1       1.456   7.610  20.874  0.00  0.00    +0.000 C 
BRANCH  29  30
ATOM     30  O   UNL     1       1.907   8.146  19.627  0.00  0.00    +0.000 OA
ATOM     31  H   UNL     1       2.742   7.711  19.379  0.00  0.00    +0.000 HD
ENDBRANCH  29  30
BRANCH  29  32
ATOM     32  C   UNL     1       0.420   8.555  21.479  0.00  0.00    +0.000 C 
BRANCH  32  34
ATOM     33  O   UNL     1       0.297   9.685  23.618  0.00  0.00    +0.000 OA
ATOM     34  C   UNL     1       0.972   9.260  22.694  0.00  0.00    +0.000 C 
BRANCH  34  35
ATOM     35  O   UNL     1       2.316   9.381  22.671  0.00  0.00    +0.000 OA
ATOM     36  H   UNL     1       2.804   8.562  22.886  0.00  0.00    +0.000 HD
ENDBRANCH  34  35
ENDBRANCH  32  34
ENDBRANCH  29  32
ENDBRANCH  28  29
ENDBRANCH  25  28
ENDBRANCH  24  25
ENDBRANCH  23  24
ENDBRANCH   1  23
TORSDOF 13
ENDMDL
MODEL 8
REMARK VINA RESULT:      -7.2      1.609      1.981
REMARK  Name = 
REMARK  13 active torsions:
REMARK  status: ('A' for Active; 'I' for Inactive)
REMARK    1  A    between atoms: C_2  and  O_3
REMARK    2  A    between atoms: C_2  and  C_4
REMARK    3  A    between atoms: C_4  and  C_5
REMARK    4  A    between atoms: C_5  and  O_6
REMARK    5  A    between atoms: C_5  and  C_7
REMARK    6  A    between atoms: C_7  and  C_8
REMARK    7  A    between atoms: C_8  and  O_9
REMARK    8  A    between atoms: C_8  and  C_10
REMARK    9  A    between atoms: C_10  and  C_11
REMARK   10  A    between atoms: C_11  and  N_12
REMARK   11  A    between atoms: C_13  and  C_14
REMARK   12  A    between atoms: C_19  and  C_20
REMARK   13  A    between atoms: C_26  and  C_27
REMARK                            x       y       z     vdW  Elec       q    Type
REMARK                         _______ _______ _______ _____ _____    ______ ____
ROOT
ATOM      1  N   UNL     1       4.368   4.290  18.226  0.00  0.00    +0.000 N 
ATOM      2  C   UNL     1       3.599   3.376  17.511  0.00  0.00    +0.000 A 
ATOM      3  N   UNL     1       4.046   3.305  16.269  0.00  0.00    +0.000 NA
ATOM      4  C   UNL     1       5.113   4.145  16.151  0.00  0.00    +0.000 A 
ATOM      5  C   UNL     1       5.332   4.845  17.335  0.00  0.00    +0.000 A 
ENDROOT
BRANCH   5   6
ATOM      6  C   UNL     1       6.286   5.958  17.627  0.00  0.00    +0.000 A 
ATOM      7  C   UNL     1       7.400   5.735  18.459  0.00  0.00    +0.000 A 
ATOM      8  C   UNL     1       8.287   6.765  18.799  0.00  0.00    +0.000 A 
ATOM      9  C   UNL     1       8.122   8.023  18.244  0.00  0.00    +0.000 A 
ATOM     10  F   UNL     1       8.987   9.003  18.534  0.00  0.00    +0.000 F 
ATOM     11  C   UNL     1       7.057   8.279  17.401  0.00  0.00    +0.000 A 
ATOM     12  C   UNL     1       6.126   7.268  17.139  0.00  0.00    +0.000 A 
ENDBRANCH   5   6
BRANCH   4  13
ATOM     13  C   UNL     1       5.830   4.224  14.895  0.00  0.00    +0.000 A 
ATOM     14  C   UNL     1       7.010   4.970  14.792  0.00  0.00    +0.000 A 
ATOM     15  C   UNL     1       7.690   5.039  13.579  0.00  0.00    +0.000 A 
ATOM     16  C   UNL     1       7.168   4.351  12.493  0.00  0.00    +0.000 A 
ATOM     17  N   UNL     1       6.022   3.638  12.541  0.00  0.00    +0.000 NA
ATOM     18  C   UNL     1       5.375   3.608  13.731  0.00  0.00    +0.000 A 
ENDBRANCH   4  13
BRANCH   2  19
ATOM     19  C   UNL     1       2.422   2.521  17.938  0.00  0.00    +0.000 C 
ATOM     20  F   UNL     1       2.510   1.890  19.126  0.00  0.00    +0.000 F 
ATOM     21  F   UNL     1       1.284   3.265  18.002  0.00  0.00    +0.000 F 
ATOM     22  F   UNL     1       2.185   1.535  17.027  0.00  0.00    +0.000 F 
ENDBRANCH   2  19
BRANCH   1  23
ATOM     23  C   UNL     1       4.339   4.689  19.625  0.00  0.00    +0.000 C 
BRANCH  23  24
ATOM     24  C   UNL     1       3.073   4.683  20.451  0.00  0.00    +0.000 C 
BRANCH  24  25
ATOM     25  C   UNL     1       2.082   5.767  20.018  0.00  0.00    +0.000 C 
BRANCH  25  26
ATOM     26  O   UNL     1       1.480   6.346  21.175  0.00  0.00    +0.000 OA
ATOM     27  H   UNL     1       1.705   5.794  21.947  0.00  0.00    +0.000 HD
ENDBRANCH  25  26
BRANCH  25  28
ATOM     28  C   UNL     1       2.772   6.878  19.215  0.00  0.00    +0.000 C 
BRANCH  28  29
ATOM     29  C   UNL     1       1.847   8.055  18.866  0.00  0.00    +0.000 C 
BRANCH  29  30
ATOM     30  O   UNL     1       1.566   8.803  20.053  0.00  0.00    +0.000 OA
ATOM     31  H   UNL     1       1.478   8.186  20.802  0.00  0.00    +0.000 HD
ENDBRANCH  29  30
BRANCH  29  32
ATOM     32  C   UNL     1       2.445   8.990  17.817  0.00  0.00    +0.000 C 
BRANCH  32  34
ATOM     33  O   UNL     1       2.461  11.404  18.012  0.00  0.00    +0.000 OA
ATOM     34  C   UNL     1       1.830  10.366  17.901  0.00  0.00    +0.000 C 
BRANCH  34  35
ATOM     35  O   UNL     1       0.482  10.347  17.842  0.00  0.00    +0.000 OA
ATOM     36  H   UNL     1       0.053   9.754  18.489  0.00  0.00    +0.000 HD
ENDBRANCH  34  35
ENDBRANCH  32  34
ENDBRANCH  29  32
ENDBRANCH  28  29
ENDBRANCH  25  28
ENDBRANCH  24  25
ENDBRANCH  23  24
ENDBRANCH   1  23
TORSDOF 13
ENDMDL
MODEL 9
REMARK VINA RESULT:      -7.2      0.884      1.544
REMARK  Name = 
REMARK  13 active torsions:
REMARK  status: ('A' for Active; 'I' for Inactive)
REMARK    1  A    between atoms: C_2  and  O_3
REMARK    2  A    between atoms: C_2  and  C_4
REMARK    3  A    between atoms: C_4  and  C_5
REMARK    4  A    between atoms: C_5  and  O_6
REMARK    5  A    between atoms: C_5  and  C_7
REMARK    6  A    between atoms: C_7  and  C_8
REMARK    7  A    between atoms: C_8  and  O_9
REMARK    8  A    between atoms: C_8  and  C_10
REMARK    9  A    between atoms: C_10  and  C_11
REMARK   10  A    between atoms: C_11  and  N_12
REMARK   11  A    between atoms: C_13  and  C_14
REMARK   12  A    between atoms: C_19  and  C_20
REMARK   13  A    between atoms: C_26  and  C_27
REMARK                            x       y       z     vdW  Elec       q    Type
REMARK                         _______ _______ _______ _____ _____    ______ ____
ROOT
ATOM      1  N   UNL     1       4.302   4.501  18.216  0.00  0.00    +0.000 N 
ATOM      2  C   UNL     1       3.536   3.584  17.501  0.00  0.00    +0.000 A 
ATOM      3  N   UNL     1       4.020   3.472  16.275  0.00  0.00    +0.000 NA
ATOM      4  C   UNL     1       5.107   4.286  16.169  0.00  0.00    +0.000 A 
ATOM      5  C   UNL     1       5.304   5.013  17.341  0.00  0.00    +0.000 A 
ENDROOT
BRANCH   5   6
ATOM      6  C   UNL     1       6.272   6.114  17.635  0.00  0.00    +0.000 A 
ATOM      7  C   UNL     1       6.064   7.399  17.097  0.00  0.00    +0.000 A 
ATOM      8  C   UNL     1       6.976   8.443  17.305  0.00  0.00    +0.000 A 
ATOM      9  C   UNL     1       8.072   8.242  18.127  0.00  0.00    +0.000 A 
ATOM     10  F   UNL     1       8.926   9.246  18.363  0.00  0.00    +0.000 F 
ATOM     11  C   UNL     1       8.298   7.004  18.698  0.00  0.00    +0.000 A 
ATOM     12  C   UNL     1       7.432   5.943  18.411  0.00  0.00    +0.000 A 
ENDBRANCH   5   6
BRANCH   4  13
ATOM     13  C   UNL     1       5.863   4.318  14.935  0.00  0.00    +0.000 A 
ATOM     14  C   UNL     1       7.025   5.092  14.829  0.00  0.00    +0.000 A 
ATOM     15  C   UNL     1       7.744   5.115  13.637  0.00  0.00    +0.000 A 
ATOM     16  C   UNL     1       7.278   4.354  12.574  0.00  0.00    +0.000 A 
ATOM     17  N   UNL     1       6.151   3.612  12.624  0.00  0.00    +0.000 NA
ATOM     18  C   UNL     1       5.466   3.627  13.792  0.00  0.00    +0.000 A 
ENDBRANCH   4  13
BRANCH   2  19
ATOM     19  C   UNL     1       2.329   2.764  17.912  0.00  0.00    +0.000 C 
ATOM     20  F   UNL     1       2.033   1.678  17.171  0.00  0.00    +0.000 F 
ATOM     21  F   UNL     1       2.467   2.310  19.188  0.00  0.00    +0.000 F 
ATOM     22  F   UNL     1       1.199   3.526  17.897  0.00  0.00    +0.000 F 
ENDBRANCH   2  19
BRANCH   1  23
ATOM     23  C   UNL     1       4.238   4.936  19.603  0.00  0.00    +0.000 C 
BRANCH  23  24
ATOM     24  C   UNL     1       2.971   5.460  20.238  0.00  0.00    +0.000 C 
BRANCH  24  25
ATOM     25  C   UNL     1       2.614   6.872  19.764  0.00  0.00    +0.000 C 
BRANCH  25  26
ATOM     26  O   UNL     1       2.253   6.830  18.385  0.00  0.00    +0.000 OA
ATOM     27  H   UNL     1       1.973   7.723  18.113  0.00  0.00    +0.000 HD
ENDBRANCH  25  26
BRANCH  25  28
ATOM     28  C   UNL     1       1.441   7.458  20.563  0.00  0.00    +0.000 C 
BRANCH  28  29
ATOM     29  C   UNL     1       1.279   8.978  20.398  0.00  0.00    +0.000 C 
BRANCH  29  30
ATOM     30  O   UNL     1       1.259   9.302  19.004  0.00  0.00    +0.000 OA
ATOM     31  H   UNL     1       1.358   8.483  18.488  0.00  0.00    +0.000 HD
ENDBRANCH  29  30
BRANCH  29  32
ATOM     32  C   UNL     1       0.010   9.515  21.055  0.00  0.00    +0.000 C 
BRANCH  32  34
ATOM     33  O   UNL     1       0.869   9.754  23.307  0.00  0.00    +0.000 OA
ATOM     34  C   UNL     1       0.034   9.290  22.547  0.00  0.00    +0.000 C 
BRANCH  34  35
ATOM     35  O   UNL     1      -0.977   8.508  22.981  0.00  0.00    +0.000 OA
ATOM     36  H   UNL     1      -0.732   7.874  23.682  0.00  0.00    +0.000 HD
ENDBRANCH  34  35
ENDBRANCH  32  34
ENDBRANCH  29  32
ENDBRANCH  28  29
ENDBRANCH  25  28
ENDBRANCH  24  25
ENDBRANCH  23  24
ENDBRANCH   1  23
TORSDOF 13
ENDMDL
