MODEL 1
REMARK VINA RESULT:      -6.5      0.000      0.000
REMARK  Name = 
REMARK  13 active torsions:
REMARK  status: ('A' for Active; 'I' for Inactive)
REMARK    1  A    between atoms: C_1  and  C_2
REMARK    2  A    between atoms: C_2  and  C_3
REMARK    3  A    between atoms: C_3  and  O_4
REMARK    4  A    between atoms: O_4  and  C_5
REMARK    5  A    between atoms: C_10  and  C_11
REMARK    6  A    between atoms: C_14  and  O_15
REMARK    7  A    between atoms: O_15  and  C_16
REMARK    8  A    between atoms: C_16  and  C_17
REMARK    9  A    between atoms: C_17  and  O_18
REMARK   10  A    between atoms: O_18  and  C_19
REMARK   11  A    between atoms: C_20  and  O_21
REMARK   12  A    between atoms: O_21  and  C_22
REMARK   13  A    between atoms: C_24  and  C_25
REMARK                            x       y       z     vdW  Elec       q    Type
REMARK                         _______ _______ _______ _____ _____    ______ ____
ROOT
ATOM      1  C   UNL     1      -0.903  11.348  21.887  0.00  0.00    +0.000 A 
ATOM      2  C   UNL     1      -0.983  10.472  23.073  0.00  0.00    +0.000 A 
ATOM      3  C   UNL     1      -0.383   9.279  22.973  0.00  0.00    +0.000 A 
ATOM      4  C   UNL     1       0.321   8.953  21.791  0.00  0.00    +0.000 A 
ATOM      5  N   UNL     1       0.993   7.873  21.457  0.00  0.00    +0.000 NA
ATOM      6  C   UNL     1       1.517   8.133  20.203  0.00  0.00    +0.000 A 
ATOM      7  C   UNL     1       1.111   9.380  19.763  0.00  0.00    +0.000 A 
ATOM      8  N   UNL     1       0.348   9.900  20.778  0.00  0.00    +0.000 N 
ATOM      9  N   UNL     1      -0.281  11.117  20.778  0.00  0.00    +0.000 NA
ENDROOT
BRANCH   6  10
ATOM     10  C   UNL     1       2.350   7.150  19.515  0.00  0.00    +0.000 A 
ATOM     11  C   UNL     1       3.005   7.425  18.313  0.00  0.00    +0.000 A 
ATOM     12  C   UNL     1       3.823   6.460  17.718  0.00  0.00    +0.000 A 
ATOM     13  C   UNL     1       4.002   5.196  18.297  0.00  0.00    +0.000 A 
ATOM     14  C   UNL     1       3.337   4.900  19.504  0.00  0.00    +0.000 A 
ATOM     15  C   UNL     1       2.538   5.887  20.104  0.00  0.00    +0.000 A 
BRANCH  14  16
ATOM     16  O   UNL     1       3.501   3.653  20.038  0.00  0.00    +0.000 OA
ATOM     17  C   UNL     1       2.532   3.134  20.932  0.00  0.00    +0.000 C 
ENDBRANCH  14  16
BRANCH  13  18
ATOM     18  O   UNL     1       4.849   4.394  17.566  0.00  0.00    +0.000 OA
BRANCH  18  19
ATOM     19  C   UNL     1       6.252   4.581  17.736  0.00  0.00    +0.000 C 
BRANCH  19  20
ATOM     20  C   UNL     1       6.949   4.731  16.387  0.00  0.00    +0.000 C 
BRANCH  20  21
ATOM     21  O   UNL     1       7.389   6.088  16.270  0.00  0.00    +0.000 OA
ATOM     22  C   UNL     1       7.494   6.730  17.530  0.00  0.00    +0.000 C 
ENDBRANCH  20  21
ENDBRANCH  19  20
ENDBRANCH  18  19
ENDBRANCH  13  18
ENDBRANCH   6  10
BRANCH   7  23
ATOM     23  C   UNL     1       1.358  10.054  18.545  0.00  0.00    +0.000 C 
ATOM     24  N   UNL     1       1.547  10.632  17.553  0.00  0.00    +0.000 NA
ENDBRANCH   7  23
BRANCH   1  25
ATOM     25  O   UNL     1      -1.631  12.467  22.121  0.00  0.00    +0.000 OA
BRANCH  25  26
ATOM     26  C   UNL     1      -1.076  13.392  23.073  0.00  0.00    +0.000 C 
BRANCH  26  28
ATOM     27  C   UNL     1      -3.563  13.779  23.191  0.00  0.00    +0.000 C 
ATOM     28  C   UNL     1      -2.216  14.061  23.837  0.00  0.00    +0.000 C 
ENDBRANCH  26  28
ENDBRANCH  25  26
ENDBRANCH   1  25
TORSDOF 10
ENDMDL
MODEL 2
REMARK VINA RESULT:      -6.5      2.127      3.382
REMARK  Name = 
REMARK  13 active torsions:
REMARK  status: ('A' for Active; 'I' for Inactive)
REMARK    1  A    between atoms: C_1  and  C_2
REMARK    2  A    between atoms: C_2  and  C_3
REMARK    3  A    between atoms: C_3  and  O_4
REMARK    4  A    between atoms: O_4  and  C_5
REMARK    5  A    between atoms: C_10  and  C_11
REMARK    6  A    between atoms: C_14  and  O_15
REMARK    7  A    between atoms: O_15  and  C_16
REMARK    8  A    between atoms: C_16  and  C_17
REMARK    9  A    between atoms: C_17  and  O_18
REMARK   10  A    between atoms: O_18  and  C_19
REMARK   11  A    between atoms: C_20  and  O_21
REMARK   12  A    between atoms: O_21  and  C_22
REMARK   13  A    between atoms: C_24  and  C_25
REMARK                            x       y       z     vdW  Elec       q    Type
REMARK                         _______ _______ _______ _____ _____    ______ ____
ROOT
ATOM      1  C   UNL     1       0.139   9.921  20.840  0.00  0.00    +0.000 A 
ATOM      2  C   UNL     1       0.300  10.929  19.773  0.00  0.00    +0.000 A 
ATOM      3  C   UNL     1       1.120  10.602  18.766  0.00  0.00    +0.000 A 
ATOM      4  C   UNL     1       1.727   9.325  18.751  0.00  0.00    +0.000 A 
ATOM      5  N   UNL     1       2.545   8.768  17.885  0.00  0.00    +0.000 NA
ATOM      6  C   UNL     1       2.770   7.486  18.355  0.00  0.00    +0.000 A 
ATOM      7  C   UNL     1       2.105   7.291  19.553  0.00  0.00    +0.000 A 
ATOM      8  N   UNL     1       1.440   8.466  19.802  0.00  0.00    +0.000 N 
ATOM      9  N   UNL     1       0.659   8.740  20.893  0.00  0.00    +0.000 NA
ENDROOT
BRANCH   6  10
ATOM     10  C   UNL     1       3.628   6.556  17.627  0.00  0.00    +0.000 A 
ATOM     11  C   UNL     1       4.683   6.978  16.815  0.00  0.00    +0.000 A 
ATOM     12  C   UNL     1       5.500   6.042  16.174  0.00  0.00    +0.000 A 
ATOM     13  C   UNL     1       5.281   4.664  16.315  0.00  0.00    +0.000 A 
ATOM     14  C   UNL     1       4.212   4.223  17.120  0.00  0.00    +0.000 A 
ATOM     15  C   UNL     1       3.415   5.174  17.779  0.00  0.00    +0.000 A 
BRANCH  14  16
ATOM     16  O   UNL     1       3.998   2.877  17.222  0.00  0.00    +0.000 OA
ATOM     17  C   UNL     1       2.822   2.395  17.850  0.00  0.00    +0.000 C 
ENDBRANCH  14  16
BRANCH  13  18
ATOM     18  O   UNL     1       6.194   3.909  15.613  0.00  0.00    +0.000 OA
BRANCH  18  19
ATOM     19  C   UNL     1       5.953   3.700  14.223  0.00  0.00    +0.000 C 
BRANCH  19  20
ATOM     20  C   UNL     1       6.998   4.417  13.374  0.00  0.00    +0.000 C 
BRANCH  20  21
ATOM     21  O   UNL     1       6.910   3.902  12.043  0.00  0.00    +0.000 OA
ATOM     22  C   UNL     1       5.856   2.964  11.897  0.00  0.00    +0.000 C 
ENDBRANCH  20  21
ENDBRANCH  19  20
ENDBRANCH  18  19
ENDBRANCH  13  18
ENDBRANCH   6  10
BRANCH   7  23
ATOM     23  C   UNL     1       2.068   6.173  20.416  0.00  0.00    +0.000 C 
ATOM     24  N   UNL     1       2.010   5.260  21.134  0.00  0.00    +0.000 NA
ENDBRANCH   7  23
BRANCH   1  25
ATOM     25  O   UNL     1      -0.645  10.442  21.817  0.00  0.00    +0.000 OA
BRANCH  25  26
ATOM     26  C   UNL     1      -1.092  11.794  21.613  0.00  0.00    +0.000 C 
BRANCH  26  28
ATOM     27  C   UNL     1      -2.806  12.094  23.435  0.00  0.00    +0.000 C 
ATOM     28  C   UNL     1      -1.397  12.425  22.968  0.00  0.00    +0.000 C 
ENDBRANCH  26  28
ENDBRANCH  25  26
ENDBRANCH   1  25
TORSDOF 10
ENDMDL
MODEL 3
REMARK VINA RESULT:      -6.4      1.190      1.542
REMARK  Name = 
REMARK  13 active torsions:
REMARK  status: ('A' for Active; 'I' for Inactive)
REMARK    1  A    between atoms: C_1  and  C_2
REMARK    2  A    between atoms: C_2  and  C_3
REMARK    3  A    between atoms: C_3  and  O_4
REMARK    4  A    between atoms: O_4  and  C_5
REMARK    5  A    between atoms: C_10  and  C_11
REMARK    6  A    between atoms: C_14  and  O_15
REMARK    7  A    between atoms: O_15  and  C_16
REMARK    8  A    between atoms: C_16  and  C_17
REMARK    9  A    between atoms: C_17  and  O_18
REMARK   10  A    between atoms: O_18  and  C_19
REMARK   11  A    between atoms: C_20  and  O_21
REMARK   12  A    between atoms: O_21  and  C_22
REMARK   13  A    between atoms: C_24  and  C_25
REMARK                            x       y       z     vdW  Elec       q    Type
REMARK                         _______ _______ _______ _____ _____    ______ ____
ROOT
ATOM      1  C   UNL     1      -0.525  11.280  21.812  0.00  0.00    +0.000 A 
ATOM      2  C   UNL     1      -0.665  10.427  23.009  0.00  0.00    +0.000 A 
ATOM      3  C   UNL     1      -0.151   9.194  22.923  0.00  0.00    +0.000 A 
ATOM      4  C   UNL     1       0.527   8.804  21.745  0.00  0.00    +0.000 A 
ATOM      5  N   UNL     1       1.120   7.675  21.424  0.00  0.00    +0.000 NA
ATOM      6  C   UNL     1       1.660   7.882  20.166  0.00  0.00    +0.000 A 
ATOM      7  C   UNL     1       1.342   9.149  19.711  0.00  0.00    +0.000 A 
ATOM      8  N   UNL     1       0.619   9.735  20.720  0.00  0.00    +0.000 N 
ATOM      9  N   UNL     1       0.078  10.993  20.706  0.00  0.00    +0.000 NA
ENDROOT
BRANCH   6  10
ATOM     10  C   UNL     1       2.420   6.834  19.490  0.00  0.00    +0.000 A 
ATOM     11  C   UNL     1       3.156   7.067  18.327  0.00  0.00    +0.000 A 
ATOM     12  C   UNL     1       3.900   6.037  17.743  0.00  0.00    +0.000 A 
ATOM     13  C   UNL     1       3.920   4.748  18.296  0.00  0.00    +0.000 A 
ATOM     14  C   UNL     1       3.172   4.495  19.462  0.00  0.00    +0.000 A 
ATOM     15  C   UNL     1       2.450   5.545  20.052  0.00  0.00    +0.000 A 
BRANCH  14  16
ATOM     16  O   UNL     1       3.182   3.226  19.968  0.00  0.00    +0.000 OA
ATOM     17  C   UNL     1       2.157   2.315  19.611  0.00  0.00    +0.000 C 
ENDBRANCH  14  16
BRANCH  13  18
ATOM     18  O   UNL     1       4.715   3.880  17.581  0.00  0.00    +0.000 OA
BRANCH  18  19
ATOM     19  C   UNL     1       5.417   4.397  16.453  0.00  0.00    +0.000 C 
BRANCH  19  20
ATOM     20  C   UNL     1       6.906   4.539  16.756  0.00  0.00    +0.000 C 
BRANCH  20  21
ATOM     21  O   UNL     1       7.589   4.729  15.513  0.00  0.00    +0.000 OA
ATOM     22  C   UNL     1       6.697   4.797  14.413  0.00  0.00    +0.000 C 
ENDBRANCH  20  21
ENDBRANCH  19  20
ENDBRANCH  18  19
ENDBRANCH  13  18
ENDBRANCH   6  10
BRANCH   7  23
ATOM     23  C   UNL     1       1.634   9.789  18.485  0.00  0.00    +0.000 C 
ATOM     24  N   UNL     1       1.879  10.290  17.464  0.00  0.00    +0.000 NA
ENDBRANCH   7  23
BRANCH   1  25
ATOM     25  O   UNL     1      -1.171  12.451  22.032  0.00  0.00    +0.000 OA
BRANCH  25  26
ATOM     26  C   UNL     1      -0.750  13.565  21.225  0.00  0.00    +0.000 C 
BRANCH  26  28
ATOM     27  C   UNL     1       1.594  14.405  21.610  0.00  0.00    +0.000 C 
ATOM     28  C   UNL     1       0.145  14.474  22.064  0.00  0.00    +0.000 C 
ENDBRANCH  26  28
ENDBRANCH  25  26
ENDBRANCH   1  25
TORSDOF 10
ENDMDL
MODEL 4
REMARK VINA RESULT:      -6.3      0.958      1.285
REMARK  Name = 
REMARK  13 active torsions:
REMARK  status: ('A' for Active; 'I' for Inactive)
REMARK    1  A    between atoms: C_1  and  C_2
REMARK    2  A    between atoms: C_2  and  C_3
REMARK    3  A    between atoms: C_3  and  O_4
REMARK    4  A    between atoms: O_4  and  C_5
REMARK    5  A    between atoms: C_10  and  C_11
REMARK    6  A    between atoms: C_14  and  O_15
REMARK    7  A    between atoms: O_15  and  C_16
REMARK    8  A    between atoms: C_16  and  C_17
REMARK    9  A    between atoms: C_17  and  O_18
REMARK   10  A    between atoms: O_18  and  C_19
REMARK   11  A    between atoms: C_20  and  O_21
REMARK   12  A    between atoms: O_21  and  C_22
REMARK   13  A    between atoms: C_24  and  C_25
REMARK                            x       y       z     vdW  Elec       q    Type
REMARK                         _______ _______ _______ _____ _____    ______ ____
ROOT
ATOM      1  C   UNL     1      -0.730  11.103  21.715  0.00  0.00    +0.000 A 
ATOM      2  C   UNL     1      -0.854  10.221  22.893  0.00  0.00    +0.000 A 
ATOM      3  C   UNL     1      -0.261   9.025  22.804  0.00  0.00    +0.000 A 
ATOM      4  C   UNL     1       0.478   8.700  21.643  0.00  0.00    +0.000 A 
ATOM      5  N   UNL     1       1.151   7.616  21.323  0.00  0.00    +0.000 NA
ATOM      6  C   UNL     1       1.716   7.879  20.088  0.00  0.00    +0.000 A 
ATOM      7  C   UNL     1       1.333   9.132  19.642  0.00  0.00    +0.000 A 
ATOM      8  N   UNL     1       0.543   9.653  20.637  0.00  0.00    +0.000 N 
ATOM      9  N   UNL     1      -0.076  10.874  20.625  0.00  0.00    +0.000 NA
ENDROOT
BRANCH   6  10
ATOM     10  C   UNL     1       2.561   6.894  19.420  0.00  0.00    +0.000 A 
ATOM     11  C   UNL     1       3.361   7.207  18.319  0.00  0.00    +0.000 A 
ATOM     12  C   UNL     1       4.184   6.234  17.743  0.00  0.00    +0.000 A 
ATOM     13  C   UNL     1       4.223   4.924  18.241  0.00  0.00    +0.000 A 
ATOM     14  C   UNL     1       3.411   4.590  19.343  0.00  0.00    +0.000 A 
ATOM     15  C   UNL     1       2.609   5.583  19.928  0.00  0.00    +0.000 A 
BRANCH  14  16
ATOM     16  O   UNL     1       3.442   3.300  19.795  0.00  0.00    +0.000 OA
ATOM     17  C   UNL     1       2.768   2.955  20.993  0.00  0.00    +0.000 C 
ENDBRANCH  14  16
BRANCH  13  18
ATOM     18  O   UNL     1       5.098   4.120  17.545  0.00  0.00    +0.000 OA
BRANCH  18  19
ATOM     19  C   UNL     1       6.449   4.559  17.424  0.00  0.00    +0.000 C 
BRANCH  19  20
ATOM     20  C   UNL     1       6.996   4.264  16.031  0.00  0.00    +0.000 C 
BRANCH  20  21
ATOM     21  O   UNL     1       5.944   3.670  15.264  0.00  0.00    +0.000 OA
ATOM     22  C   UNL     1       5.993   4.050  13.899  0.00  0.00    +0.000 C 
ENDBRANCH  20  21
ENDBRANCH  19  20
ENDBRANCH  18  19
ENDBRANCH  13  18
ENDBRANCH   6  10
BRANCH   7  23
ATOM     23  C   UNL     1       1.623   9.811  18.437  0.00  0.00    +0.000 C 
ATOM     24  N   UNL     1       1.840  10.355  17.432  0.00  0.00    +0.000 NA
ENDBRANCH   7  23
BRANCH   1  25
ATOM     25  O   UNL     1      -1.456  12.228  21.933  0.00  0.00    +0.000 OA
BRANCH  25  26
ATOM     26  C   UNL     1      -2.200  12.269  23.164  0.00  0.00    +0.000 C 
BRANCH  26  28
ATOM     27  C   UNL     1      -3.828  13.056  21.410  0.00  0.00    +0.000 C 
ATOM     28  C   UNL     1      -3.655  12.610  22.852  0.00  0.00    +0.000 C 
ENDBRANCH  26  28
ENDBRANCH  25  26
ENDBRANCH   1  25
TORSDOF 10
ENDMDL
MODEL 5
REMARK VINA RESULT:      -6.3      1.198      1.446
REMARK  Name = 
REMARK  13 active torsions:
REMARK  status: ('A' for Active; 'I' for Inactive)
REMARK    1  A    between atoms: C_1  and  C_2
REMARK    2  A    between atoms: C_2  and  C_3
REMARK    3  A    between atoms: C_3  and  O_4
REMARK    4  A    between atoms: O_4  and  C_5
REMARK    5  A    between atoms: C_10  and  C_11
REMARK    6  A    between atoms: C_14  and  O_15
REMARK    7  A    between atoms: O_15  and  C_16
REMARK    8  A    between atoms: C_16  and  C_17
REMARK    9  A    between atoms: C_17  and  O_18
REMARK   10  A    between atoms: O_18  and  C_19
REMARK   11  A    between atoms: C_20  and  O_21
REMARK   12  A    between atoms: O_21  and  C_22
REMARK   13  A    between atoms: C_24  and  C_25
REMARK                            x       y       z     vdW  Elec       q    Type
REMARK                         _______ _______ _______ _____ _____    ______ ____
ROOT
ATOM      1  C   UNL     1      -0.619  11.310  21.729  0.00  0.00    +0.000 A 
ATOM      2  C   UNL     1      -0.775  10.463  22.929  0.00  0.00    +0.000 A 
ATOM      3  C   UNL     1      -0.246   9.235  22.862  0.00  0.00    +0.000 A 
ATOM      4  C   UNL     1       0.462   8.846  21.701  0.00  0.00    +0.000 A 
ATOM      5  N   UNL     1       1.074   7.722  21.400  0.00  0.00    +0.000 NA
ATOM      6  C   UNL     1       1.638   7.927  20.153  0.00  0.00    +0.000 A 
ATOM      7  C   UNL     1       1.316   9.188  19.682  0.00  0.00    +0.000 A 
ATOM      8  N   UNL     1       0.565   9.771  20.673  0.00  0.00    +0.000 N 
ATOM      9  N   UNL     1       0.010  11.023  20.638  0.00  0.00    +0.000 NA
ENDROOT
BRANCH   6  10
ATOM     10  C   UNL     1       2.424   6.884  19.500  0.00  0.00    +0.000 A 
ATOM     11  C   UNL     1       3.106   7.093  18.299  0.00  0.00    +0.000 A 
ATOM     12  C   UNL     1       3.878   6.071  17.738  0.00  0.00    +0.000 A 
ATOM     13  C   UNL     1       3.982   4.815  18.351  0.00  0.00    +0.000 A 
ATOM     14  C   UNL     1       3.289   4.585  19.556  0.00  0.00    +0.000 A 
ATOM     15  C   UNL     1       2.537   5.628  20.122  0.00  0.00    +0.000 A 
BRANCH  14  16
ATOM     16  O   UNL     1       3.380   3.345  20.123  0.00  0.00    +0.000 OA
ATOM     17  C   UNL     1       2.452   2.335  19.765  0.00  0.00    +0.000 C 
ENDBRANCH  14  16
BRANCH  13  18
ATOM     18  O   UNL     1       4.792   3.950  17.650  0.00  0.00    +0.000 OA
BRANCH  18  19
ATOM     19  C   UNL     1       5.542   4.480  16.559  0.00  0.00    +0.000 C 
BRANCH  19  20
ATOM     20  C   UNL     1       6.995   4.714  16.958  0.00  0.00    +0.000 C 
BRANCH  20  21
ATOM     21  O   UNL     1       7.121   4.411  18.351  0.00  0.00    +0.000 OA
ATOM     22  C   UNL     1       7.614   5.511  19.098  0.00  0.00    +0.000 C 
ENDBRANCH  20  21
ENDBRANCH  19  20
ENDBRANCH  18  19
ENDBRANCH  13  18
ENDBRANCH   6  10
BRANCH   7  23
ATOM     23  C   UNL     1       1.627   9.823  18.459  0.00  0.00    +0.000 C 
ATOM     24  N   UNL     1       1.859  10.363  17.455  0.00  0.00    +0.000 NA
ENDBRANCH   7  23
BRANCH   1  25
ATOM     25  O   UNL     1      -1.284  12.476  21.928  0.00  0.00    +0.000 OA
BRANCH  25  26
ATOM     26  C   UNL     1      -0.767  13.623  21.231  0.00  0.00    +0.000 C 
BRANCH  26  28
ATOM     27  C   UNL     1       1.548  14.536  21.627  0.00  0.00    +0.000 C 
ATOM     28  C   UNL     1       0.135  14.412  22.176  0.00  0.00    +0.000 C 
ENDBRANCH  26  28
ENDBRANCH  25  26
ENDBRANCH   1  25
TORSDOF 10
ENDMDL
MODEL 6
REMARK VINA RESULT:      -6.2      3.238      9.718
REMARK  Name = 
REMARK  13 active torsions:
REMARK  status: ('A' for Active; 'I' for Inactive)
REMARK    1  A    between atoms: C_1  and  C_2
REMARK    2  A    between atoms: C_2  and  C_3
REMARK    3  A    between atoms: C_3  and  O_4
REMARK    4  A    between atoms: O_4  and  C_5
REMARK    5  A    between atoms: C_10  and  C_11
REMARK    6  A    between atoms: C_14  and  O_15
REMARK    7  A    between atoms: O_15  and  C_16
REMARK    8  A    between atoms: C_16  and  C_17
REMARK    9  A    between atoms: C_17  and  O_18
REMARK   10  A    between atoms: O_18  and  C_19
REMARK   11  A    between atoms: C_20  and  O_21
REMARK   12  A    between atoms: O_21  and  C_22
REMARK   13  A    between atoms: C_24  and  C_25
REMARK                            x       y       z     vdW  Elec       q    Type
REMARK                         _______ _______ _______ _____ _____    ______ ____
ROOT
ATOM      1  C   UNL     1       5.859   4.166  15.229  0.00  0.00    +0.000 A 
ATOM      2  C   UNL     1       6.820   5.274  15.402  0.00  0.00    +0.000 A 
ATOM      3  C   UNL     1       6.441   6.268  16.215  0.00  0.00    +0.000 A 
ATOM      4  C   UNL     1       5.201   6.181  16.887  0.00  0.00    +0.000 A 
ATOM      5  N   UNL     1       4.617   7.002  17.732  0.00  0.00    +0.000 NA
ATOM      6  C   UNL     1       3.442   6.378  18.110  0.00  0.00    +0.000 A 
ATOM      7  C   UNL     1       3.302   5.175  17.439  0.00  0.00    +0.000 A 
ATOM      8  N   UNL     1       4.426   5.053  16.660  0.00  0.00    +0.000 N 
ATOM      9  N   UNL     1       4.713   4.020  15.808  0.00  0.00    +0.000 NA
ENDROOT
BRANCH   6  10
ATOM     10  C   UNL     1       2.532   6.997  19.069  0.00  0.00    +0.000 A 
ATOM     11  C   UNL     1       2.080   6.339  20.214  0.00  0.00    +0.000 A 
ATOM     12  C   UNL     1       1.242   6.995  21.121  0.00  0.00    +0.000 A 
ATOM     13  C   UNL     1       0.824   8.315  20.905  0.00  0.00    +0.000 A 
ATOM     14  C   UNL     1       1.261   8.988  19.747  0.00  0.00    +0.000 A 
ATOM     15  C   UNL     1       2.123   8.326  18.857  0.00  0.00    +0.000 A 
BRANCH  14  16
ATOM     16  O   UNL     1       0.820  10.265  19.541  0.00  0.00    +0.000 OA
ATOM     17  C   UNL     1       1.409  11.060  18.526  0.00  0.00    +0.000 C 
ENDBRANCH  14  16
BRANCH  13  18
ATOM     18  O   UNL     1       0.011   8.784  21.913  0.00  0.00    +0.000 OA
BRANCH  18  19
ATOM     19  C   UNL     1       0.347  10.036  22.509  0.00  0.00    +0.000 C 
BRANCH  19  20
ATOM     20  C   UNL     1      -0.739  11.074  22.244  0.00  0.00    +0.000 C 
BRANCH  20  21
ATOM     21  O   UNL     1      -0.714  12.019  23.319  0.00  0.00    +0.000 OA
ATOM     22  C   UNL     1      -1.668  13.053  23.148  0.00  0.00    +0.000 C 
ENDBRANCH  20  21
ENDBRANCH  19  20
ENDBRANCH  18  19
ENDBRANCH  13  18
ENDBRANCH   6  10
BRANCH   7  23
ATOM     23  C   UNL     1       2.261   4.219  17.467  0.00  0.00    +0.000 C 
ATOM     24  N   UNL     1       1.402   3.436  17.518  0.00  0.00    +0.000 NA
ENDBRANCH   7  23
BRANCH   1  25
ATOM     25  O   UNL     1       6.355   3.296  14.315  0.00  0.00    +0.000 OA
BRANCH  25  26
ATOM     26  C   UNL     1       6.670   3.850  13.025  0.00  0.00    +0.000 C 
BRANCH  26  28
ATOM     27  C   UNL     1       4.552   3.345  11.757  0.00  0.00    +0.000 C 
ATOM     28  C   UNL     1       6.019   2.991  11.944  0.00  0.00    +0.000 C 
ENDBRANCH  26  28
ENDBRANCH  25  26
ENDBRANCH   1  25
TORSDOF 10
ENDMDL
MODEL 7
REMARK VINA RESULT:      -6.2      1.079      1.384
REMARK  Name = 
REMARK  13 active torsions:
REMARK  status: ('A' for Active; 'I' for Inactive)
REMARK    1  A    between atoms: C_1  and  C_2
REMARK    2  A    between atoms: C_2  and  C_3
REMARK    3  A    between atoms: C_3  and  O_4
REMARK    4  A    between atoms: O_4  and  C_5
REMARK    5  A    between atoms: C_10  and  C_11
REMARK    6  A    between atoms: C_14  and  O_15
REMARK    7  A    between atoms: O_15  and  C_16
REMARK    8  A    between atoms: C_16  and  C_17
REMARK    9  A    between atoms: C_17  and  O_18
REMARK   10  A    between atoms: O_18  and  C_19
REMARK   11  A    between atoms: C_20  and  O_21
REMARK   12  A    between atoms: O_21  and  C_22
REMARK   13  A    between atoms: C_24  and  C_25
REMARK                            x       y       z     vdW  Elec       q    Type
REMARK                         _______ _______ _______ _____ _____    ______ ____
ROOT
ATOM      1  C   UNL     1      -0.469  11.145  21.855  0.00  0.00    +0.000 A 
ATOM      2  C   UNL     1      -0.619  10.163  22.946  0.00  0.00    +0.000 A 
ATOM      3  C   UNL     1      -0.099   8.948  22.728  0.00  0.00    +0.000 A 
ATOM      4  C   UNL     1       0.593   8.695  21.521  0.00  0.00    +0.000 A 
ATOM      5  N   UNL     1       1.193   7.611  21.082  0.00  0.00    +0.000 NA
ATOM      6  C   UNL     1       1.745   7.959  19.861  0.00  0.00    +0.000 A 
ATOM      7  C   UNL     1       1.427   9.269  19.547  0.00  0.00    +0.000 A 
ATOM      8  N   UNL     1       0.692   9.735  20.609  0.00  0.00    +0.000 N 
ATOM      9  N   UNL     1       0.146  10.986  20.730  0.00  0.00    +0.000 NA
ENDROOT
BRANCH   6  10
ATOM     10  C   UNL     1       2.516   6.996  19.080  0.00  0.00    +0.000 A 
ATOM     11  C   UNL     1       3.358   7.376  18.033  0.00  0.00    +0.000 A 
ATOM     12  C   UNL     1       4.106   6.415  17.344  0.00  0.00    +0.000 A 
ATOM     13  C   UNL     1       4.025   5.055  17.672  0.00  0.00    +0.000 A 
ATOM     14  C   UNL     1       3.169   4.656  18.717  0.00  0.00    +0.000 A 
ATOM     15  C   UNL     1       2.443   5.633  19.418  0.00  0.00    +0.000 A 
BRANCH  14  16
ATOM     16  O   UNL     1       3.083   3.321  19.002  0.00  0.00    +0.000 OA
ATOM     17  C   UNL     1       4.042   2.718  19.855  0.00  0.00    +0.000 C 
ENDBRANCH  14  16
BRANCH  13  18
ATOM     18  O   UNL     1       4.841   4.272  16.886  0.00  0.00    +0.000 OA
BRANCH  18  19
ATOM     19  C   UNL     1       6.247   4.498  16.958  0.00  0.00    +0.000 C 
BRANCH  19  20
ATOM     20  C   UNL     1       6.881   4.442  15.571  0.00  0.00    +0.000 C 
BRANCH  20  21
ATOM     21  O   UNL     1       5.830   4.547  14.605  0.00  0.00    +0.000 OA
ATOM     22  C   UNL     1       6.103   3.800  13.431  0.00  0.00    +0.000 C 
ENDBRANCH  20  21
ENDBRANCH  19  20
ENDBRANCH  18  19
ENDBRANCH  13  18
ENDBRANCH   6  10
BRANCH   7  23
ATOM     23  C   UNL     1       1.730  10.043  18.405  0.00  0.00    +0.000 C 
ATOM     24  N   UNL     1       1.977  10.704  17.480  0.00  0.00    +0.000 NA
ENDBRANCH   7  23
BRANCH   1  25
ATOM     25  O   UNL     1      -1.123  12.283  22.198  0.00  0.00    +0.000 OA
BRANCH  25  26
ATOM     26  C   UNL     1      -0.341  13.490  22.173  0.00  0.00    +0.000 C 
BRANCH  26  28
ATOM     27  C   UNL     1      -1.992  14.110  23.972  0.00  0.00    +0.000 C 
ATOM     28  C   UNL     1      -1.148  14.616  22.814  0.00  0.00    +0.000 C 
ENDBRANCH  26  28
ENDBRANCH  25  26
ENDBRANCH   1  25
TORSDOF 10
ENDMDL
MODEL 8
REMARK VINA RESULT:      -6.2      3.108      8.923
REMARK  Name = 
REMARK  13 active torsions:
REMARK  status: ('A' for Active; 'I' for Inactive)
REMARK    1  A    between atoms: C_1  and  C_2
REMARK    2  A    between atoms: C_2  and  C_3
REMARK    3  A    between atoms: C_3  and  O_4
REMARK    4  A    between atoms: O_4  and  C_5
REMARK    5  A    between atoms: C_10  and  C_11
REMARK    6  A    between atoms: C_14  and  O_15
REMARK    7  A    between atoms: O_15  and  C_16
REMARK    8  A    between atoms: C_16  and  C_17
REMARK    9  A    between atoms: C_17  and  O_18
REMARK   10  A    between atoms: O_18  and  C_19
REMARK   11  A    between atoms: C_20  and  O_21
REMARK   12  A    between atoms: O_21  and  C_22
REMARK   13  A    between atoms: C_24  and  C_25
REMARK                            x       y       z     vdW  Elec       q    Type
REMARK                         _______ _______ _______ _____ _____    ______ ____
ROOT
ATOM      1  C   UNL     1       4.139   2.555  20.201  0.00  0.00    +0.000 A 
ATOM      2  C   UNL     1       3.074   2.327  21.198  0.00  0.00    +0.000 A 
ATOM      3  C   UNL     1       2.267   3.364  21.453  0.00  0.00    +0.000 A 
ATOM      4  C   UNL     1       2.438   4.570  20.737  0.00  0.00    +0.000 A 
ATOM      5  N   UNL     1       1.781   5.708  20.792  0.00  0.00    +0.000 NA
ATOM      6  C   UNL     1       2.352   6.517  19.826  0.00  0.00    +0.000 A 
ATOM      7  C   UNL     1       3.404   5.860  19.212  0.00  0.00    +0.000 A 
ATOM      8  N   UNL     1       3.456   4.618  19.795  0.00  0.00    +0.000 N 
ATOM      9  N   UNL     1       4.356   3.626  19.511  0.00  0.00    +0.000 NA
ENDROOT
BRANCH   6  10
ATOM     10  C   UNL     1       1.857   7.869  19.585  0.00  0.00    +0.000 A 
ATOM     11  C   UNL     1       1.714   8.404  18.303  0.00  0.00    +0.000 A 
ATOM     12  C   UNL     1       1.196   9.690  18.127  0.00  0.00    +0.000 A 
ATOM     13  C   UNL     1       0.819  10.481  19.222  0.00  0.00    +0.000 A 
ATOM     14  C   UNL     1       0.970   9.960  20.522  0.00  0.00    +0.000 A 
ATOM     15  C   UNL     1       1.468   8.657  20.683  0.00  0.00    +0.000 A 
BRANCH  14  16
ATOM     16  O   UNL     1       0.623  10.757  21.577  0.00  0.00    +0.000 OA
ATOM     17  C   UNL     1      -0.382  10.333  22.482  0.00  0.00    +0.000 C 
ENDBRANCH  14  16
BRANCH  13  18
ATOM     18  O   UNL     1       0.326  11.709  18.842  0.00  0.00    +0.000 OA
BRANCH  18  19
ATOM     19  C   UNL     1      -1.067  11.952  19.029  0.00  0.00    +0.000 C 
BRANCH  19  20
ATOM     20  C   UNL     1      -1.835  11.750  17.726  0.00  0.00    +0.000 C 
BRANCH  20  21
ATOM     21  O   UNL     1      -3.058  11.077  18.037  0.00  0.00    +0.000 OA
ATOM     22  C   UNL     1      -3.066   9.736  17.579  0.00  0.00    +0.000 C 
ENDBRANCH  20  21
ENDBRANCH  19  20
ENDBRANCH  18  19
ENDBRANCH  13  18
ENDBRANCH   6  10
BRANCH   7  23
ATOM     23  C   UNL     1       4.299   6.290  18.207  0.00  0.00    +0.000 C 
ATOM     24  N   UNL     1       5.025   6.671  17.381  0.00  0.00    +0.000 NA
ENDBRANCH   7  23
BRANCH   1  25
ATOM     25  O   UNL     1       4.914   1.445  20.127  0.00  0.00    +0.000 OA
BRANCH  25  26
ATOM     26  C   UNL     1       5.443   0.962  21.375  0.00  0.00    +0.000 C 
BRANCH  26  28
ATOM     27  C   UNL     1       6.729  -0.943  22.407  0.00  0.00    +0.000 C 
ATOM     28  C   UNL     1       6.025  -0.433  21.160  0.00  0.00    +0.000 C 
ENDBRANCH  26  28
ENDBRANCH  25  26
ENDBRANCH   1  25
TORSDOF 10
ENDMDL
MODEL 9
REMARK VINA RESULT:      -6.2      1.204      1.432
REMARK  Name = 
REMARK  13 active torsions:
REMARK  status: ('A' for Active; 'I' for Inactive)
REMARK    1  A    between atoms: C_1  and  C_2
REMARK    2  A    between atoms: C_2  and  C_3
REMARK    3  A    between atoms: C_3  and  O_4
REMARK    4  A    between atoms: O_4  and  C_5
REMARK    5  A    between atoms: C_10  and  C_11
REMARK    6  A    between atoms: C_14  and  O_15
REMARK    7  A    between atoms: O_15  and  C_16
REMARK    8  A    between atoms: C_16  and  C_17
REMARK    9  A    between atoms: C_17  and  O_18
REMARK   10  A    between atoms: O_18  and  C_19
REMARK   11  A    between atoms: C_20  and  O_21
REMARK   12  A    between atoms: O_21  and  C_22
REMARK   13  A    between atoms: C_24  and  C_25
REMARK                            x       y       z     vdW  Elec       q    Type
REMARK                         _______ _______ _______ _____ _____    ______ ____
ROOT
ATOM      1  C   UNL     1      -0.780  11.516  21.633  0.00  0.00    +0.000 A 
ATOM      2  C   UNL     1      -0.987  10.799  22.908  0.00  0.00    +0.000 A 
ATOM      3  C   UNL     1      -0.486   9.560  22.981  0.00  0.00    +0.000 A 
ATOM      4  C   UNL     1       0.241   9.039  21.886  0.00  0.00    +0.000 A 
ATOM      5  N   UNL     1       0.833   7.877  21.717  0.00  0.00    +0.000 NA
ATOM      6  C   UNL     1       1.433   7.941  20.472  0.00  0.00    +0.000 A 
ATOM      7  C   UNL     1       1.153   9.153  19.867  0.00  0.00    +0.000 A 
ATOM      8  N   UNL     1       0.393   9.851  20.772  0.00  0.00    +0.000 N 
ATOM      9  N   UNL     1      -0.131  11.105  20.595  0.00  0.00    +0.000 NA
ENDROOT
BRANCH   6  10
ATOM     10  C   UNL     1       2.210   6.820  19.950  0.00  0.00    +0.000 A 
ATOM     11  C   UNL     1       3.268   6.986  19.055  0.00  0.00    +0.000 A 
ATOM     12  C   UNL     1       4.005   5.881  18.619  0.00  0.00    +0.000 A 
ATOM     13  C   UNL     1       3.701   4.583  19.053  0.00  0.00    +0.000 A 
ATOM     14  C   UNL     1       2.627   4.398  19.946  0.00  0.00    +0.000 A 
ATOM     15  C   UNL     1       1.911   5.520  20.396  0.00  0.00    +0.000 A 
BRANCH  14  16
ATOM     16  O   UNL     1       2.328   3.122  20.336  0.00  0.00    +0.000 OA
ATOM     17  C   UNL     1       1.780   2.887  21.621  0.00  0.00    +0.000 C 
ENDBRANCH  14  16
BRANCH  13  18
ATOM     18  O   UNL     1       4.544   3.635  18.518  0.00  0.00    +0.000 OA
BRANCH  18  19
ATOM     19  C   UNL     1       5.462   4.056  17.511  0.00  0.00    +0.000 C 
BRANCH  19  20
ATOM     20  C   UNL     1       4.986   3.627  16.127  0.00  0.00    +0.000 C 
BRANCH  20  21
ATOM     21  O   UNL     1       6.075   3.802  15.215  0.00  0.00    +0.000 OA
ATOM     22  C   UNL     1       7.082   4.653  15.737  0.00  0.00    +0.000 C 
ENDBRANCH  20  21
ENDBRANCH  19  20
ENDBRANCH  18  19
ENDBRANCH  13  18
ENDBRANCH   6  10
BRANCH   7  23
ATOM     23  C   UNL     1       1.511   9.653  18.594  0.00  0.00    +0.000 C 
ATOM     24  N   UNL     1       1.831  10.069  17.556  0.00  0.00    +0.000 NA
ENDBRANCH   7  23
BRANCH   1  25
ATOM     25  O   UNL     1      -1.421  12.709  21.694  0.00  0.00    +0.000 OA
BRANCH  25  26
ATOM     26  C   UNL     1      -2.796  12.666  22.113  0.00  0.00    +0.000 C 
BRANCH  26  28
ATOM     27  C   UNL     1      -5.156  12.585  21.235  0.00  0.00    +0.000 C 
ATOM     28  C   UNL     1      -3.693  12.804  20.886  0.00  0.00    +0.000 C 
ENDBRANCH  26  28
ENDBRANCH  25  26
ENDBRANCH   1  25
TORSDOF 10
ENDMDL
