MODEL 1
REMARK VINA RESULT:      -8.1      0.000      0.000
REMARK  Name = 
REMARK  2 active torsions:
REMARK  status: ('A' for Active; 'I' for Inactive)
REMARK    1  A    between atoms: N_1  and  C_2
REMARK    2  A    between atoms: N_21  and  C_22
REMARK                            x       y       z     vdW  Elec       q    Type
REMARK                         _______ _______ _______ _____ _____    ______ ____
ROOT
ATOM      1  C   UNL     1       6.332   5.071  16.549  0.00  0.00    +0.000 C 
ATOM      2  C   UNL     1       5.793   4.847  17.940  0.00  0.00    +0.000 C 
ATOM      3  C   UNL     1       4.321   4.741  18.228  0.00  0.00    +0.000 C 
ATOM      4  N   UNL     1       3.798   6.089  17.996  0.00  0.00    +0.000 N 
ATOM      5  C   UNL     1       2.856   6.621  18.867  0.00  0.00    +0.000 A 
ATOM      6  C   UNL     1       2.335   7.883  18.634  0.00  0.00    +0.000 A 
ATOM      7  C   UNL     1       1.430   8.460  19.521  0.00  0.00    +0.000 A 
ATOM      8  C   UNL     1       1.034   7.797  20.668  0.00  0.00    +0.000 A 
ATOM      9  N   UNL     1       0.193   8.381  21.615  0.00  0.00    +0.000 N 
ATOM     10  C   UNL     1      -0.018   9.731  21.889  0.00  0.00    +0.000 A 
ATOM     11  N   UNL     1      -0.908  10.026  22.857  0.00  0.00    +0.000 NA
ATOM     12  C   UNL     1      -1.189  11.329  23.129  0.00  0.00    +0.000 A 
ATOM     13  C   UNL     1      -0.542  12.340  22.422  0.00  0.00    +0.000 A 
ATOM     14  C   UNL     1      -0.564  13.766  22.374  0.00  0.00    +0.000 A 
ATOM     15  C   UNL     1      -1.290  14.752  23.058  0.00  0.00    +0.000 A 
ATOM     16  C   UNL     1      -1.030  16.069  22.710  0.00  0.00    +0.000 A 
ATOM     17  N   UNL     1      -0.133  16.456  21.779  0.00  0.00    +0.000 NA
ATOM     18  C   UNL     1       0.573  15.515  21.118  0.00  0.00    +0.000 A 
ATOM     19  C   UNL     1       0.364  14.170  21.404  0.00  0.00    +0.000 A 
ATOM     20  N   UNL     1       0.928  13.020  20.875  0.00  0.00    +0.000 N 
ATOM     21  C   UNL     1       0.372  11.918  21.483  0.00  0.00    +0.000 A 
ATOM     22  N   UNL     1       0.666  10.648  21.194  0.00  0.00    +0.000 NA
ATOM     23  N   UNL     1       1.486   6.543  20.851  0.00  0.00    +0.000 NA
ATOM     24  N   UNL     1       2.395   5.955  19.945  0.00  0.00    +0.000 NA
ATOM     25  C   UNL     1       4.796   6.993  17.415  0.00  0.00    +0.000 C 
ATOM     26  C   UNL     1       6.078   6.232  17.465  0.00  0.00    +0.000 C 
ATOM     27  H   UNL     1      -0.096   7.780  22.369  0.00  0.00    +0.000 HD
ENDROOT
BRANCH  20  28
ATOM     28  C   UNL     1       1.919  12.939  19.814  0.00  0.00    +0.000 C 
ATOM     29  C   UNL     1       1.385  13.303  18.426  0.00  0.00    +0.000 C 
ATOM     30  C   UNL     1       2.632  13.687  17.647  0.00  0.00    +0.000 C 
ATOM     31  C   UNL     1       3.504  14.412  18.660  0.00  0.00    +0.000 C 
ATOM     32  C   UNL     1       3.175  13.801  20.023  0.00  0.00    +0.000 C 
ENDBRANCH  20  28
BRANCH   1  33
ATOM     33  N   UNL     1       7.726   4.752  16.239  0.00  0.00    +0.000 NA
ATOM     34  H   UNL     1       8.281   4.670  17.089  0.00  0.00    +0.000 HD
ATOM     35  H   UNL     1       8.167   5.490  15.688  0.00  0.00    +0.000 HD
ENDBRANCH   1  33
TORSDOF 2
ENDMDL
MODEL 2
REMARK VINA RESULT:      -7.5      2.434      9.560
REMARK  Name = 
REMARK  2 active torsions:
REMARK  status: ('A' for Active; 'I' for Inactive)
REMARK    1  A    between atoms: N_1  and  C_2
REMARK    2  A    between atoms: N_21  and  C_22
REMARK                            x       y       z     vdW  Elec       q    Type
REMARK                         _______ _______ _______ _____ _____    ______ ____
ROOT
ATOM      1  C   UNL     1      -2.312  16.554  24.429  0.00  0.00    +0.000 C 
ATOM      2  C   UNL     1      -1.230  16.671  23.386  0.00  0.00    +0.000 C 
ATOM      3  C   UNL     1      -1.442  16.267  21.953  0.00  0.00    +0.000 C 
ATOM      4  N   UNL     1      -1.564  14.809  21.992  0.00  0.00    +0.000 N 
ATOM      5  C   UNL     1      -0.947  14.040  21.013  0.00  0.00    +0.000 A 
ATOM      6  C   UNL     1      -1.085  12.663  21.026  0.00  0.00    +0.000 A 
ATOM      7  C   UNL     1      -0.433  11.866  20.089  0.00  0.00    +0.000 A 
ATOM      8  C   UNL     1       0.384  12.426  19.123  0.00  0.00    +0.000 A 
ATOM      9  N   UNL     1       1.113  11.651  18.222  0.00  0.00    +0.000 N 
ATOM     10  C   UNL     1       1.561  10.338  18.353  0.00  0.00    +0.000 A 
ATOM     11  N   UNL     1       2.238   9.816  17.313  0.00  0.00    +0.000 NA
ATOM     12  C   UNL     1       2.653   8.521  17.369  0.00  0.00    +0.000 A 
ATOM     13  C   UNL     1       2.391   7.758  18.505  0.00  0.00    +0.000 A 
ATOM     14  C   UNL     1       2.613   6.418  18.942  0.00  0.00    +0.000 A 
ATOM     15  C   UNL     1       3.210   5.290  18.361  0.00  0.00    +0.000 A 
ATOM     16  C   UNL     1       3.220   4.131  19.121  0.00  0.00    +0.000 A 
ATOM     17  N   UNL     1       2.708   4.022  20.365  0.00  0.00    +0.000 NA
ATOM     18  C   UNL     1       2.134   5.103  20.934  0.00  0.00    +0.000 A 
ATOM     19  C   UNL     1       2.077   6.302  20.232  0.00  0.00    +0.000 A 
ATOM     20  N   UNL     1       1.542   7.537  20.565  0.00  0.00    +0.000 N 
ATOM     21  C   UNL     1       1.723   8.409  19.518  0.00  0.00    +0.000 A 
ATOM     22  N   UNL     1       1.303   9.676  19.489  0.00  0.00    +0.000 NA
ATOM     23  N   UNL     1       0.455  13.769  19.069  0.00  0.00    +0.000 NA
ATOM     24  N   UNL     1      -0.215  14.574  20.014  0.00  0.00    +0.000 NA
ATOM     25  C   UNL     1      -1.619  14.279  23.358  0.00  0.00    +0.000 C 
ATOM     26  C   UNL     1      -1.317  15.448  24.234  0.00  0.00    +0.000 C 
ATOM     27  H   UNL     1       1.610  12.163  17.511  0.00  0.00    +0.000 HD
ENDROOT
BRANCH  20  28
ATOM     28  C   UNL     1       0.849   7.888  21.795  0.00  0.00    +0.000 C 
ATOM     29  C   UNL     1       1.476   9.059  22.557  0.00  0.00    +0.000 C 
ATOM     30  C   UNL     1       0.337   9.580  23.419  0.00  0.00    +0.000 C 
ATOM     31  C   UNL     1      -0.898   9.437  22.544  0.00  0.00    +0.000 C 
ATOM     32  C   UNL     1      -0.639   8.238  21.631  0.00  0.00    +0.000 C 
ENDBRANCH  20  28
BRANCH   1  33
ATOM     33  N   UNL     1      -2.226  17.325  25.671  0.00  0.00    +0.000 NA
ATOM     34  H   UNL     1      -2.256  16.712  26.485  0.00  0.00    +0.000 HD
ATOM     35  H   UNL     1      -3.015  17.964  25.773  0.00  0.00    +0.000 HD
ENDBRANCH   1  33
TORSDOF 2
ENDMDL
MODEL 3
REMARK VINA RESULT:      -7.3      1.257      1.519
REMARK  Name = 
REMARK  2 active torsions:
REMARK  status: ('A' for Active; 'I' for Inactive)
REMARK    1  A    between atoms: N_1  and  C_2
REMARK    2  A    between atoms: N_21  and  C_22
REMARK                            x       y       z     vdW  Elec       q    Type
REMARK                         _______ _______ _______ _____ _____    ______ ____
ROOT
ATOM      1  C   UNL     1       6.319   5.278  15.360  0.00  0.00    +0.000 C 
ATOM      2  C   UNL     1       6.235   5.147  16.860  0.00  0.00    +0.000 C 
ATOM      3  C   UNL     1       4.977   4.719  17.564  0.00  0.00    +0.000 C 
ATOM      4  N   UNL     1       4.047   5.835  17.380  0.00  0.00    +0.000 N 
ATOM      5  C   UNL     1       3.242   6.241  18.436  0.00  0.00    +0.000 A 
ATOM      6  C   UNL     1       2.339   7.276  18.258  0.00  0.00    +0.000 A 
ATOM      7  C   UNL     1       1.560   7.738  19.315  0.00  0.00    +0.000 A 
ATOM      8  C   UNL     1       1.672   7.186  20.579  0.00  0.00    +0.000 A 
ATOM      9  N   UNL     1       0.964   7.679  21.674  0.00  0.00    +0.000 N 
ATOM     10  C   UNL     1       0.450   8.958  21.885  0.00  0.00    +0.000 A 
ATOM     11  N   UNL     1      -0.215   9.166  23.038  0.00  0.00    +0.000 NA
ATOM     12  C   UNL     1      -0.781  10.381  23.271  0.00  0.00    +0.000 A 
ATOM     13  C   UNL     1      -0.651  11.398  22.328  0.00  0.00    +0.000 A 
ATOM     14  C   UNL     1      -1.094  12.746  22.171  0.00  0.00    +0.000 A 
ATOM     15  C   UNL     1      -1.876  13.611  22.948  0.00  0.00    +0.000 A 
ATOM     16  C   UNL     1      -2.102  14.878  22.434  0.00  0.00    +0.000 A 
ATOM     17  N   UNL     1      -1.618  15.328  21.257  0.00  0.00    +0.000 NA
ATOM     18  C   UNL     1      -0.860  14.504  20.503  0.00  0.00    +0.000 A 
ATOM     19  C   UNL     1      -0.595  13.213  20.946  0.00  0.00    +0.000 A 
ATOM     20  N   UNL     1       0.125  12.175  20.375  0.00  0.00    +0.000 N 
ATOM     21  C   UNL     1       0.080  11.079  21.205  0.00  0.00    +0.000 A 
ATOM     22  N   UNL     1       0.644   9.897  20.950  0.00  0.00    +0.000 NA
ATOM     23  N   UNL     1       2.496   6.133  20.728  0.00  0.00    +0.000 NA
ATOM     24  N   UNL     1       3.278   5.660  19.652  0.00  0.00    +0.000 NA
ATOM     25  C   UNL     1       4.564   6.859  16.466  0.00  0.00    +0.000 C 
ATOM     26  C   UNL     1       5.980   6.466  16.212  0.00  0.00    +0.000 C 
ATOM     27  H   UNL     1       1.059   7.152  22.527  0.00  0.00    +0.000 HD
ENDROOT
BRANCH  20  28
ATOM     28  C   UNL     1       0.797  12.182  19.086  0.00  0.00    +0.000 C 
ATOM     29  C   UNL     1       2.168  12.865  19.095  0.00  0.00    +0.000 C 
ATOM     30  C   UNL     1       2.874  12.276  17.885  0.00  0.00    +0.000 C 
ATOM     31  C   UNL     1       2.424  10.824  17.853  0.00  0.00    +0.000 C 
ATOM     32  C   UNL     1       1.019  10.797  18.456  0.00  0.00    +0.000 C 
ENDBRANCH  20  28
BRANCH   1  33
ATOM     33  N   UNL     1       7.622   5.279  14.693  0.00  0.00    +0.000 NA
ATOM     34  H   UNL     1       8.289   5.863  15.193  0.00  0.00    +0.000 HD
ATOM     35  H   UNL     1       7.561   5.667  13.751  0.00  0.00    +0.000 HD
ENDBRANCH   1  33
TORSDOF 2
ENDMDL
MODEL 4
REMARK VINA RESULT:      -7.2      1.045      1.306
REMARK  Name = 
REMARK  2 active torsions:
REMARK  status: ('A' for Active; 'I' for Inactive)
REMARK    1  A    between atoms: N_1  and  C_2
REMARK    2  A    between atoms: N_21  and  C_22
REMARK                            x       y       z     vdW  Elec       q    Type
REMARK                         _______ _______ _______ _____ _____    ______ ____
ROOT
ATOM      1  C   UNL     1       5.652   5.872  16.271  0.00  0.00    +0.000 C 
ATOM      2  C   UNL     1       5.344   5.790  17.745  0.00  0.00    +0.000 C 
ATOM      3  C   UNL     1       3.945   5.619  18.270  0.00  0.00    +0.000 C 
ATOM      4  N   UNL     1       3.276   6.885  17.968  0.00  0.00    +0.000 N 
ATOM      5  C   UNL     1       2.428   7.457  18.907  0.00  0.00    +0.000 A 
ATOM      6  C   UNL     1       1.768   8.639  18.614  0.00  0.00    +0.000 A 
ATOM      7  C   UNL     1       0.955   9.260  19.558  0.00  0.00    +0.000 A 
ATOM      8  C   UNL     1       0.790   8.723  20.822  0.00  0.00    +0.000 A 
ATOM      9  N   UNL     1       0.048   9.361  21.814  0.00  0.00    +0.000 N 
ATOM     10  C   UNL     1      -0.240  10.718  21.961  0.00  0.00    +0.000 A 
ATOM     11  N   UNL     1      -1.002  11.071  23.014  0.00  0.00    +0.000 NA
ATOM     12  C   UNL     1      -1.355  12.374  23.174  0.00  0.00    +0.000 A 
ATOM     13  C   UNL     1      -0.910  13.330  22.263  0.00  0.00    +0.000 A 
ATOM     14  C   UNL     1      -1.066  14.733  22.055  0.00  0.00    +0.000 A 
ATOM     15  C   UNL     1      -1.769  15.745  22.724  0.00  0.00    +0.000 A 
ATOM     16  C   UNL     1      -1.680  17.022  22.191  0.00  0.00    +0.000 A 
ATOM     17  N   UNL     1      -0.967  17.349  21.093  0.00  0.00    +0.000 NA
ATOM     18  C   UNL     1      -0.284  16.382  20.444  0.00  0.00    +0.000 A 
ATOM     19  C   UNL     1      -0.329  15.074  20.912  0.00  0.00    +0.000 A 
ATOM     20  N   UNL     1       0.252  13.908  20.438  0.00  0.00    +0.000 N 
ATOM     21  C   UNL     1      -0.109  12.857  21.248  0.00  0.00    +0.000 A 
ATOM     22  N   UNL     1       0.251  11.584  21.065  0.00  0.00    +0.000 NA
ATOM     23  N   UNL     1       1.374   7.537  21.076  0.00  0.00    +0.000 NA
ATOM     24  N   UNL     1       2.190   6.904  20.114  0.00  0.00    +0.000 NA
ATOM     25  C   UNL     1       4.094   7.776  17.138  0.00  0.00    +0.000 C 
ATOM     26  C   UNL     1       5.432   7.119  17.076  0.00  0.00    +0.000 C 
ATOM     27  H   UNL     1      -0.073   8.843  22.669  0.00  0.00    +0.000 HD
ENDROOT
BRANCH  20  28
ATOM     28  C   UNL     1       1.081  13.762  19.252  0.00  0.00    +0.000 C 
ATOM     29  C   UNL     1       2.577  13.978  19.499  0.00  0.00    +0.000 C 
ATOM     30  C   UNL     1       3.243  13.253  18.341  0.00  0.00    +0.000 C 
ATOM     31  C   UNL     1       2.382  12.019  18.120  0.00  0.00    +0.000 C 
ATOM     32  C   UNL     1       0.962  12.409  18.532  0.00  0.00    +0.000 C 
ENDBRANCH  20  28
BRANCH   1  33
ATOM     33  N   UNL     1       7.009   5.615  15.787  0.00  0.00    +0.000 NA
ATOM     34  H   UNL     1       7.281   4.647  15.955  0.00  0.00    +0.000 HD
ATOM     35  H   UNL     1       7.697   6.187  16.276  0.00  0.00    +0.000 HD
ENDBRANCH   1  33
TORSDOF 2
ENDMDL
MODEL 5
REMARK VINA RESULT:      -7.1      2.433      4.202
REMARK  Name = 
REMARK  2 active torsions:
REMARK  status: ('A' for Active; 'I' for Inactive)
REMARK    1  A    between atoms: N_1  and  C_2
REMARK    2  A    between atoms: N_21  and  C_22
REMARK                            x       y       z     vdW  Elec       q    Type
REMARK                         _______ _______ _______ _____ _____    ______ ____
ROOT
ATOM      1  C   UNL     1       2.419   2.710  19.003  0.00  0.00    +0.000 C 
ATOM      2  C   UNL     1       2.292   3.682  17.857  0.00  0.00    +0.000 C 
ATOM      3  C   UNL     1       3.140   4.919  17.749  0.00  0.00    +0.000 C 
ATOM      4  N   UNL     1       2.676   5.785  18.835  0.00  0.00    +0.000 N 
ATOM      5  C   UNL     1       2.525   7.147  18.612  0.00  0.00    +0.000 A 
ATOM      6  C   UNL     1       2.116   7.975  19.644  0.00  0.00    +0.000 A 
ATOM      7  C   UNL     1       1.905   9.335  19.433  0.00  0.00    +0.000 A 
ATOM      8  C   UNL     1       2.085   9.899  18.182  0.00  0.00    +0.000 A 
ATOM      9  N   UNL     1       1.806  11.240  17.921  0.00  0.00    +0.000 N 
ATOM     10  C   UNL     1       0.927  12.099  18.579  0.00  0.00    +0.000 A 
ATOM     11  N   UNL     1       0.858  13.366  18.128  0.00  0.00    +0.000 NA
ATOM     12  C   UNL     1       0.055  14.259  18.766  0.00  0.00    +0.000 A 
ATOM     13  C   UNL     1      -0.700  13.851  19.864  0.00  0.00    +0.000 A 
ATOM     14  C   UNL     1      -1.603  14.444  20.794  0.00  0.00    +0.000 A 
ATOM     15  C   UNL     1      -2.104  15.742  20.973  0.00  0.00    +0.000 A 
ATOM     16  C   UNL     1      -2.979  15.931  22.032  0.00  0.00    +0.000 A 
ATOM     17  N   UNL     1      -3.379  14.961  22.882  0.00  0.00    +0.000 NA
ATOM     18  C   UNL     1      -2.906  13.708  22.716  0.00  0.00    +0.000 A 
ATOM     19  C   UNL     1      -2.016  13.440  21.681  0.00  0.00    +0.000 A 
ATOM     20  N   UNL     1      -1.376  12.271  21.300  0.00  0.00    +0.000 N 
ATOM     21  C   UNL     1      -0.575  12.524  20.211  0.00  0.00    +0.000 A 
ATOM     22  N   UNL     1       0.206  11.627  19.605  0.00  0.00    +0.000 NA
ATOM     23  N   UNL     1       2.553   9.105  17.202  0.00  0.00    +0.000 NA
ATOM     24  N   UNL     1       2.776   7.728  17.421  0.00  0.00    +0.000 NA
ATOM     25  C   UNL     1       1.721   5.116  19.725  0.00  0.00    +0.000 C 
ATOM     26  C   UNL     1       1.413   3.821  19.053  0.00  0.00    +0.000 C 
ATOM     27  H   UNL     1       2.050  11.563  16.999  0.00  0.00    +0.000 HD
ENDROOT
BRANCH  20  28
ATOM     28  C   UNL     1      -1.469  10.971  21.946  0.00  0.00    +0.000 C 
ATOM     29  C   UNL     1      -0.940   9.809  21.100  0.00  0.00    +0.000 C 
ATOM     30  C   UNL     1      -0.621   8.732  22.125  0.00  0.00    +0.000 C 
ATOM     31  C   UNL     1      -0.074   9.495  23.320  0.00  0.00    +0.000 C 
ATOM     32  C   UNL     1      -0.759  10.863  23.305  0.00  0.00    +0.000 C 
ENDBRANCH  20  28
BRANCH   1  33
ATOM     33  N   UNL     1       1.908   1.345  18.871  0.00  0.00    +0.000 NA
ATOM     34  H   UNL     1       1.957   0.848  19.759  0.00  0.00    +0.000 HD
ATOM     35  H   UNL     1       2.464   0.797  18.214  0.00  0.00    +0.000 HD
ENDBRANCH   1  33
TORSDOF 2
ENDMDL
MODEL 6
REMARK VINA RESULT:      -7.1      5.135      7.225
REMARK  Name = 
REMARK  2 active torsions:
REMARK  status: ('A' for Active; 'I' for Inactive)
REMARK    1  A    between atoms: N_1  and  C_2
REMARK    2  A    between atoms: N_21  and  C_22
REMARK                            x       y       z     vdW  Elec       q    Type
REMARK                         _______ _______ _______ _____ _____    ______ ____
ROOT
ATOM      1  C   UNL     1       6.550  14.751  18.182  0.00  0.00    +0.000 C 
ATOM      2  C   UNL     1       5.694  15.704  18.978  0.00  0.00    +0.000 C 
ATOM      3  C   UNL     1       5.126  15.347  20.324  0.00  0.00    +0.000 C 
ATOM      4  N   UNL     1       4.122  14.319  20.044  0.00  0.00    +0.000 N 
ATOM      5  C   UNL     1       2.905  14.345  20.712  0.00  0.00    +0.000 A 
ATOM      6  C   UNL     1       1.964  13.357  20.475  0.00  0.00    +0.000 A 
ATOM      7  C   UNL     1       0.717  13.390  21.091  0.00  0.00    +0.000 A 
ATOM      8  C   UNL     1       0.373  14.419  21.950  0.00  0.00    +0.000 A 
ATOM      9  N   UNL     1      -0.895  14.523  22.519  0.00  0.00    +0.000 N 
ATOM     10  C   UNL     1      -2.111  14.020  22.057  0.00  0.00    +0.000 A 
ATOM     11  N   UNL     1      -3.198  14.253  22.817  0.00  0.00    +0.000 NA
ATOM     12  C   UNL     1      -4.399  13.741  22.438  0.00  0.00    +0.000 A 
ATOM     13  C   UNL     1      -4.497  13.001  21.262  0.00  0.00    +0.000 A 
ATOM     14  C   UNL     1      -5.510  12.294  20.549  0.00  0.00    +0.000 A 
ATOM     15  C   UNL     1      -6.874  12.056  20.773  0.00  0.00    +0.000 A 
ATOM     16  C   UNL     1      -7.536  11.288  19.827  0.00  0.00    +0.000 A 
ATOM     17  N   UNL     1      -6.964  10.769  18.720  0.00  0.00    +0.000 NA
ATOM     18  C   UNL     1      -5.653  10.995  18.493  0.00  0.00    +0.000 A 
ATOM     19  C   UNL     1      -4.917  11.750  19.400  0.00  0.00    +0.000 A 
ATOM     20  N   UNL     1      -3.580  12.115  19.421  0.00  0.00    +0.000 N 
ATOM     21  C   UNL     1      -3.327  12.859  20.549  0.00  0.00    +0.000 A 
ATOM     22  N   UNL     1      -2.135  13.348  20.899  0.00  0.00    +0.000 NA
ATOM     23  N   UNL     1       1.316  15.335  22.234  0.00  0.00    +0.000 NA
ATOM     24  N   UNL     1       2.585  15.293  21.616  0.00  0.00    +0.000 NA
ATOM     25  C   UNL     1       4.138  13.876  18.646  0.00  0.00    +0.000 C 
ATOM     26  C   UNL     1       5.068  14.816  17.957  0.00  0.00    +0.000 C 
ATOM     27  H   UNL     1      -1.011  15.263  23.192  0.00  0.00    +0.000 HD
ENDROOT
BRANCH  20  28
ATOM     28  C   UNL     1      -2.559  11.752  18.451  0.00  0.00    +0.000 C 
ATOM     29  C   UNL     1      -1.747  10.509  18.826  0.00  0.00    +0.000 C 
ATOM     30  C   UNL     1      -1.193  10.023  17.497  0.00  0.00    +0.000 C 
ATOM     31  C   UNL     1      -2.311  10.286  16.501  0.00  0.00    +0.000 C 
ATOM     32  C   UNL     1      -3.070  11.507  17.021  0.00  0.00    +0.000 C 
ENDBRANCH  20  28
BRANCH   1  33
ATOM     33  N   UNL     1       7.415  15.254  17.114  0.00  0.00    +0.000 NA
ATOM     34  H   UNL     1       7.273  14.732  16.251  0.00  0.00    +0.000 HD
ATOM     35  H   UNL     1       8.403  15.145  17.347  0.00  0.00    +0.000 HD
ENDBRANCH   1  33
TORSDOF 2
ENDMDL
MODEL 7
REMARK VINA RESULT:      -7.1      2.417      9.362
REMARK  Name = 
REMARK  2 active torsions:
REMARK  status: ('A' for Active; 'I' for Inactive)
REMARK    1  A    between atoms: N_1  and  C_2
REMARK    2  A    between atoms: N_21  and  C_22
REMARK                            x       y       z     vdW  Elec       q    Type
REMARK                         _______ _______ _______ _____ _____    ______ ____
ROOT
ATOM      1  C   UNL     1      -0.985  17.030  23.101  0.00  0.00    +0.000 C 
ATOM      2  C   UNL     1       0.152  16.863  22.125  0.00  0.00    +0.000 C 
ATOM      3  C   UNL     1      -0.050  16.326  20.735  0.00  0.00    +0.000 C 
ATOM      4  N   UNL     1      -0.395  14.916  20.926  0.00  0.00    +0.000 N 
ATOM      5  C   UNL     1       0.144  13.954  20.081  0.00  0.00    +0.000 A 
ATOM      6  C   UNL     1      -0.204  12.623  20.238  0.00  0.00    +0.000 A 
ATOM      7  C   UNL     1       0.364  11.634  19.440  0.00  0.00    +0.000 A 
ATOM      8  C   UNL     1       1.303  11.948  18.474  0.00  0.00    +0.000 A 
ATOM      9  N   UNL     1       1.947  10.973  17.714  0.00  0.00    +0.000 N 
ATOM     10  C   UNL     1       2.182   9.633  18.020  0.00  0.00    +0.000 A 
ATOM     11  N   UNL     1       2.822   8.897  17.090  0.00  0.00    +0.000 NA
ATOM     12  C   UNL     1       3.030   7.572  17.317  0.00  0.00    +0.000 A 
ATOM     13  C   UNL     1       2.600   6.997  18.511  0.00  0.00    +0.000 A 
ATOM     14  C   UNL     1       2.592   5.701  19.107  0.00  0.00    +0.000 A 
ATOM     15  C   UNL     1       3.037   4.437  18.696  0.00  0.00    +0.000 A 
ATOM     16  C   UNL     1       2.833   3.387  19.578  0.00  0.00    +0.000 A 
ATOM     17  N   UNL     1       2.250   3.504  20.790  0.00  0.00    +0.000 NA
ATOM     18  C   UNL     1       1.821   4.717  21.197  0.00  0.00    +0.000 A 
ATOM     19  C   UNL     1       1.983   5.819  20.364  0.00  0.00    +0.000 A 
ATOM     20  N   UNL     1       1.628   7.150  20.522  0.00  0.00    +0.000 N 
ATOM     21  C   UNL     1       1.991   7.855  19.399  0.00  0.00    +0.000 A 
ATOM     22  N   UNL     1       1.771   9.157  19.202  0.00  0.00    +0.000 NA
ATOM     23  N   UNL     1       1.581  13.250  18.276  0.00  0.00    +0.000 NA
ATOM     24  N   UNL     1       0.997  14.252  19.080  0.00  0.00    +0.000 NA
ATOM     25  C   UNL     1      -0.597  14.567  22.336  0.00  0.00    +0.000 C 
ATOM     26  C   UNL     1      -0.163  15.775  23.095  0.00  0.00    +0.000 C 
ATOM     27  H   UNL     1       2.551  11.318  16.985  0.00  0.00    +0.000 HD
ENDROOT
BRANCH  20  28
ATOM     28  C   UNL     1       0.937   7.743  21.657  0.00  0.00    +0.000 C 
ATOM     29  C   UNL     1       1.651   8.954  22.264  0.00  0.00    +0.000 C 
ATOM     30  C   UNL     1       0.544   9.699  22.992  0.00  0.00    +0.000 C 
ATOM     31  C   UNL     1      -0.674   9.538  22.097  0.00  0.00    +0.000 C 
ATOM     32  C   UNL     1      -0.506   8.197  21.382  0.00  0.00    +0.000 C 
ENDBRANCH  20  28
BRANCH   1  33
ATOM     33  N   UNL     1      -0.842  17.923  24.252  0.00  0.00    +0.000 NA
ATOM     34  H   UNL     1      -1.416  17.607  25.033  0.00  0.00    +0.000 HD
ATOM     35  H   UNL     1      -1.160  18.868  24.037  0.00  0.00    +0.000 HD
ENDBRANCH   1  33
TORSDOF 2
ENDMDL
MODEL 8
REMARK VINA RESULT:      -7.0      1.193      1.609
REMARK  Name = 
REMARK  2 active torsions:
REMARK  status: ('A' for Active; 'I' for Inactive)
REMARK    1  A    between atoms: N_1  and  C_2
REMARK    2  A    between atoms: N_21  and  C_22
REMARK                            x       y       z     vdW  Elec       q    Type
REMARK                         _______ _______ _______ _____ _____    ______ ____
ROOT
ATOM      1  C   UNL     1       4.911   5.394  16.986  0.00  0.00    +0.000 C 
ATOM      2  C   UNL     1       4.417   5.372  18.411  0.00  0.00    +0.000 C 
ATOM      3  C   UNL     1       2.965   5.539  18.765  0.00  0.00    +0.000 C 
ATOM      4  N   UNL     1       2.660   6.934  18.439  0.00  0.00    +0.000 N 
ATOM      5  C   UNL     1       1.866   7.683  19.298  0.00  0.00    +0.000 A 
ATOM      6  C   UNL     1       1.549   8.993  18.979  0.00  0.00    +0.000 A 
ATOM      7  C   UNL     1       0.801   9.782  19.848  0.00  0.00    +0.000 A 
ATOM      8  C   UNL     1       0.361   9.286  21.063  0.00  0.00    +0.000 A 
ATOM      9  N   UNL     1      -0.321  10.075  21.988  0.00  0.00    +0.000 N 
ATOM     10  C   UNL     1      -0.292  11.459  22.155  0.00  0.00    +0.000 A 
ATOM     11  N   UNL     1      -1.068  11.974  23.128  0.00  0.00    +0.000 NA
ATOM     12  C   UNL     1      -1.115  13.322  23.299  0.00  0.00    +0.000 A 
ATOM     13  C   UNL     1      -0.348  14.152  22.484  0.00  0.00    +0.000 A 
ATOM     14  C   UNL     1      -0.137  15.553  22.317  0.00  0.00    +0.000 A 
ATOM     15  C   UNL     1      -0.652  16.698  22.941  0.00  0.00    +0.000 A 
ATOM     16  C   UNL     1      -0.197  17.921  22.474  0.00  0.00    +0.000 A 
ATOM     17  N   UNL     1       0.701  18.077  21.478  0.00  0.00    +0.000 NA
ATOM     18  C   UNL     1       1.206  16.982  20.873  0.00  0.00    +0.000 A 
ATOM     19  C   UNL     1       0.793  15.718  21.280  0.00  0.00    +0.000 A 
ATOM     20  N   UNL     1       1.131  14.452  20.829  0.00  0.00    +0.000 N 
ATOM     21  C   UNL     1       0.434  13.510  21.550  0.00  0.00    +0.000 A 
ATOM     22  N   UNL     1       0.498  12.191  21.358  0.00  0.00    +0.000 NA
ATOM     23  N   UNL     1       0.609   7.992  21.333  0.00  0.00    +0.000 NA
ATOM     24  N   UNL     1       1.359   7.191  20.446  0.00  0.00    +0.000 NA
ATOM     25  C   UNL     1       3.762   7.609  17.745  0.00  0.00    +0.000 C 
ATOM     26  C   UNL     1       4.901   6.648  17.810  0.00  0.00    +0.000 C 
ATOM     27  H   UNL     1      -0.665   9.592  22.802  0.00  0.00    +0.000 HD
ENDROOT
BRANCH  20  28
ATOM     28  C   UNL     1       2.037  14.123  19.741  0.00  0.00    +0.000 C 
ATOM     29  C   UNL     1       1.828  14.957  18.474  0.00  0.00    +0.000 C 
ATOM     30  C   UNL     1       3.159  14.853  17.748  0.00  0.00    +0.000 C 
ATOM     31  C   UNL     1       4.199  14.870  18.857  0.00  0.00    +0.000 C 
ATOM     32  C   UNL     1       3.533  14.234  20.078  0.00  0.00    +0.000 C 
ENDBRANCH  20  28
BRANCH   1  33
ATOM     33  N   UNL     1       6.215   4.821  16.650  0.00  0.00    +0.000 NA
ATOM     34  H   UNL     1       6.964   5.295  17.152  0.00  0.00    +0.000 HD
ATOM     35  H   UNL     1       6.430   4.931  15.658  0.00  0.00    +0.000 HD
ENDBRANCH   1  33
TORSDOF 2
ENDMDL
MODEL 9
REMARK VINA RESULT:      -6.6      5.529      7.496
REMARK  Name = 
REMARK  2 active torsions:
REMARK  status: ('A' for Active; 'I' for Inactive)
REMARK    1  A    between atoms: N_1  and  C_2
REMARK    2  A    between atoms: N_21  and  C_22
REMARK                            x       y       z     vdW  Elec       q    Type
REMARK                         _______ _______ _______ _____ _____    ______ ____
ROOT
ATOM      1  C   UNL     1       6.372  16.187  21.874  0.00  0.00    +0.000 C 
ATOM      2  C   UNL     1       6.081  14.955  21.055  0.00  0.00    +0.000 C 
ATOM      3  C   UNL     1       5.311  15.006  19.764  0.00  0.00    +0.000 C 
ATOM      4  N   UNL     1       3.943  15.345  20.160  0.00  0.00    +0.000 N 
ATOM      5  C   UNL     1       2.872  14.706  19.548  0.00  0.00    +0.000 A 
ATOM      6  C   UNL     1       1.575  15.045  19.896  0.00  0.00    +0.000 A 
ATOM      7  C   UNL     1       0.485  14.383  19.338  0.00  0.00    +0.000 A 
ATOM      8  C   UNL     1       0.664  13.357  18.427  0.00  0.00    +0.000 A 
ATOM      9  N   UNL     1      -0.402  12.622  17.911  0.00  0.00    +0.000 N 
ATOM     10  C   UNL     1      -1.662  12.396  18.462  0.00  0.00    +0.000 A 
ATOM     11  N   UNL     1      -2.522  11.653  17.738  0.00  0.00    +0.000 NA
ATOM     12  C   UNL     1      -3.782  11.445  18.207  0.00  0.00    +0.000 A 
ATOM     13  C   UNL     1      -4.162  11.983  19.435  0.00  0.00    +0.000 A 
ATOM     14  C   UNL     1      -5.338  12.029  20.241  0.00  0.00    +0.000 A 
ATOM     15  C   UNL     1      -6.638  11.522  20.097  0.00  0.00    +0.000 A 
ATOM     16  C   UNL     1      -7.530  11.796  21.122  0.00  0.00    +0.000 A 
ATOM     17  N   UNL     1      -7.231  12.500  22.234  0.00  0.00    +0.000 NA
ATOM     18  C   UNL     1      -5.982  12.988  22.384  0.00  0.00    +0.000 A 
ATOM     19  C   UNL     1      -5.031  12.763  21.395  0.00  0.00    +0.000 A 
ATOM     20  N   UNL     1      -3.706  13.156  21.288  0.00  0.00    +0.000 N 
ATOM     21  C   UNL     1      -3.188  12.694  20.101  0.00  0.00    +0.000 A 
ATOM     22  N   UNL     1      -1.946  12.915  19.664  0.00  0.00    +0.000 NA
ATOM     23  N   UNL     1       1.923  13.083  18.037  0.00  0.00    +0.000 NA
ATOM     24  N   UNL     1       3.026  13.763  18.597  0.00  0.00    +0.000 NA
ATOM     25  C   UNL     1       3.830  15.681  21.583  0.00  0.00    +0.000 C 
ATOM     26  C   UNL     1       5.163  15.347  22.162  0.00  0.00    +0.000 C 
ATOM     27  H   UNL     1      -0.165  11.954  17.195  0.00  0.00    +0.000 HD
ENDROOT
BRANCH  20  28
ATOM     28  C   UNL     1      -2.954  13.967  22.232  0.00  0.00    +0.000 C 
ATOM     29  C   UNL     1      -1.586  13.389  22.608  0.00  0.00    +0.000 C 
ATOM     30  C   UNL     1      -0.807  14.597  23.101  0.00  0.00    +0.000 C 
ATOM     31  C   UNL     1      -1.254  15.734  22.195  0.00  0.00    +0.000 C 
ATOM     32  C   UNL     1      -2.694  15.416  21.790  0.00  0.00    +0.000 C 
ENDBRANCH  20  28
BRANCH   1  33
ATOM     33  N   UNL     1       7.450  16.177  22.864  0.00  0.00    +0.000 NA
ATOM     34  H   UNL     1       7.979  17.047  22.839  0.00  0.00    +0.000 HD
ATOM     35  H   UNL     1       8.125  15.434  22.677  0.00  0.00    +0.000 HD
ENDBRANCH   1  33
TORSDOF 2
ENDMDL
