MODEL 1
REMARK VINA RESULT:      -7.9      0.000      0.000
REMARK  Name = 
REMARK  7 active torsions:
REMARK  status: ('A' for Active; 'I' for Inactive)
REMARK    1  A    between atoms: C_1  and  C_2
REMARK    2  A    between atoms: C_4  and  C_5
REMARK    3  A    between atoms: N_7  and  C_8
REMARK    4  A    between atoms: C_8  and  C_9
REMARK    5  A    between atoms: C_10  and  C_11
REMARK    6  A    between atoms: N_13  and  C_14
REMARK    7  A    between atoms: C_15  and  C_16
REMARK                            x       y       z     vdW  Elec       q    Type
REMARK                         _______ _______ _______ _____ _____    ______ ____
ROOT
ATOM      1  C   UNL     1       1.840   8.809  18.571  0.00  0.00    +0.000 C 
ATOM      2  O   UNL     1       2.020   9.437  17.541  0.00  0.00    +0.000 OA
ATOM      3  N   UNL     1       1.106   9.295  19.648  0.00  0.00    +0.000 N 
ATOM      4  H   UNL     1       1.175   8.777  20.516  0.00  0.00    +0.000 HD
ENDROOT
BRANCH   1   8
ATOM      5  C   UNL     1       2.381   4.444  21.009  0.00  0.00    +0.000 C 
ATOM      6  C   UNL     1       2.643   5.392  19.874  0.00  0.00    +0.000 A 
ATOM      7  C   UNL     1       2.062   6.637  19.812  0.00  0.00    +0.000 A 
ATOM      8  C   UNL     1       2.432   7.421  18.735  0.00  0.00    +0.000 A 
ATOM      9  N   UNL     1       3.328   7.028  17.801  0.00  0.00    +0.000 NA
ATOM     10  C   UNL     1       3.850   5.798  17.938  0.00  0.00    +0.000 A 
ATOM     11  N   UNL     1       4.776   5.367  17.045  0.00  0.00    +0.000 N 
ATOM     12  C   UNL     1       5.328   6.203  16.003  0.00  0.00    +0.000 C 
ATOM     13  C   UNL     1       5.567   5.213  14.876  0.00  0.00    +0.000 C 
ATOM     14  C   UNL     1       5.967   3.936  15.603  0.00  0.00    +0.000 C 
ATOM     15  C   UNL     1       5.179   3.977  16.920  0.00  0.00    +0.000 C 
ATOM     16  N   UNL     1       3.510   4.962  18.937  0.00  0.00    +0.000 NA
ENDBRANCH   1   8
BRANCH   3  17
ATOM     17  C   UNL     1       0.496  10.621  19.659  0.00  0.00    +0.000 C 
BRANCH  17  18
ATOM     18  C   UNL     1      -0.258  10.865  20.941  0.00  0.00    +0.000 A 
ATOM     19  C   UNL     1      -0.063  10.304  22.249  0.00  0.00    +0.000 A 
ATOM     20  C   UNL     1       0.897   9.300  22.775  0.00  0.00    +0.000 C 
ATOM     21  N   UNL     1      -0.913  10.820  23.143  0.00  0.00    +0.000 NA
ATOM     22  N   UNL     1      -1.637  11.704  22.456  0.00  0.00    +0.000 N 
ATOM     23  C   UNL     1      -2.675  12.427  23.154  0.00  0.00    +0.000 C 
ATOM     24  C   UNL     1      -1.276  11.796  21.140  0.00  0.00    +0.000 A 
ATOM     25  C   UNL     1      -1.899  12.754  20.189  0.00  0.00    +0.000 C 
ENDBRANCH  17  18
ENDBRANCH   3  17
TORSDOF 3
ENDMDL
MODEL 2
REMARK VINA RESULT:      -7.8      2.486      8.009
REMARK  Name = 
REMARK  7 active torsions:
REMARK  status: ('A' for Active; 'I' for Inactive)
REMARK    1  A    between atoms: C_1  and  C_2
REMARK    2  A    between atoms: C_4  and  C_5
REMARK    3  A    between atoms: N_7  and  C_8
REMARK    4  A    between atoms: C_8  and  C_9
REMARK    5  A    between atoms: C_10  and  C_11
REMARK    6  A    between atoms: N_13  and  C_14
REMARK    7  A    between atoms: C_15  and  C_16
REMARK                            x       y       z     vdW  Elec       q    Type
REMARK                         _______ _______ _______ _____ _____    ______ ____
ROOT
ATOM      1  C   UNL     1       1.933   8.878  18.145  0.00  0.00    +0.000 C 
ATOM      2  O   UNL     1       2.577   9.381  17.240  0.00  0.00    +0.000 OA
ATOM      3  N   UNL     1       2.234   7.639  18.704  0.00  0.00    +0.000 N 
ATOM      4  H   UNL     1       1.534   7.234  19.313  0.00  0.00    +0.000 HD
ENDROOT
BRANCH   1   8
ATOM      5  C   UNL     1      -0.517  11.204  21.870  0.00  0.00    +0.000 C 
ATOM      6  C   UNL     1      -0.375  10.700  20.462  0.00  0.00    +0.000 A 
ATOM      7  C   UNL     1       0.756  10.051  20.028  0.00  0.00    +0.000 A 
ATOM      8  C   UNL     1       0.729   9.599  18.722  0.00  0.00    +0.000 A 
ATOM      9  N   UNL     1      -0.340   9.744  17.907  0.00  0.00    +0.000 NA
ATOM     10  C   UNL     1      -1.407  10.388  18.411  0.00  0.00    +0.000 A 
ATOM     11  N   UNL     1      -2.517  10.534  17.643  0.00  0.00    +0.000 N 
ATOM     12  C   UNL     1      -2.667   9.934  16.338  0.00  0.00    +0.000 C 
ATOM     13  C   UNL     1      -3.513  10.957  15.599  0.00  0.00    +0.000 C 
ATOM     14  C   UNL     1      -4.434  11.506  16.682  0.00  0.00    +0.000 C 
ATOM     15  C   UNL     1      -3.595  11.452  17.966  0.00  0.00    +0.000 C 
ATOM     16  N   UNL     1      -1.440  10.890  19.659  0.00  0.00    +0.000 NA
ENDBRANCH   1   8
BRANCH   3  17
ATOM     17  C   UNL     1       3.341   6.809  18.243  0.00  0.00    +0.000 C 
BRANCH  17  18
ATOM     18  C   UNL     1       3.118   5.359  18.588  0.00  0.00    +0.000 A 
ATOM     19  C   UNL     1       2.324   4.768  19.629  0.00  0.00    +0.000 A 
ATOM     20  C   UNL     1       1.497   5.357  20.713  0.00  0.00    +0.000 C 
ATOM     21  N   UNL     1       2.342   3.433  19.572  0.00  0.00    +0.000 NA
ATOM     22  N   UNL     1       3.109   3.146  18.519  0.00  0.00    +0.000 N 
ATOM     23  C   UNL     1       3.341   1.756  18.201  0.00  0.00    +0.000 C 
ATOM     24  C   UNL     1       3.581   4.256  17.873  0.00  0.00    +0.000 A 
ATOM     25  C   UNL     1       4.408   4.190  16.639  0.00  0.00    +0.000 C 
ENDBRANCH  17  18
ENDBRANCH   3  17
TORSDOF 3
ENDMDL
MODEL 3
REMARK VINA RESULT:      -7.8      2.557      7.865
REMARK  Name = 
REMARK  7 active torsions:
REMARK  status: ('A' for Active; 'I' for Inactive)
REMARK    1  A    between atoms: C_1  and  C_2
REMARK    2  A    between atoms: C_4  and  C_5
REMARK    3  A    between atoms: N_7  and  C_8
REMARK    4  A    between atoms: C_8  and  C_9
REMARK    5  A    between atoms: C_10  and  C_11
REMARK    6  A    between atoms: N_13  and  C_14
REMARK    7  A    between atoms: C_15  and  C_16
REMARK                            x       y       z     vdW  Elec       q    Type
REMARK                         _______ _______ _______ _____ _____    ______ ____
ROOT
ATOM      1  C   UNL     1       1.980   8.529  18.354  0.00  0.00    +0.000 C 
ATOM      2  O   UNL     1       2.521   8.749  17.283  0.00  0.00    +0.000 OA
ATOM      3  N   UNL     1       2.359   7.499  19.208  0.00  0.00    +0.000 N 
ATOM      4  H   UNL     1       1.731   7.290  19.975  0.00  0.00    +0.000 HD
ENDROOT
BRANCH   1   8
ATOM      5  C   UNL     1      -0.377  11.379  21.762  0.00  0.00    +0.000 C 
ATOM      6  C   UNL     1      -0.236  10.737  20.411  0.00  0.00    +0.000 A 
ATOM      7  C   UNL     1       0.850   9.962  20.079  0.00  0.00    +0.000 A 
ATOM      8  C   UNL     1       0.823   9.395  18.819  0.00  0.00    +0.000 A 
ATOM      9  N   UNL     1      -0.206   9.550  17.955  0.00  0.00    +0.000 NA
ATOM     10  C   UNL     1      -1.229  10.321  18.360  0.00  0.00    +0.000 A 
ATOM     11  N   UNL     1      -2.300  10.484  17.542  0.00  0.00    +0.000 N 
ATOM     12  C   UNL     1      -2.463   9.779  16.291  0.00  0.00    +0.000 C 
ATOM     13  C   UNL     1      -3.199  10.794  15.433  0.00  0.00    +0.000 C 
ATOM     14  C   UNL     1      -4.102  11.513  16.428  0.00  0.00    +0.000 C 
ATOM     15  C   UNL     1      -3.308  11.511  17.742  0.00  0.00    +0.000 C 
ATOM     16  N   UNL     1      -1.257  10.937  19.555  0.00  0.00    +0.000 NA
ENDBRANCH   1   8
BRANCH   3  17
ATOM     17  C   UNL     1       3.433   6.563  18.894  0.00  0.00    +0.000 C 
BRANCH  17  18
ATOM     18  C   UNL     1       2.886   5.210  18.516  0.00  0.00    +0.000 A 
ATOM     19  C   UNL     1       3.272   4.320  17.457  0.00  0.00    +0.000 A 
ATOM     20  C   UNL     1       4.291   4.428  16.381  0.00  0.00    +0.000 C 
ATOM     21  N   UNL     1       2.574   3.181  17.485  0.00  0.00    +0.000 NA
ATOM     22  N   UNL     1       1.762   3.303  18.536  0.00  0.00    +0.000 N 
ATOM     23  C   UNL     1       0.850   2.220  18.825  0.00  0.00    +0.000 C 
ATOM     24  C   UNL     1       1.920   4.484  19.210  0.00  0.00    +0.000 A 
ATOM     25  C   UNL     1       1.169   4.822  20.447  0.00  0.00    +0.000 C 
ENDBRANCH  17  18
ENDBRANCH   3  17
TORSDOF 3
ENDMDL
MODEL 4
REMARK VINA RESULT:      -7.6      2.457      7.905
REMARK  Name = 
REMARK  7 active torsions:
REMARK  status: ('A' for Active; 'I' for Inactive)
REMARK    1  A    between atoms: C_1  and  C_2
REMARK    2  A    between atoms: C_4  and  C_5
REMARK    3  A    between atoms: N_7  and  C_8
REMARK    4  A    between atoms: C_8  and  C_9
REMARK    5  A    between atoms: C_10  and  C_11
REMARK    6  A    between atoms: N_13  and  C_14
REMARK    7  A    between atoms: C_15  and  C_16
REMARK                            x       y       z     vdW  Elec       q    Type
REMARK                         _______ _______ _______ _____ _____    ______ ____
ROOT
ATOM      1  C   UNL     1       2.274   8.804  17.934  0.00  0.00    +0.000 C 
ATOM      2  O   UNL     1       2.895   9.504  17.152  0.00  0.00    +0.000 OA
ATOM      3  N   UNL     1       2.625   7.492  18.236  0.00  0.00    +0.000 N 
ATOM      4  H   UNL     1       1.942   6.945  18.747  0.00  0.00    +0.000 HD
ENDROOT
BRANCH   1   8
ATOM      5  C   UNL     1      -0.268  10.245  22.027  0.00  0.00    +0.000 C 
ATOM      6  C   UNL     1      -0.106  10.035  20.548  0.00  0.00    +0.000 A 
ATOM      7  C   UNL     1       1.051   9.532  20.003  0.00  0.00    +0.000 A 
ATOM      8  C   UNL     1       1.041   9.346  18.634  0.00  0.00    +0.000 A 
ATOM      9  N   UNL     1      -0.035   9.604  17.855  0.00  0.00    +0.000 NA
ATOM     10  C   UNL     1      -1.127  10.091  18.469  0.00  0.00    +0.000 A 
ATOM     11  N   UNL     1      -2.243  10.339  17.738  0.00  0.00    +0.000 N 
ATOM     12  C   UNL     1      -2.371  10.002  16.338  0.00  0.00    +0.000 C 
ATOM     13  C   UNL     1      -3.260  11.114  15.811  0.00  0.00    +0.000 C 
ATOM     14  C   UNL     1      -4.202  11.400  16.974  0.00  0.00    +0.000 C 
ATOM     15  C   UNL     1      -3.360  11.129  18.228  0.00  0.00    +0.000 C 
ATOM     16  N   UNL     1      -1.180  10.335  19.791  0.00  0.00    +0.000 NA
ENDBRANCH   1   8
BRANCH   3  17
ATOM     17  C   UNL     1       3.766   6.816  17.628  0.00  0.00    +0.000 C 
BRANCH  17  18
ATOM     18  C   UNL     1       3.962   5.441  18.213  0.00  0.00    +0.000 A 
ATOM     19  C   UNL     1       5.076   4.895  18.938  0.00  0.00    +0.000 A 
ATOM     20  C   UNL     1       6.392   5.463  19.326  0.00  0.00    +0.000 C 
ATOM     21  N   UNL     1       4.843   3.641  19.339  0.00  0.00    +0.000 NA
ATOM     22  N   UNL     1       3.610   3.369  18.909  0.00  0.00    +0.000 N 
ATOM     23  C   UNL     1       3.068   2.056  19.176  0.00  0.00    +0.000 C 
ATOM     24  C   UNL     1       3.020   4.414  18.252  0.00  0.00    +0.000 A 
ATOM     25  C   UNL     1       1.628   4.368  17.733  0.00  0.00    +0.000 C 
ENDBRANCH  17  18
ENDBRANCH   3  17
TORSDOF 3
ENDMDL
MODEL 5
REMARK VINA RESULT:      -7.6      1.651      2.082
REMARK  Name = 
REMARK  7 active torsions:
REMARK  status: ('A' for Active; 'I' for Inactive)
REMARK    1  A    between atoms: C_1  and  C_2
REMARK    2  A    between atoms: C_4  and  C_5
REMARK    3  A    between atoms: N_7  and  C_8
REMARK    4  A    between atoms: C_8  and  C_9
REMARK    5  A    between atoms: C_10  and  C_11
REMARK    6  A    between atoms: N_13  and  C_14
REMARK    7  A    between atoms: C_15  and  C_16
REMARK                            x       y       z     vdW  Elec       q    Type
REMARK                         _______ _______ _______ _____ _____    ______ ____
ROOT
ATOM      1  C   UNL     1       1.891   9.019  18.142  0.00  0.00    +0.000 C 
ATOM      2  O   UNL     1       2.521   9.800  17.450  0.00  0.00    +0.000 OA
ATOM      3  N   UNL     1       0.666   9.327  18.726  0.00  0.00    +0.000 N 
ATOM      4  H   UNL     1       0.322   8.682  19.427  0.00  0.00    +0.000 HD
ENDROOT
BRANCH   1   8
ATOM      5  C   UNL     1       2.202   4.803  20.866  0.00  0.00    +0.000 C 
ATOM      6  C   UNL     1       2.536   5.670  19.686  0.00  0.00    +0.000 A 
ATOM      7  C   UNL     1       1.998   6.924  19.523  0.00  0.00    +0.000 A 
ATOM      8  C   UNL     1       2.433   7.628  18.416  0.00  0.00    +0.000 A 
ATOM      9  N   UNL     1       3.351   7.152  17.545  0.00  0.00    +0.000 NA
ATOM     10  C   UNL     1       3.829   5.917  17.779  0.00  0.00    +0.000 A 
ATOM     11  N   UNL     1       4.775   5.405  16.951  0.00  0.00    +0.000 N 
ATOM     12  C   UNL     1       5.393   6.158  15.883  0.00  0.00    +0.000 C 
ATOM     13  C   UNL     1       5.644   5.092  14.830  0.00  0.00    +0.000 C 
ATOM     14  C   UNL     1       5.976   3.852  15.651  0.00  0.00    +0.000 C 
ATOM     15  C   UNL     1       5.140   3.999  16.929  0.00  0.00    +0.000 C 
ATOM     16  N   UNL     1       3.426   5.157  18.812  0.00  0.00    +0.000 NA
ENDBRANCH   1   8
BRANCH   3  17
ATOM     17  C   UNL     1       0.024  10.629  18.582  0.00  0.00    +0.000 C 
BRANCH  17  18
ATOM     18  C   UNL     1       0.507  11.596  19.633  0.00  0.00    +0.000 A 
ATOM     19  C   UNL     1       0.274  11.612  21.051  0.00  0.00    +0.000 A 
ATOM     20  C   UNL     1      -0.519  10.730  21.945  0.00  0.00    +0.000 C 
ATOM     21  N   UNL     1       0.925  12.614  21.650  0.00  0.00    +0.000 NA
ATOM     22  N   UNL     1       1.579  13.233  20.667  0.00  0.00    +0.000 N 
ATOM     23  C   UNL     1       2.375  14.393  20.999  0.00  0.00    +0.000 C 
ATOM     24  C   UNL     1       1.391  12.656  19.441  0.00  0.00    +0.000 A 
ATOM     25  C   UNL     1       2.063  13.133  18.204  0.00  0.00    +0.000 C 
ENDBRANCH  17  18
ENDBRANCH   3  17
TORSDOF 3
ENDMDL
MODEL 6
REMARK VINA RESULT:      -7.5      2.556      8.060
REMARK  Name = 
REMARK  7 active torsions:
REMARK  status: ('A' for Active; 'I' for Inactive)
REMARK    1  A    between atoms: C_1  and  C_2
REMARK    2  A    between atoms: C_4  and  C_5
REMARK    3  A    between atoms: N_7  and  C_8
REMARK    4  A    between atoms: C_8  and  C_9
REMARK    5  A    between atoms: C_10  and  C_11
REMARK    6  A    between atoms: N_13  and  C_14
REMARK    7  A    between atoms: C_15  and  C_16
REMARK                            x       y       z     vdW  Elec       q    Type
REMARK                         _______ _______ _______ _____ _____    ______ ____
ROOT
ATOM      1  C   UNL     1       2.073   8.894  17.990  0.00  0.00    +0.000 C 
ATOM      2  O   UNL     1       2.708   9.482  17.130  0.00  0.00    +0.000 OA
ATOM      3  N   UNL     1       2.386   7.614  18.435  0.00  0.00    +0.000 N 
ATOM      4  H   UNL     1       1.693   7.149  19.008  0.00  0.00    +0.000 HD
ENDROOT
BRANCH   1   8
ATOM      5  C   UNL     1      -0.360  10.910  21.902  0.00  0.00    +0.000 C 
ATOM      6  C   UNL     1      -0.231  10.507  20.461  0.00  0.00    +0.000 A 
ATOM      7  C   UNL     1       0.905   9.912  19.966  0.00  0.00    +0.000 A 
ATOM      8  C   UNL     1       0.865   9.550  18.633  0.00  0.00    +0.000 A 
ATOM      9  N   UNL     1      -0.220   9.730  17.845  0.00  0.00    +0.000 NA
ATOM     10  C   UNL     1      -1.290  10.317  18.409  0.00  0.00    +0.000 A 
ATOM     11  N   UNL     1      -2.415  10.494  17.670  0.00  0.00    +0.000 N 
ATOM     12  C   UNL     1      -2.575   9.982  16.328  0.00  0.00    +0.000 C 
ATOM     13  C   UNL     1      -3.452  11.037  15.675  0.00  0.00    +0.000 C 
ATOM     14  C   UNL     1      -4.365  11.492  16.806  0.00  0.00    +0.000 C 
ATOM     15  C   UNL     1      -3.505  11.366  18.071  0.00  0.00    +0.000 C 
ATOM     16  N   UNL     1      -1.312  10.731  19.688  0.00  0.00    +0.000 NA
ENDBRANCH   1   8
BRANCH   3  17
ATOM     17  C   UNL     1       3.499   6.838  17.898  0.00  0.00    +0.000 C 
BRANCH  17  18
ATOM     18  C   UNL     1       3.456   5.412  18.385  0.00  0.00    +0.000 A 
ATOM     19  C   UNL     1       2.444   4.407  18.215  0.00  0.00    +0.000 A 
ATOM     20  C   UNL     1       1.117   4.426  17.549  0.00  0.00    +0.000 C 
ATOM     21  N   UNL     1       2.805   3.240  18.757  0.00  0.00    +0.000 NA
ATOM     22  N   UNL     1       4.023   3.457  19.257  0.00  0.00    +0.000 N 
ATOM     23  C   UNL     1       4.687   2.369  19.937  0.00  0.00    +0.000 C 
ATOM     24  C   UNL     1       4.478   4.730  19.043  0.00  0.00    +0.000 A 
ATOM     25  C   UNL     1       5.829   5.191  19.456  0.00  0.00    +0.000 C 
ENDBRANCH  17  18
ENDBRANCH   3  17
TORSDOF 3
ENDMDL
MODEL 7
REMARK VINA RESULT:      -7.5      2.061      8.089
REMARK  Name = 
REMARK  7 active torsions:
REMARK  status: ('A' for Active; 'I' for Inactive)
REMARK    1  A    between atoms: C_1  and  C_2
REMARK    2  A    between atoms: C_4  and  C_5
REMARK    3  A    between atoms: N_7  and  C_8
REMARK    4  A    between atoms: C_8  and  C_9
REMARK    5  A    between atoms: C_10  and  C_11
REMARK    6  A    between atoms: N_13  and  C_14
REMARK    7  A    between atoms: C_15  and  C_16
REMARK                            x       y       z     vdW  Elec       q    Type
REMARK                         _______ _______ _______ _____ _____    ______ ____
ROOT
ATOM      1  C   UNL     1       2.136   8.746  18.220  0.00  0.00    +0.000 C 
ATOM      2  O   UNL     1       2.204   9.207  17.093  0.00  0.00    +0.000 OA
ATOM      3  N   UNL     1       2.806   7.594  18.620  0.00  0.00    +0.000 N 
ATOM      4  H   UNL     1       2.536   7.197  19.512  0.00  0.00    +0.000 HD
ENDROOT
BRANCH   1   8
ATOM      5  C   UNL     1      -0.267   8.845  22.637  0.00  0.00    +0.000 C 
ATOM      6  C   UNL     1       0.198   9.453  21.345  0.00  0.00    +0.000 A 
ATOM      7  C   UNL     1       0.968   8.757  20.444  0.00  0.00    +0.000 A 
ATOM      8  C   UNL     1       1.283   9.425  19.275  0.00  0.00    +0.000 A 
ATOM      9  N   UNL     1       0.850  10.676  18.994  0.00  0.00    +0.000 NA
ATOM     10  C   UNL     1       0.100  11.284  19.928  0.00  0.00    +0.000 A 
ATOM     11  N   UNL     1      -0.384  12.528  19.682  0.00  0.00    +0.000 N 
ATOM     12  C   UNL     1      -0.235  13.206  18.414  0.00  0.00    +0.000 C 
ATOM     13  C   UNL     1      -0.121  14.662  18.829  0.00  0.00    +0.000 C 
ATOM     14  C   UNL     1      -1.041  14.761  20.039  0.00  0.00    +0.000 C 
ATOM     15  C   UNL     1      -0.943  13.386  20.713  0.00  0.00    +0.000 C 
ATOM     16  N   UNL     1      -0.215  10.714  21.105  0.00  0.00    +0.000 NA
ENDBRANCH   1   8
BRANCH   3  17
ATOM     17  C   UNL     1       3.644   6.810  17.720  0.00  0.00    +0.000 C 
BRANCH  17  18
ATOM     18  C   UNL     1       3.899   5.431  18.271  0.00  0.00    +0.000 A 
ATOM     19  C   UNL     1       5.053   4.902  18.943  0.00  0.00    +0.000 A 
ATOM     20  C   UNL     1       6.368   5.499  19.293  0.00  0.00    +0.000 C 
ATOM     21  N   UNL     1       4.869   3.636  19.329  0.00  0.00    +0.000 NA
ATOM     22  N   UNL     1       3.628   3.338  18.940  0.00  0.00    +0.000 N 
ATOM     23  C   UNL     1       3.131   2.006  19.202  0.00  0.00    +0.000 C 
ATOM     24  C   UNL     1       2.987   4.378  18.325  0.00  0.00    +0.000 A 
ATOM     25  C   UNL     1       1.577   4.304  17.858  0.00  0.00    +0.000 C 
ENDBRANCH  17  18
ENDBRANCH   3  17
TORSDOF 3
ENDMDL
MODEL 8
REMARK VINA RESULT:      -7.5      1.168      3.129
REMARK  Name = 
REMARK  7 active torsions:
REMARK  status: ('A' for Active; 'I' for Inactive)
REMARK    1  A    between atoms: C_1  and  C_2
REMARK    2  A    between atoms: C_4  and  C_5
REMARK    3  A    between atoms: N_7  and  C_8
REMARK    4  A    between atoms: C_8  and  C_9
REMARK    5  A    between atoms: C_10  and  C_11
REMARK    6  A    between atoms: N_13  and  C_14
REMARK    7  A    between atoms: C_15  and  C_16
REMARK                            x       y       z     vdW  Elec       q    Type
REMARK                         _______ _______ _______ _____ _____    ______ ____
ROOT
ATOM      1  C   UNL     1       2.032   8.987  18.107  0.00  0.00    +0.000 C 
ATOM      2  O   UNL     1       2.349   9.905  17.369  0.00  0.00    +0.000 OA
ATOM      3  N   UNL     1       0.965   9.051  18.997  0.00  0.00    +0.000 N 
ATOM      4  H   UNL     1       0.905   8.312  19.688  0.00  0.00    +0.000 HD
ENDROOT
BRANCH   1   8
ATOM      5  C   UNL     1       5.791   6.055  16.505  0.00  0.00    +0.000 C 
ATOM      6  C   UNL     1       4.588   6.357  17.353  0.00  0.00    +0.000 A 
ATOM      7  C   UNL     1       3.937   7.566  17.293  0.00  0.00    +0.000 A 
ATOM      8  C   UNL     1       2.817   7.688  18.094  0.00  0.00    +0.000 A 
ATOM      9  N   UNL     1       2.349   6.687  18.875  0.00  0.00    +0.000 NA
ATOM     10  C   UNL     1       3.044   5.537  18.873  0.00  0.00    +0.000 A 
ATOM     11  N   UNL     1       2.599   4.493  19.617  0.00  0.00    +0.000 N 
ATOM     12  C   UNL     1       1.345   4.502  20.335  0.00  0.00    +0.000 C 
ATOM     13  C   UNL     1       1.658   3.654  21.556  0.00  0.00    +0.000 C 
ATOM     14  C   UNL     1       2.625   2.604  21.023  0.00  0.00    +0.000 C 
ATOM     15  C   UNL     1       3.411   3.327  19.921  0.00  0.00    +0.000 C 
ATOM     16  N   UNL     1       4.164   5.357  18.150  0.00  0.00    +0.000 NA
ENDBRANCH   1   8
BRANCH   3  17
ATOM     17  C   UNL     1       0.130  10.237  19.151  0.00  0.00    +0.000 C 
BRANCH  17  18
ATOM     18  C   UNL     1      -0.190  10.496  20.601  0.00  0.00    +0.000 A 
ATOM     19  C   UNL     1       0.370   9.915  21.789  0.00  0.00    +0.000 A 
ATOM     20  C   UNL     1       1.405   8.871  22.000  0.00  0.00    +0.000 C 
ATOM     21  N   UNL     1      -0.149  10.453  22.898  0.00  0.00    +0.000 NA
ATOM     22  N   UNL     1      -1.014  11.370  22.461  0.00  0.00    +0.000 N 
ATOM     23  C   UNL     1      -1.763  12.124  23.440  0.00  0.00    +0.000 C 
ATOM     24  C   UNL     1      -1.064  11.462  21.097  0.00  0.00    +0.000 A 
ATOM     25  C   UNL     1      -1.910  12.451  20.378  0.00  0.00    +0.000 C 
ENDBRANCH  17  18
ENDBRANCH   3  17
TORSDOF 3
ENDMDL
MODEL 9
REMARK VINA RESULT:      -7.5      2.090      3.205
REMARK  Name = 
REMARK  7 active torsions:
REMARK  status: ('A' for Active; 'I' for Inactive)
REMARK    1  A    between atoms: C_1  and  C_2
REMARK    2  A    between atoms: C_4  and  C_5
REMARK    3  A    between atoms: N_7  and  C_8
REMARK    4  A    between atoms: C_8  and  C_9
REMARK    5  A    between atoms: C_10  and  C_11
REMARK    6  A    between atoms: N_13  and  C_14
REMARK    7  A    between atoms: C_15  and  C_16
REMARK                            x       y       z     vdW  Elec       q    Type
REMARK                         _______ _______ _______ _____ _____    ______ ____
ROOT
ATOM      1  C   UNL     1       1.817   5.561  20.416  0.00  0.00    +0.000 C 
ATOM      2  O   UNL     1       0.728   5.049  20.613  0.00  0.00    +0.000 OA
ATOM      3  N   UNL     1       2.087   6.905  20.653  0.00  0.00    +0.000 N 
ATOM      4  H   UNL     1       2.959   7.266  20.283  0.00  0.00    +0.000 HD
ENDROOT
BRANCH   1   8
ATOM      5  C   UNL     1       4.876   1.570  20.519  0.00  0.00    +0.000 C 
ATOM      6  C   UNL     1       4.357   2.853  19.934  0.00  0.00    +0.000 A 
ATOM      7  C   UNL     1       3.307   3.541  20.495  0.00  0.00    +0.000 A 
ATOM      8  C   UNL     1       2.968   4.731  19.879  0.00  0.00    +0.000 A 
ATOM      9  N   UNL     1       3.627   5.228  18.807  0.00  0.00    +0.000 NA
ATOM     10  C   UNL     1       4.643   4.493  18.323  0.00  0.00    +0.000 A 
ATOM     11  N   UNL     1       5.356   4.962  17.268  0.00  0.00    +0.000 N 
ATOM     12  C   UNL     1       5.161   6.273  16.693  0.00  0.00    +0.000 C 
ATOM     13  C   UNL     1       5.460   6.037  15.222  0.00  0.00    +0.000 C 
ATOM     14  C   UNL     1       6.565   4.990  15.247  0.00  0.00    +0.000 C 
ATOM     15  C   UNL     1       6.262   4.137  16.487  0.00  0.00    +0.000 C 
ATOM     16  N   UNL     1       5.007   3.308  18.845  0.00  0.00    +0.000 NA
ENDBRANCH   1   8
BRANCH   3  17
ATOM     17  C   UNL     1       1.082   7.842  21.143  0.00  0.00    +0.000 C 
BRANCH  17  18
ATOM     18  C   UNL     1       1.040   9.090  20.298  0.00  0.00    +0.000 A 
ATOM     19  C   UNL     1       1.424   9.292  18.928  0.00  0.00    +0.000 A 
ATOM     20  C   UNL     1       2.003   8.383  17.907  0.00  0.00    +0.000 C 
ATOM     21  N   UNL     1       1.183  10.544  18.524  0.00  0.00    +0.000 NA
ATOM     22  N   UNL     1       0.645  11.148  19.585  0.00  0.00    +0.000 N 
ATOM     23  C   UNL     1       0.286  12.543  19.467  0.00  0.00    +0.000 C 
ATOM     24  C   UNL     1       0.509  10.324  20.668  0.00  0.00    +0.000 A 
ATOM     25  C   UNL     1      -0.119  10.755  21.945  0.00  0.00    +0.000 C 
ENDBRANCH  17  18
ENDBRANCH   3  17
TORSDOF 3
ENDMDL
