MODEL 1
REMARK VINA RESULT:      -8.6      0.000      0.000
REMARK  Name = 
REMARK  5 active torsions:
REMARK  status: ('A' for Active; 'I' for Inactive)
REMARK    1  A    between atoms: C_7  and  C_8
REMARK    2  A    between atoms: C_13  and  O_14
REMARK    3  A    between atoms: O_14  and  C_15
REMARK    4  A    between atoms: C_15  and  C_16
REMARK    5  A    between atoms: N_18  and  C_19
REMARK                            x       y       z     vdW  Elec       q    Type
REMARK                         _______ _______ _______ _____ _____    ______ ____
ROOT
ATOM      1  C   UNL     1       3.747   4.392  19.655  0.00  0.00    +0.000 A 
ATOM      2  C   UNL     1       3.472   3.020  19.815  0.00  0.00    +0.000 A 
ATOM      3  C   UNL     1       2.189   2.577  20.134  0.00  0.00    +0.000 A 
ATOM      4  C   UNL     1       1.162   3.496  20.303  0.00  0.00    +0.000 A 
ATOM      5  C   UNL     1       1.419   4.858  20.147  0.00  0.00    +0.000 A 
ATOM      6  C   UNL     1       2.701   5.328  19.819  0.00  0.00    +0.000 A 
ENDROOT
BRANCH   1  13
ATOM      7  N   UNL     1       6.370   3.744  14.565  0.00  0.00    +0.000 N 
ATOM      8  C   UNL     1       6.382   4.182  15.844  0.00  0.00    +0.000 C 
ATOM      9  N   UNL     1       7.432   4.358  16.568  0.00  0.00    +0.000 NA
ATOM     10  C   UNL     1       7.128   4.759  17.852  0.00  0.00    +0.000 C 
ATOM     11  O   UNL     1       7.942   5.018  18.725  0.00  0.00    +0.000 OA
ATOM     12  C   UNL     1       5.651   4.744  18.087  0.00  0.00    +0.000 C 
ATOM     13  C   UNL     1       5.139   4.730  19.324  0.00  0.00    +0.000 C 
ATOM     14  S   UNL     1       4.838   4.476  16.597  0.00  0.00    +0.000 S 
ATOM     15  H   UNL     1       7.196   3.217  14.302  0.00  0.00    +0.000 HD
ATOM     16  H   UNL     1       5.497   3.346  14.242  0.00  0.00    +0.000 HD
ENDBRANCH   1  13
BRANCH   6  17
ATOM     17  O   UNL     1       2.717   6.699  19.704  0.00  0.00    +0.000 OA
BRANCH  17  18
ATOM     18  C   UNL     1       2.654   7.276  18.414  0.00  0.00    +0.000 C 
BRANCH  18  19
ATOM     19  C   UNL     1       1.972   8.635  18.335  0.00  0.00    +0.000 C 
ATOM     20  O   UNL     1       2.116   9.321  17.326  0.00  0.00    +0.000 OA
ATOM     21  N   UNL     1       1.258   8.987  19.465  0.00  0.00    +0.000 N 
ATOM     22  H   UNL     1       1.393   8.390  20.276  0.00  0.00    +0.000 HD
BRANCH  21  23
ATOM     23  C   UNL     1       0.443  10.125  19.600  0.00  0.00    +0.000 A 
ATOM     24  C   UNL     1      -0.816  10.236  18.996  0.00  0.00    +0.000 A 
ATOM     25  C   UNL     1      -1.597  11.377  19.174  0.00  0.00    +0.000 A 
ATOM     26  C   UNL     1      -1.116  12.416  19.956  0.00  0.00    +0.000 A 
ATOM     27  F   UNL     1      -1.860  13.515  20.130  0.00  0.00    +0.000 F 
ATOM     28  C   UNL     1       0.131  12.328  20.566  0.00  0.00    +0.000 A 
ATOM     29  C   UNL     1       0.909  11.177  20.398  0.00  0.00    +0.000 A 
ENDBRANCH  21  23
ENDBRANCH  18  19
ENDBRANCH  17  18
ENDBRANCH   6  17
TORSDOF 5
ENDMDL
MODEL 2
REMARK VINA RESULT:      -8.6      1.973      2.296
REMARK  Name = 
REMARK  5 active torsions:
REMARK  status: ('A' for Active; 'I' for Inactive)
REMARK    1  A    between atoms: C_7  and  C_8
REMARK    2  A    between atoms: C_13  and  O_14
REMARK    3  A    between atoms: O_14  and  C_15
REMARK    4  A    between atoms: C_15  and  C_16
REMARK    5  A    between atoms: N_18  and  C_19
REMARK                            x       y       z     vdW  Elec       q    Type
REMARK                         _______ _______ _______ _____ _____    ______ ____
ROOT
ATOM      1  C   UNL     1       3.473   3.765  17.532  0.00  0.00    +0.000 A 
ATOM      2  C   UNL     1       3.506   2.399  17.871  0.00  0.00    +0.000 A 
ATOM      3  C   UNL     1       2.556   1.849  18.732  0.00  0.00    +0.000 A 
ATOM      4  C   UNL     1       1.562   2.656  19.271  0.00  0.00    +0.000 A 
ATOM      5  C   UNL     1       1.516   4.010  18.943  0.00  0.00    +0.000 A 
ATOM      6  C   UNL     1       2.457   4.586  18.074  0.00  0.00    +0.000 A 
ENDROOT
BRANCH   1  13
ATOM      7  N   UNL     1       8.170   6.807  18.906  0.00  0.00    +0.000 N 
ATOM      8  C   UNL     1       7.435   6.130  17.996  0.00  0.00    +0.000 C 
ATOM      9  N   UNL     1       7.473   6.305  16.720  0.00  0.00    +0.000 NA
ATOM     10  C   UNL     1       6.569   5.507  16.051  0.00  0.00    +0.000 C 
ATOM     11  O   UNL     1       6.425   5.462  14.838  0.00  0.00    +0.000 OA
ATOM     12  C   UNL     1       5.697   4.758  17.008  0.00  0.00    +0.000 C 
ATOM     13  C   UNL     1       4.531   4.223  16.621  0.00  0.00    +0.000 C 
ATOM     14  S   UNL     1       6.296   4.962  18.605  0.00  0.00    +0.000 S 
ATOM     15  H   UNL     1       8.500   7.710  18.581  0.00  0.00    +0.000 HD
ATOM     16  H   UNL     1       7.812   6.806  19.852  0.00  0.00    +0.000 HD
ENDBRANCH   1  13
BRANCH   6  17
ATOM     17  O   UNL     1       2.210   5.926  17.885  0.00  0.00    +0.000 OA
BRANCH  17  18
ATOM     18  C   UNL     1       2.862   6.863  18.719  0.00  0.00    +0.000 C 
BRANCH  18  19
ATOM     19  C   UNL     1       2.013   8.045  19.168  0.00  0.00    +0.000 C 
ATOM     20  O   UNL     1       1.690   8.138  20.350  0.00  0.00    +0.000 OA
ATOM     21  N   UNL     1       1.648   8.910  18.153  0.00  0.00    +0.000 N 
ATOM     22  H   UNL     1       1.841   8.588  17.209  0.00  0.00    +0.000 HD
BRANCH  21  23
ATOM     23  C   UNL     1       0.974  10.133  18.319  0.00  0.00    +0.000 A 
ATOM     24  C   UNL     1      -0.423  10.232  18.363  0.00  0.00    +0.000 A 
ATOM     25  C   UNL     1      -1.047  11.465  18.548  0.00  0.00    +0.000 A 
ATOM     26  C   UNL     1      -0.271  12.607  18.687  0.00  0.00    +0.000 A 
ATOM     27  F   UNL     1      -0.864  13.793  18.864  0.00  0.00    +0.000 F 
ATOM     28  C   UNL     1       1.117  12.532  18.648  0.00  0.00    +0.000 A 
ATOM     29  C   UNL     1       1.744  11.293  18.475  0.00  0.00    +0.000 A 
ENDBRANCH  21  23
ENDBRANCH  18  19
ENDBRANCH  17  18
ENDBRANCH   6  17
TORSDOF 5
ENDMDL
MODEL 3
REMARK VINA RESULT:      -8.6      1.537      1.749
REMARK  Name = 
REMARK  5 active torsions:
REMARK  status: ('A' for Active; 'I' for Inactive)
REMARK    1  A    between atoms: C_7  and  C_8
REMARK    2  A    between atoms: C_13  and  O_14
REMARK    3  A    between atoms: O_14  and  C_15
REMARK    4  A    between atoms: C_15  and  C_16
REMARK    5  A    between atoms: N_18  and  C_19
REMARK                            x       y       z     vdW  Elec       q    Type
REMARK                         _______ _______ _______ _____ _____    ______ ____
ROOT
ATOM      1  C   UNL     1       3.794   3.906  19.085  0.00  0.00    +0.000 A 
ATOM      2  C   UNL     1       3.463   2.580  18.744  0.00  0.00    +0.000 A 
ATOM      3  C   UNL     1       2.147   2.125  18.820  0.00  0.00    +0.000 A 
ATOM      4  C   UNL     1       1.141   2.985  19.242  0.00  0.00    +0.000 A 
ATOM      5  C   UNL     1       1.454   4.301  19.582  0.00  0.00    +0.000 A 
ATOM      6  C   UNL     1       2.770   4.784  19.506  0.00  0.00    +0.000 A 
ENDROOT
BRANCH   1  13
ATOM      7  N   UNL     1       6.815   4.608  14.228  0.00  0.00    +0.000 N 
ATOM      8  C   UNL     1       6.730   4.665  15.576  0.00  0.00    +0.000 C 
ATOM      9  N   UNL     1       7.721   4.580  16.395  0.00  0.00    +0.000 NA
ATOM     10  C   UNL     1       7.320   4.615  17.714  0.00  0.00    +0.000 C 
ATOM     11  O   UNL     1       8.065   4.578  18.682  0.00  0.00    +0.000 OA
ATOM     12  C   UNL     1       5.828   4.601  17.826  0.00  0.00    +0.000 C 
ATOM     13  C   UNL     1       5.215   4.260  18.967  0.00  0.00    +0.000 C 
ATOM     14  S   UNL     1       5.137   4.804  16.267  0.00  0.00    +0.000 S 
ATOM     15  H   UNL     1       7.648   4.141  13.886  0.00  0.00    +0.000 HD
ATOM     16  H   UNL     1       5.963   4.358  13.742  0.00  0.00    +0.000 HD
ENDBRANCH   1  13
BRANCH   6  17
ATOM     17  O   UNL     1       2.839   6.109  19.875  0.00  0.00    +0.000 OA
BRANCH  17  18
ATOM     18  C   UNL     1       2.618   7.101  18.893  0.00  0.00    +0.000 C 
BRANCH  18  19
ATOM     19  C   UNL     1       1.739   8.268  19.325  0.00  0.00    +0.000 C 
ATOM     20  O   UNL     1       1.150   8.925  18.470  0.00  0.00    +0.000 OA
ATOM     21  N   UNL     1       1.719   8.499  20.688  0.00  0.00    +0.000 N 
ATOM     22  H   UNL     1       2.404   7.984  21.233  0.00  0.00    +0.000 HD
BRANCH  21  23
ATOM     23  C   UNL     1       0.899   9.430  21.350  0.00  0.00    +0.000 A 
ATOM     24  C   UNL     1       0.847  10.785  20.999  0.00  0.00    +0.000 A 
ATOM     25  C   UNL     1       0.004  11.667  21.673  0.00  0.00    +0.000 A 
ATOM     26  C   UNL     1      -0.789  11.194  22.709  0.00  0.00    +0.000 A 
ATOM     27  F   UNL     1      -1.599  12.036  23.361  0.00  0.00    +0.000 F 
ATOM     28  C   UNL     1      -0.755   9.852  23.074  0.00  0.00    +0.000 A 
ATOM     29  C   UNL     1       0.082   8.964  22.389  0.00  0.00    +0.000 A 
ENDBRANCH  21  23
ENDBRANCH  18  19
ENDBRANCH  17  18
ENDBRANCH   6  17
TORSDOF 5
ENDMDL
MODEL 4
REMARK VINA RESULT:      -8.5      1.245      1.546
REMARK  Name = 
REMARK  5 active torsions:
REMARK  status: ('A' for Active; 'I' for Inactive)
REMARK    1  A    between atoms: C_7  and  C_8
REMARK    2  A    between atoms: C_13  and  O_14
REMARK    3  A    between atoms: O_14  and  C_15
REMARK    4  A    between atoms: C_15  and  C_16
REMARK    5  A    between atoms: N_18  and  C_19
REMARK                            x       y       z     vdW  Elec       q    Type
REMARK                         _______ _______ _______ _____ _____    ______ ____
ROOT
ATOM      1  C   UNL     1       3.838   3.794  19.183  0.00  0.00    +0.000 A 
ATOM      2  C   UNL     1       3.577   2.446  18.872  0.00  0.00    +0.000 A 
ATOM      3  C   UNL     1       2.291   1.918  18.982  0.00  0.00    +0.000 A 
ATOM      4  C   UNL     1       1.246   2.728  19.408  0.00  0.00    +0.000 A 
ATOM      5  C   UNL     1       1.489   4.066  19.719  0.00  0.00    +0.000 A 
ATOM      6  C   UNL     1       2.774   4.621  19.609  0.00  0.00    +0.000 A 
ENDROOT
BRANCH   1  13
ATOM      7  N   UNL     1       6.765   4.440  14.262  0.00  0.00    +0.000 N 
ATOM      8  C   UNL     1       6.690   4.556  15.606  0.00  0.00    +0.000 C 
ATOM      9  N   UNL     1       7.692   4.570  16.416  0.00  0.00    +0.000 NA
ATOM     10  C   UNL     1       7.302   4.643  17.737  0.00  0.00    +0.000 C 
ATOM     11  O   UNL     1       8.057   4.697  18.696  0.00  0.00    +0.000 OA
ATOM     12  C   UNL     1       5.815   4.547  17.868  0.00  0.00    +0.000 C 
ATOM     13  C   UNL     1       5.234   4.226  19.031  0.00  0.00    +0.000 C 
ATOM     14  S   UNL     1       5.098   4.634  16.309  0.00  0.00    +0.000 S 
ATOM     15  H   UNL     1       7.621   4.007  13.932  0.00  0.00    +0.000 HD
ATOM     16  H   UNL     1       5.925   4.117  13.798  0.00  0.00    +0.000 HD
ENDBRANCH   1  13
BRANCH   6  17
ATOM     17  O   UNL     1       2.775   5.954  19.952  0.00  0.00    +0.000 OA
BRANCH  17  18
ATOM     18  C   UNL     1       2.615   6.920  18.933  0.00  0.00    +0.000 C 
BRANCH  18  19
ATOM     19  C   UNL     1       1.871   8.185  19.339  0.00  0.00    +0.000 C 
ATOM     20  O   UNL     1       1.549   8.342  20.515  0.00  0.00    +0.000 OA
ATOM     21  N   UNL     1       1.591   9.048  18.296  0.00  0.00    +0.000 N 
ATOM     22  H   UNL     1       1.761   8.683  17.363  0.00  0.00    +0.000 HD
BRANCH  21  23
ATOM     23  C   UNL     1       1.027  10.330  18.420  0.00  0.00    +0.000 A 
ATOM     24  C   UNL     1       1.798  11.494  18.540  0.00  0.00    +0.000 A 
ATOM     25  C   UNL     1       1.194  12.746  18.641  0.00  0.00    +0.000 A 
ATOM     26  C   UNL     1      -0.191  12.836  18.627  0.00  0.00    +0.000 A 
ATOM     27  F   UNL     1      -0.777  14.035  18.725  0.00  0.00    +0.000 F 
ATOM     28  C   UNL     1      -0.976  11.695  18.507  0.00  0.00    +0.000 A 
ATOM     29  C   UNL     1      -0.370  10.440  18.393  0.00  0.00    +0.000 A 
ENDBRANCH  21  23
ENDBRANCH  18  19
ENDBRANCH  17  18
ENDBRANCH   6  17
TORSDOF 5
ENDMDL
MODEL 5
REMARK VINA RESULT:      -8.5      1.416      1.581
REMARK  Name = 
REMARK  5 active torsions:
REMARK  status: ('A' for Active; 'I' for Inactive)
REMARK    1  A    between atoms: C_7  and  C_8
REMARK    2  A    between atoms: C_13  and  O_14
REMARK    3  A    between atoms: O_14  and  C_15
REMARK    4  A    between atoms: C_15  and  C_16
REMARK    5  A    between atoms: N_18  and  C_19
REMARK                            x       y       z     vdW  Elec       q    Type
REMARK                         _______ _______ _______ _____ _____    ______ ____
ROOT
ATOM      1  C   UNL     1       3.904   4.215  19.264  0.00  0.00    +0.000 A 
ATOM      2  C   UNL     1       3.520   2.861  19.276  0.00  0.00    +0.000 A 
ATOM      3  C   UNL     1       2.191   2.492  19.481  0.00  0.00    +0.000 A 
ATOM      4  C   UNL     1       1.225   3.470  19.682  0.00  0.00    +0.000 A 
ATOM      5  C   UNL     1       1.590   4.815  19.672  0.00  0.00    +0.000 A 
ATOM      6  C   UNL     1       2.921   5.212  19.461  0.00  0.00    +0.000 A 
ENDROOT
BRANCH   1  13
ATOM      7  N   UNL     1       6.664   4.411  14.210  0.00  0.00    +0.000 N 
ATOM      8  C   UNL     1       6.664   4.560  15.554  0.00  0.00    +0.000 C 
ATOM      9  N   UNL     1       7.696   4.468  16.320  0.00  0.00    +0.000 NA
ATOM     10  C   UNL     1       7.377   4.613  17.654  0.00  0.00    +0.000 C 
ATOM     11  O   UNL     1       8.175   4.594  18.579  0.00  0.00    +0.000 OA
ATOM     12  C   UNL     1       5.897   4.700  17.850  0.00  0.00    +0.000 C 
ATOM     13  C   UNL     1       5.334   4.473  19.044  0.00  0.00    +0.000 C 
ATOM     14  S   UNL     1       5.126   4.843  16.321  0.00  0.00    +0.000 S 
ATOM     15  H   UNL     1       7.447   3.871  13.855  0.00  0.00    +0.000 HD
ATOM     16  H   UNL     1       5.772   4.183  13.790  0.00  0.00    +0.000 HD
ENDBRANCH   1  13
BRANCH   6  17
ATOM     17  O   UNL     1       3.044   6.582  19.479  0.00  0.00    +0.000 OA
BRANCH  17  18
ATOM     18  C   UNL     1       2.325   7.344  18.529  0.00  0.00    +0.000 C 
BRANCH  18  19
ATOM     19  C   UNL     1       1.540   8.522  19.090  0.00  0.00    +0.000 C 
ATOM     20  O   UNL     1       1.082   9.361  18.318  0.00  0.00    +0.000 OA
ATOM     21  N   UNL     1       1.446   8.546  20.469  0.00  0.00    +0.000 N 
ATOM     22  H   UNL     1       2.035   7.882  20.963  0.00  0.00    +0.000 HD
BRANCH  21  23
ATOM     23  C   UNL     1       0.679   9.451  21.224  0.00  0.00    +0.000 A 
ATOM     24  C   UNL     1      -0.069   9.066  22.344  0.00  0.00    +0.000 A 
ATOM     25  C   UNL     1      -0.799  10.003  23.073  0.00  0.00    +0.000 A 
ATOM     26  C   UNL     1      -0.787  11.333  22.678  0.00  0.00    +0.000 A 
ATOM     27  F   UNL     1      -1.488  12.238  23.373  0.00  0.00    +0.000 F 
ATOM     28  C   UNL     1      -0.052  11.739  21.570  0.00  0.00    +0.000 A 
ATOM     29  C   UNL     1       0.692  10.800  20.846  0.00  0.00    +0.000 A 
ENDBRANCH  21  23
ENDBRANCH  18  19
ENDBRANCH  17  18
ENDBRANCH   6  17
TORSDOF 5
ENDMDL
MODEL 6
REMARK VINA RESULT:      -8.5      2.180      2.729
REMARK  Name = 
REMARK  5 active torsions:
REMARK  status: ('A' for Active; 'I' for Inactive)
REMARK    1  A    between atoms: C_7  and  C_8
REMARK    2  A    between atoms: C_13  and  O_14
REMARK    3  A    between atoms: O_14  and  C_15
REMARK    4  A    between atoms: C_15  and  C_16
REMARK    5  A    between atoms: N_18  and  C_19
REMARK                            x       y       z     vdW  Elec       q    Type
REMARK                         _______ _______ _______ _____ _____    ______ ____
ROOT
ATOM      1  C   UNL     1       3.479   3.756  17.456  0.00  0.00    +0.000 A 
ATOM      2  C   UNL     1       3.530   2.379  17.747  0.00  0.00    +0.000 A 
ATOM      3  C   UNL     1       2.592   1.789  18.594  0.00  0.00    +0.000 A 
ATOM      4  C   UNL     1       1.592   2.564  19.166  0.00  0.00    +0.000 A 
ATOM      5  C   UNL     1       1.529   3.929  18.887  0.00  0.00    +0.000 A 
ATOM      6  C   UNL     1       2.458   4.545  18.032  0.00  0.00    +0.000 A 
ENDROOT
BRANCH   1  13
ATOM      7  N   UNL     1       8.157   6.792  18.909  0.00  0.00    +0.000 N 
ATOM      8  C   UNL     1       7.422   6.141  17.979  0.00  0.00    +0.000 C 
ATOM      9  N   UNL     1       7.449   6.363  16.711  0.00  0.00    +0.000 NA
ATOM     10  C   UNL     1       6.548   5.581  16.019  0.00  0.00    +0.000 C 
ATOM     11  O   UNL     1       6.396   5.580  14.806  0.00  0.00    +0.000 OA
ATOM     12  C   UNL     1       5.690   4.789  16.953  0.00  0.00    +0.000 C 
ATOM     13  C   UNL     1       4.527   4.257  16.556  0.00  0.00    +0.000 C 
ATOM     14  S   UNL     1       6.298   4.940  18.553  0.00  0.00    +0.000 S 
ATOM     15  H   UNL     1       8.475   7.709  18.615  0.00  0.00    +0.000 HD
ATOM     16  H   UNL     1       7.805   6.752  19.857  0.00  0.00    +0.000 HD
ENDBRANCH   1  13
BRANCH   6  17
ATOM     17  O   UNL     1       2.195   5.889  17.892  0.00  0.00    +0.000 OA
BRANCH  17  18
ATOM     18  C   UNL     1       2.843   6.803  18.753  0.00  0.00    +0.000 C 
BRANCH  18  19
ATOM     19  C   UNL     1       1.990   7.352  19.890  0.00  0.00    +0.000 C 
ATOM     20  O   UNL     1       1.751   6.636  20.861  0.00  0.00    +0.000 OA
ATOM     21  N   UNL     1       1.525   8.638  19.691  0.00  0.00    +0.000 N 
ATOM     22  H   UNL     1       1.659   9.016  18.758  0.00  0.00    +0.000 HD
BRANCH  21  23
ATOM     23  C   UNL     1       0.825   9.412  20.634  0.00  0.00    +0.000 A 
ATOM     24  C   UNL     1       0.680  10.801  20.521  0.00  0.00    +0.000 A 
ATOM     25  C   UNL     1      -0.040  11.524  21.470  0.00  0.00    +0.000 A 
ATOM     26  C   UNL     1      -0.615  10.857  22.542  0.00  0.00    +0.000 A 
ATOM     27  F   UNL     1      -1.306  11.546  23.458  0.00  0.00    +0.000 F 
ATOM     28  C   UNL     1      -0.486   9.479  22.674  0.00  0.00    +0.000 A 
ATOM     29  C   UNL     1       0.226   8.751  21.714  0.00  0.00    +0.000 A 
ENDBRANCH  21  23
ENDBRANCH  18  19
ENDBRANCH  17  18
ENDBRANCH   6  17
TORSDOF 5
ENDMDL
MODEL 7
REMARK VINA RESULT:      -8.5      2.070      2.436
REMARK  Name = 
REMARK  5 active torsions:
REMARK  status: ('A' for Active; 'I' for Inactive)
REMARK    1  A    between atoms: C_7  and  C_8
REMARK    2  A    between atoms: C_13  and  O_14
REMARK    3  A    between atoms: O_14  and  C_15
REMARK    4  A    between atoms: C_15  and  C_16
REMARK    5  A    between atoms: N_18  and  C_19
REMARK                            x       y       z     vdW  Elec       q    Type
REMARK                         _______ _______ _______ _____ _____    ______ ____
ROOT
ATOM      1  C   UNL     1       2.873   4.588  18.248  0.00  0.00    +0.000 A 
ATOM      2  C   UNL     1       2.412   3.258  18.220  0.00  0.00    +0.000 A 
ATOM      3  C   UNL     1       1.515   2.788  19.179  0.00  0.00    +0.000 A 
ATOM      4  C   UNL     1       1.068   3.637  20.183  0.00  0.00    +0.000 A 
ATOM      5  C   UNL     1       1.516   4.957  20.223  0.00  0.00    +0.000 A 
ATOM      6  C   UNL     1       2.413   5.456  19.265  0.00  0.00    +0.000 A 
ENDROOT
BRANCH   1  13
ATOM      7  N   UNL     1       8.187   6.717  18.912  0.00  0.00    +0.000 N 
ATOM      8  C   UNL     1       7.200   6.251  18.113  0.00  0.00    +0.000 C 
ATOM      9  N   UNL     1       7.045   6.537  16.867  0.00  0.00    +0.000 NA
ATOM     10  C   UNL     1       5.916   5.957  16.329  0.00  0.00    +0.000 C 
ATOM     11  O   UNL     1       5.558   6.050  15.164  0.00  0.00    +0.000 OA
ATOM     12  C   UNL     1       5.109   5.267  17.382  0.00  0.00    +0.000 C 
ATOM     13  C   UNL     1       3.820   4.959  17.187  0.00  0.00    +0.000 C 
ATOM     14  S   UNL     1       6.002   5.223  18.849  0.00  0.00    +0.000 S 
ATOM     15  H   UNL     1       8.604   7.583  18.589  0.00  0.00    +0.000 HD
ATOM     16  H   UNL     1       8.004   6.682  19.906  0.00  0.00    +0.000 HD
ENDBRANCH   1  13
BRANCH   6  17
ATOM     17  O   UNL     1       2.704   6.781  19.493  0.00  0.00    +0.000 OA
BRANCH  17  18
ATOM     18  C   UNL     1       2.264   7.746  18.559  0.00  0.00    +0.000 C 
BRANCH  18  19
ATOM     19  C   UNL     1       1.443   8.891  19.135  0.00  0.00    +0.000 C 
ATOM     20  O   UNL     1       0.938   9.712  18.372  0.00  0.00    +0.000 OA
ATOM     21  N   UNL     1       1.371   8.911  20.515  0.00  0.00    +0.000 N 
ATOM     22  H   UNL     1       1.996   8.271  20.998  0.00  0.00    +0.000 HD
BRANCH  21  23
ATOM     23  C   UNL     1       0.582   9.784  21.284  0.00  0.00    +0.000 A 
ATOM     24  C   UNL     1      -0.195   9.354  22.367  0.00  0.00    +0.000 A 
ATOM     25  C   UNL     1      -0.948  10.260  23.113  0.00  0.00    +0.000 A 
ATOM     26  C   UNL     1      -0.927  11.605  22.772  0.00  0.00    +0.000 A 
ATOM     27  F   UNL     1      -1.648  12.480  23.483  0.00  0.00    +0.000 F 
ATOM     28  C   UNL     1      -0.162  12.055  21.702  0.00  0.00    +0.000 A 
ATOM     29  C   UNL     1       0.603  11.148  20.962  0.00  0.00    +0.000 A 
ENDBRANCH  21  23
ENDBRANCH  18  19
ENDBRANCH  17  18
ENDBRANCH   6  17
TORSDOF 5
ENDMDL
MODEL 8
REMARK VINA RESULT:      -8.4      2.118      2.620
REMARK  Name = 
REMARK  5 active torsions:
REMARK  status: ('A' for Active; 'I' for Inactive)
REMARK    1  A    between atoms: C_7  and  C_8
REMARK    2  A    between atoms: C_13  and  O_14
REMARK    3  A    between atoms: O_14  and  C_15
REMARK    4  A    between atoms: C_15  and  C_16
REMARK    5  A    between atoms: N_18  and  C_19
REMARK                            x       y       z     vdW  Elec       q    Type
REMARK                         _______ _______ _______ _____ _____    ______ ____
ROOT
ATOM      1  C   UNL     1       2.709   4.974  18.596  0.00  0.00    +0.000 A 
ATOM      2  C   UNL     1       2.454   3.592  18.520  0.00  0.00    +0.000 A 
ATOM      3  C   UNL     1       1.676   2.951  19.484  0.00  0.00    +0.000 A 
ATOM      4  C   UNL     1       1.146   3.679  20.541  0.00  0.00    +0.000 A 
ATOM      5  C   UNL     1       1.389   5.050  20.628  0.00  0.00    +0.000 A 
ATOM      6  C   UNL     1       2.162   5.719  19.666  0.00  0.00    +0.000 A 
ENDROOT
BRANCH   1  13
ATOM      7  N   UNL     1       8.229   6.585  18.968  0.00  0.00    +0.000 N 
ATOM      8  C   UNL     1       7.114   6.376  18.232  0.00  0.00    +0.000 C 
ATOM      9  N   UNL     1       6.832   6.954  17.116  0.00  0.00    +0.000 NA
ATOM     10  C   UNL     1       5.599   6.580  16.625  0.00  0.00    +0.000 C 
ATOM     11  O   UNL     1       5.109   6.963  15.572  0.00  0.00    +0.000 OA
ATOM     12  C   UNL     1       4.870   5.709  17.599  0.00  0.00    +0.000 C 
ATOM     13  C   UNL     1       3.545   5.529  17.522  0.00  0.00    +0.000 C 
ATOM     14  S   UNL     1       5.931   5.273  18.879  0.00  0.00    +0.000 S 
ATOM     15  H   UNL     1       8.677   7.478  18.793  0.00  0.00    +0.000 HD
ATOM     16  H   UNL     1       8.167   6.330  19.945  0.00  0.00    +0.000 HD
ENDBRANCH   1  13
BRANCH   6  17
ATOM     17  O   UNL     1       2.258   7.063  19.946  0.00  0.00    +0.000 OA
BRANCH  17  18
ATOM     18  C   UNL     1       1.497   7.592  21.013  0.00  0.00    +0.000 C 
BRANCH  18  19
ATOM     19  C   UNL     1       1.183   9.080  20.921  0.00  0.00    +0.000 C 
ATOM     20  O   UNL     1       1.326   9.787  21.916  0.00  0.00    +0.000 OA
ATOM     21  N   UNL     1       0.719   9.495  19.687  0.00  0.00    +0.000 N 
ATOM     22  H   UNL     1       0.483   8.754  19.032  0.00  0.00    +0.000 HD
BRANCH  21  23
ATOM     23  C   UNL     1       0.475  10.826  19.307  0.00  0.00    +0.000 A 
ATOM     24  C   UNL     1       1.493  11.704  18.913  0.00  0.00    +0.000 A 
ATOM     25  C   UNL     1       1.201  13.011  18.526  0.00  0.00    +0.000 A 
ATOM     26  C   UNL     1      -0.116  13.446  18.536  0.00  0.00    +0.000 A 
ATOM     27  F   UNL     1      -0.403  14.700  18.167  0.00  0.00    +0.000 F 
ATOM     28  C   UNL     1      -1.143  12.592  18.922  0.00  0.00    +0.000 A 
ATOM     29  C   UNL     1      -0.852  11.276  19.298  0.00  0.00    +0.000 A 
ENDBRANCH  21  23
ENDBRANCH  18  19
ENDBRANCH  17  18
ENDBRANCH   6  17
TORSDOF 5
ENDMDL
MODEL 9
REMARK VINA RESULT:      -8.3      1.230      1.591
REMARK  Name = 
REMARK  5 active torsions:
REMARK  status: ('A' for Active; 'I' for Inactive)
REMARK    1  A    between atoms: C_7  and  C_8
REMARK    2  A    between atoms: C_13  and  O_14
REMARK    3  A    between atoms: O_14  and  C_15
REMARK    4  A    between atoms: C_15  and  C_16
REMARK    5  A    between atoms: N_18  and  C_19
REMARK                            x       y       z     vdW  Elec       q    Type
REMARK                         _______ _______ _______ _____ _____    ______ ____
ROOT
ATOM      1  C   UNL     1       3.722   3.720  18.700  0.00  0.00    +0.000 A 
ATOM      2  C   UNL     1       3.488   2.347  18.905  0.00  0.00    +0.000 A 
ATOM      3  C   UNL     1       2.190   1.838  18.956  0.00  0.00    +0.000 A 
ATOM      4  C   UNL     1       1.106   2.694  18.808  0.00  0.00    +0.000 A 
ATOM      5  C   UNL     1       1.322   4.056  18.603  0.00  0.00    +0.000 A 
ATOM      6  C   UNL     1       2.619   4.591  18.541  0.00  0.00    +0.000 A 
ENDROOT
BRANCH   1  13
ATOM      7  N   UNL     1       6.971   4.681  14.040  0.00  0.00    +0.000 N 
ATOM      8  C   UNL     1       6.812   4.694  15.382  0.00  0.00    +0.000 C 
ATOM      9  N   UNL     1       7.759   4.622  16.251  0.00  0.00    +0.000 NA
ATOM     10  C   UNL     1       7.286   4.602  17.547  0.00  0.00    +0.000 C 
ATOM     11  O   UNL     1       7.979   4.564  18.553  0.00  0.00    +0.000 OA
ATOM     12  C   UNL     1       5.793   4.529  17.576  0.00  0.00    +0.000 C 
ATOM     13  C   UNL     1       5.132   4.131  18.671  0.00  0.00    +0.000 C 
ATOM     14  S   UNL     1       5.179   4.753  15.987  0.00  0.00    +0.000 S 
ATOM     15  H   UNL     1       7.839   4.256  13.731  0.00  0.00    +0.000 HD
ATOM     16  H   UNL     1       6.158   4.415  13.500  0.00  0.00    +0.000 HD
ENDBRANCH   1  13
BRANCH   6  17
ATOM     17  O   UNL     1       2.591   5.949  18.319  0.00  0.00    +0.000 OA
BRANCH  17  18
ATOM     18  C   UNL     1       2.946   6.819  19.375  0.00  0.00    +0.000 C 
BRANCH  18  19
ATOM     19  C   UNL     1       1.848   7.765  19.843  0.00  0.00    +0.000 C 
ATOM     20  O   UNL     1       1.267   7.533  20.902  0.00  0.00    +0.000 OA
ATOM     21  N   UNL     1       1.583   8.811  18.980  0.00  0.00    +0.000 N 
ATOM     22  H   UNL     1       2.022   8.751  18.066  0.00  0.00    +0.000 HD
BRANCH  21  23
ATOM     23  C   UNL     1       0.708   9.883  19.233  0.00  0.00    +0.000 A 
ATOM     24  C   UNL     1       0.901  10.791  20.282  0.00  0.00    +0.000 A 
ATOM     25  C   UNL     1       0.017  11.851  20.482  0.00  0.00    +0.000 A 
ATOM     26  C   UNL     1      -1.070  12.001  19.633  0.00  0.00    +0.000 A 
ATOM     27  F   UNL     1      -1.923  13.014  19.820  0.00  0.00    +0.000 F 
ATOM     28  C   UNL     1      -1.280  11.112  18.584  0.00  0.00    +0.000 A 
ATOM     29  C   UNL     1      -0.386  10.056  18.375  0.00  0.00    +0.000 A 
ENDBRANCH  21  23
ENDBRANCH  18  19
ENDBRANCH  17  18
ENDBRANCH   6  17
TORSDOF 5
ENDMDL
