MODEL 1
REMARK VINA RESULT:      -6.9      0.000      0.000
REMARK  Name = 
REMARK  6 active torsions:
REMARK  status: ('A' for Active; 'I' for Inactive)
REMARK    1  A    between atoms: C_2  and  C_3
REMARK    2  A    between atoms: C_3  and  C_4
REMARK    3  A    between atoms: C_3  and  N_11
REMARK    4  A    between atoms: C_4  and  C_5
REMARK    5  A    between atoms: N_11  and  S_12
REMARK    6  A    between atoms: S_12  and  C_15
REMARK                            x       y       z     vdW  Elec       q    Type
REMARK                         _______ _______ _______ _____ _____    ______ ____
ROOT
ATOM      1  C   UNL     1       2.683   7.340  18.634  0.00  0.00    +0.000 C 
ENDROOT
BRANCH   1   3
ATOM      2  O   UNL     1       1.927   9.321  17.508  0.00  0.00    +0.000 OA
ATOM      3  C   UNL     1       1.950   8.689  18.569  0.00  0.00    +0.000 C 
ATOM      4  N   UNL     1       1.314   9.199  19.697  0.00  0.00    +0.000 N 
ATOM      5  C   UNL     1       0.500  10.412  19.546  0.00  0.00    +0.000 C 
ATOM      6  C   UNL     1       0.650  11.334  20.760  0.00  0.00    +0.000 C 
ATOM      7  O   UNL     1       0.378  10.642  21.988  0.00  0.00    +0.000 OA
ATOM      8  C   UNL     1       1.254   9.517  22.143  0.00  0.00    +0.000 C 
ATOM      9  C   UNL     1       1.079   8.526  20.987  0.00  0.00    +0.000 C 
ENDBRANCH   1   3
BRANCH   1  10
ATOM     10  N   UNL     1       1.811   6.145  18.675  0.00  0.00    +0.000 NA
ATOM     11  H   UNL     1       1.728   5.612  17.812  0.00  0.00    +0.000 HD
BRANCH  10  12
ATOM     12  S   UNL     1       1.963   5.090  19.971  0.00  0.00    +0.000 S 
ATOM     13  O   UNL     1       2.959   5.675  20.848  0.00  0.00    +0.000 OA
ATOM     14  O   UNL     1       0.633   4.820  20.465  0.00  0.00    +0.000 OA
BRANCH  12  15
ATOM     15  C   UNL     1       2.640   3.606  19.310  0.00  0.00    +0.000 A 
ATOM     16  C   UNL     1       3.755   3.012  19.908  0.00  0.00    +0.000 A 
ATOM     17  C   UNL     1       4.370   1.925  19.285  0.00  0.00    +0.000 A 
ATOM     18  C   UNL     1       3.882   1.442  18.070  0.00  0.00    +0.000 A 
ATOM     19  C   UNL     1       2.749   2.020  17.495  0.00  0.00    +0.000 A 
ATOM     20  C   UNL     1       2.129   3.099  18.122  0.00  0.00    +0.000 A 
ATOM     21  F   UNL     1       1.048   3.639  17.545  0.00  0.00    +0.000 F 
ENDBRANCH  12  15
ENDBRANCH  10  12
ENDBRANCH   1  10
BRANCH   1  22
ATOM     22  C   UNL     1       3.732   7.230  17.506  0.00  0.00    +0.000 C 
BRANCH  22  23
ATOM     23  C   UNL     1       4.706   6.071  17.443  0.00  0.00    +0.000 A 
ATOM     24  C   UNL     1       4.695   5.204  16.338  0.00  0.00    +0.000 A 
ATOM     25  C   UNL     1       5.722   4.279  16.140  0.00  0.00    +0.000 A 
ATOM     26  C   UNL     1       6.754   4.172  17.068  0.00  0.00    +0.000 A 
ATOM     27  C   UNL     1       6.734   4.966  18.214  0.00  0.00    +0.000 A 
ATOM     28  C   UNL     1       5.720   5.915  18.399  0.00  0.00    +0.000 A 
ENDBRANCH  22  23
ENDBRANCH   1  22
TORSDOF 6
ENDMDL
MODEL 2
REMARK VINA RESULT:      -6.8      0.959      1.115
REMARK  Name = 
REMARK  6 active torsions:
REMARK  status: ('A' for Active; 'I' for Inactive)
REMARK    1  A    between atoms: C_2  and  C_3
REMARK    2  A    between atoms: C_3  and  C_4
REMARK    3  A    between atoms: C_3  and  N_11
REMARK    4  A    between atoms: C_4  and  C_5
REMARK    5  A    between atoms: N_11  and  S_12
REMARK    6  A    between atoms: S_12  and  C_15
REMARK                            x       y       z     vdW  Elec       q    Type
REMARK                         _______ _______ _______ _____ _____    ______ ____
ROOT
ATOM      1  C   UNL     1       2.678   6.876  18.708  0.00  0.00    +0.000 C 
ENDROOT
BRANCH   1   3
ATOM      2  O   UNL     1       2.177   8.877  17.479  0.00  0.00    +0.000 OA
ATOM      3  C   UNL     1       2.094   8.290  18.563  0.00  0.00    +0.000 C 
ATOM      4  N   UNL     1       1.473   8.908  19.645  0.00  0.00    +0.000 N 
ATOM      5  C   UNL     1       0.797  10.192  19.416  0.00  0.00    +0.000 C 
ATOM      6  C   UNL     1       0.997  11.142  20.601  0.00  0.00    +0.000 C 
ATOM      7  O   UNL     1       0.609  10.532  21.841  0.00  0.00    +0.000 OA
ATOM      8  C   UNL     1       1.356   9.330  22.073  0.00  0.00    +0.000 C 
ATOM      9  C   UNL     1       1.121   8.316  20.947  0.00  0.00    +0.000 C 
ENDBRANCH   1   3
BRANCH   1  10
ATOM     10  N   UNL     1       1.684   5.785  18.818  0.00  0.00    +0.000 NA
ATOM     11  H   UNL     1       1.493   5.256  17.969  0.00  0.00    +0.000 HD
BRANCH  10  12
ATOM     12  S   UNL     1       1.793   4.734  20.120  0.00  0.00    +0.000 S 
ATOM     13  O   UNL     1       2.656   5.384  21.088  0.00  0.00    +0.000 OA
ATOM     14  O   UNL     1       0.447   4.361  20.487  0.00  0.00    +0.000 OA
BRANCH  12  15
ATOM     15  C   UNL     1       2.638   3.311  19.523  0.00  0.00    +0.000 A 
ATOM     16  C   UNL     1       3.639   2.710  20.293  0.00  0.00    +0.000 A 
ATOM     17  C   UNL     1       4.402   1.679  19.743  0.00  0.00    +0.000 A 
ATOM     18  C   UNL     1       4.174   1.258  18.432  0.00  0.00    +0.000 A 
ATOM     19  C   UNL     1       3.152   1.840  17.680  0.00  0.00    +0.000 A 
ATOM     20  C   UNL     1       2.384   2.863  18.233  0.00  0.00    +0.000 A 
ATOM     21  F   UNL     1       1.415   3.409  17.488  0.00  0.00    +0.000 F 
ENDBRANCH  12  15
ENDBRANCH  10  12
ENDBRANCH   1  10
BRANCH   1  22
ATOM     22  C   UNL     1       3.704   6.589  17.589  0.00  0.00    +0.000 C 
BRANCH  22  23
ATOM     23  C   UNL     1       5.162   6.322  17.904  0.00  0.00    +0.000 A 
ATOM     24  C   UNL     1       6.167   7.027  17.223  0.00  0.00    +0.000 A 
ATOM     25  C   UNL     1       7.496   6.976  17.649  0.00  0.00    +0.000 A 
ATOM     26  C   UNL     1       7.850   6.182  18.736  0.00  0.00    +0.000 A 
ATOM     27  C   UNL     1       6.879   5.408  19.369  0.00  0.00    +0.000 A 
ATOM     28  C   UNL     1       5.541   5.481  18.961  0.00  0.00    +0.000 A 
ENDBRANCH  22  23
ENDBRANCH   1  22
TORSDOF 6
ENDMDL
MODEL 3
REMARK VINA RESULT:      -6.8      1.984      4.003
REMARK  Name = 
REMARK  6 active torsions:
REMARK  status: ('A' for Active; 'I' for Inactive)
REMARK    1  A    between atoms: C_2  and  C_3
REMARK    2  A    between atoms: C_3  and  C_4
REMARK    3  A    between atoms: C_3  and  N_11
REMARK    4  A    between atoms: C_4  and  C_5
REMARK    5  A    between atoms: N_11  and  S_12
REMARK    6  A    between atoms: S_12  and  C_15
REMARK                            x       y       z     vdW  Elec       q    Type
REMARK                         _______ _______ _______ _____ _____    ______ ____
ROOT
ATOM      1  C   UNL     1       1.902   6.918  20.055  0.00  0.00    +0.000 C 
ENDROOT
BRANCH   1   3
ATOM      2  O   UNL     1       1.516   8.299  21.981  0.00  0.00    +0.000 OA
ATOM      3  C   UNL     1       1.451   8.212  20.750  0.00  0.00    +0.000 C 
ATOM      4  N   UNL     1       0.973   9.284  20.001  0.00  0.00    +0.000 N 
ATOM      5  C   UNL     1       0.700  10.549  20.695  0.00  0.00    +0.000 C 
ATOM      6  C   UNL     1      -0.555  11.227  20.137  0.00  0.00    +0.000 C 
ATOM      7  O   UNL     1      -0.482  11.388  18.712  0.00  0.00    +0.000 OA
ATOM      8  C   UNL     1      -0.306  10.121  18.065  0.00  0.00    +0.000 C 
ATOM      9  C   UNL     1       0.985   9.441  18.536  0.00  0.00    +0.000 C 
ENDBRANCH   1   3
BRANCH   1  10
ATOM     10  N   UNL     1       3.293   6.919  19.551  0.00  0.00    +0.000 NA
ATOM     11  H   UNL     1       3.987   6.448  20.129  0.00  0.00    +0.000 HD
BRANCH  10  12
ATOM     12  S   UNL     1       3.558   6.541  17.939  0.00  0.00    +0.000 S 
ATOM     13  O   UNL     1       2.532   5.581  17.579  0.00  0.00    +0.000 OA
ATOM     14  O   UNL     1       3.669   7.787  17.217  0.00  0.00    +0.000 OA
BRANCH  12  15
ATOM     15  C   UNL     1       5.108   5.710  17.885  0.00  0.00    +0.000 A 
ATOM     16  C   UNL     1       5.860   5.543  19.053  0.00  0.00    +0.000 A 
ATOM     17  C   UNL     1       7.151   5.020  18.969  0.00  0.00    +0.000 A 
ATOM     18  C   UNL     1       7.691   4.675  17.728  0.00  0.00    +0.000 A 
ATOM     19  C   UNL     1       6.923   4.814  16.570  0.00  0.00    +0.000 A 
ATOM     20  C   UNL     1       5.631   5.327  16.656  0.00  0.00    +0.000 A 
ATOM     21  F   UNL     1       4.918   5.458  15.529  0.00  0.00    +0.000 F 
ENDBRANCH  12  15
ENDBRANCH  10  12
ENDBRANCH   1  10
BRANCH   1  22
ATOM     22  C   UNL     1       1.631   5.690  20.952  0.00  0.00    +0.000 C 
BRANCH  22  23
ATOM     23  C   UNL     1       1.762   4.278  20.418  0.00  0.00    +0.000 A 
ATOM     24  C   UNL     1       0.679   3.675  19.759  0.00  0.00    +0.000 A 
ATOM     25  C   UNL     1       0.842   2.478  19.057  0.00  0.00    +0.000 A 
ATOM     26  C   UNL     1       2.079   1.840  19.042  0.00  0.00    +0.000 A 
ATOM     27  C   UNL     1       3.141   2.382  19.764  0.00  0.00    +0.000 A 
ATOM     28  C   UNL     1       2.988   3.597  20.444  0.00  0.00    +0.000 A 
ENDBRANCH  22  23
ENDBRANCH   1  22
TORSDOF 6
ENDMDL
MODEL 4
REMARK VINA RESULT:      -6.7      3.526      6.327
REMARK  Name = 
REMARK  6 active torsions:
REMARK  status: ('A' for Active; 'I' for Inactive)
REMARK    1  A    between atoms: C_2  and  C_3
REMARK    2  A    between atoms: C_3  and  C_4
REMARK    3  A    between atoms: C_3  and  N_11
REMARK    4  A    between atoms: C_4  and  C_5
REMARK    5  A    between atoms: N_11  and  S_12
REMARK    6  A    between atoms: S_12  and  C_15
REMARK                            x       y       z     vdW  Elec       q    Type
REMARK                         _______ _______ _______ _____ _____    ______ ____
ROOT
ATOM      1  C   UNL     1       4.152   4.308  17.611  0.00  0.00    +0.000 C 
ENDROOT
BRANCH   1   3
ATOM      2  O   UNL     1       1.844   3.880  17.105  0.00  0.00    +0.000 OA
ATOM      3  C   UNL     1       2.750   3.771  17.938  0.00  0.00    +0.000 C 
ATOM      4  N   UNL     1       2.498   3.163  19.165  0.00  0.00    +0.000 N 
ATOM      5  C   UNL     1       1.189   2.531  19.370  0.00  0.00    +0.000 C 
ATOM      6  C   UNL     1       0.685   2.753  20.799  0.00  0.00    +0.000 C 
ATOM      7  O   UNL     1       1.653   2.337  21.774  0.00  0.00    +0.000 OA
ATOM      8  C   UNL     1       2.889   3.043  21.598  0.00  0.00    +0.000 C 
ATOM      9  C   UNL     1       3.471   2.783  20.204  0.00  0.00    +0.000 C 
ENDBRANCH   1   3
BRANCH   1  10
ATOM     10  N   UNL     1       4.466   4.429  16.170  0.00  0.00    +0.000 NA
ATOM     11  H   UNL     1       3.768   4.890  15.589  0.00  0.00    +0.000 HD
BRANCH  10  12
ATOM     12  S   UNL     1       5.997   4.952  15.727  0.00  0.00    +0.000 S 
ATOM     13  O   UNL     1       5.958   6.401  15.787  0.00  0.00    +0.000 OA
ATOM     14  O   UNL     1       6.950   4.220  16.528  0.00  0.00    +0.000 OA
BRANCH  12  15
ATOM     15  C   UNL     1       6.196   4.494  14.040  0.00  0.00    +0.000 A 
ATOM     16  C   UNL     1       5.253   3.671  13.417  0.00  0.00    +0.000 A 
ATOM     17  C   UNL     1       5.503   3.193  12.129  0.00  0.00    +0.000 A 
ATOM     18  C   UNL     1       6.690   3.527  11.474  0.00  0.00    +0.000 A 
ATOM     19  C   UNL     1       7.612   4.376  12.089  0.00  0.00    +0.000 A 
ATOM     20  C   UNL     1       7.357   4.860  13.371  0.00  0.00    +0.000 A 
ATOM     21  F   UNL     1       8.262   5.666  13.942  0.00  0.00    +0.000 F 
ENDBRANCH  12  15
ENDBRANCH  10  12
ENDBRANCH   1  10
BRANCH   1  22
ATOM     22  C   UNL     1       4.419   5.634  18.356  0.00  0.00    +0.000 C 
BRANCH  22  23
ATOM     23  C   UNL     1       3.327   6.669  18.544  0.00  0.00    +0.000 A 
ATOM     24  C   UNL     1       2.621   6.730  19.755  0.00  0.00    +0.000 A 
ATOM     25  C   UNL     1       1.781   7.809  20.045  0.00  0.00    +0.000 A 
ATOM     26  C   UNL     1       1.598   8.821  19.107  0.00  0.00    +0.000 A 
ATOM     27  C   UNL     1       2.225   8.731  17.865  0.00  0.00    +0.000 A 
ATOM     28  C   UNL     1       3.090   7.665  17.585  0.00  0.00    +0.000 A 
ENDBRANCH  22  23
ENDBRANCH   1  22
TORSDOF 6
ENDMDL
MODEL 5
REMARK VINA RESULT:      -6.7      3.394      6.349
REMARK  Name = 
REMARK  6 active torsions:
REMARK  status: ('A' for Active; 'I' for Inactive)
REMARK    1  A    between atoms: C_2  and  C_3
REMARK    2  A    between atoms: C_3  and  C_4
REMARK    3  A    between atoms: C_3  and  N_11
REMARK    4  A    between atoms: C_4  and  C_5
REMARK    5  A    between atoms: N_11  and  S_12
REMARK    6  A    between atoms: S_12  and  C_15
REMARK                            x       y       z     vdW  Elec       q    Type
REMARK                         _______ _______ _______ _____ _____    ______ ____
ROOT
ATOM      1  C   UNL     1       4.042   5.177  17.617  0.00  0.00    +0.000 C 
ENDROOT
BRANCH   1   3
ATOM      2  O   UNL     1       2.472   3.655  16.625  0.00  0.00    +0.000 OA
ATOM      3  C   UNL     1       2.990   4.059  17.671  0.00  0.00    +0.000 C 
ATOM      4  N   UNL     1       2.620   3.500  18.891  0.00  0.00    +0.000 N 
ATOM      5  C   UNL     1       1.728   2.333  18.878  0.00  0.00    +0.000 C 
ATOM      6  C   UNL     1       0.721   2.393  20.031  0.00  0.00    +0.000 C 
ATOM      7  O   UNL     1       1.374   2.569  21.297  0.00  0.00    +0.000 OA
ATOM      8  C   UNL     1       2.163   3.767  21.301  0.00  0.00    +0.000 C 
ATOM      9  C   UNL     1       3.240   3.714  20.211  0.00  0.00    +0.000 C 
ENDBRANCH   1   3
BRANCH   1  10
ATOM     10  N   UNL     1       5.251   4.875  16.818  0.00  0.00    +0.000 NA
ATOM     11  H   UNL     1       5.368   5.400  15.954  0.00  0.00    +0.000 HD
BRANCH  10  12
ATOM     12  S   UNL     1       6.725   4.765  17.611  0.00  0.00    +0.000 S 
ATOM     13  O   UNL     1       6.445   4.143  18.892  0.00  0.00    +0.000 OA
ATOM     14  O   UNL     1       7.660   4.151  16.698  0.00  0.00    +0.000 OA
BRANCH  12  15
ATOM     15  C   UNL     1       7.232   6.421  17.921  0.00  0.00    +0.000 A 
ATOM     16  C   UNL     1       6.769   7.464  17.113  0.00  0.00    +0.000 A 
ATOM     17  C   UNL     1       7.298   8.745  17.275  0.00  0.00    +0.000 A 
ATOM     18  C   UNL     1       8.288   8.980  18.231  0.00  0.00    +0.000 A 
ATOM     19  C   UNL     1       8.722   7.942  19.057  0.00  0.00    +0.000 A 
ATOM     20  C   UNL     1       8.186   6.665  18.901  0.00  0.00    +0.000 A 
ATOM     21  F   UNL     1       8.625   5.685  19.701  0.00  0.00    +0.000 F 
ENDBRANCH  12  15
ENDBRANCH  10  12
ENDBRANCH   1  10
BRANCH   1  22
ATOM     22  C   UNL     1       3.401   6.513  17.180  0.00  0.00    +0.000 C 
BRANCH  22  23
ATOM     23  C   UNL     1       2.744   7.440  18.184  0.00  0.00    +0.000 A 
ATOM     24  C   UNL     1       2.233   8.677  17.764  0.00  0.00    +0.000 A 
ATOM     25  C   UNL     1       1.422   9.443  18.606  0.00  0.00    +0.000 A 
ATOM     26  C   UNL     1       1.148   9.004  19.899  0.00  0.00    +0.000 A 
ATOM     27  C   UNL     1       1.720   7.819  20.359  0.00  0.00    +0.000 A 
ATOM     28  C   UNL     1       2.508   7.036  19.506  0.00  0.00    +0.000 A 
ENDBRANCH  22  23
ENDBRANCH   1  22
TORSDOF 6
ENDMDL
MODEL 6
REMARK VINA RESULT:      -6.6      1.317      1.671
REMARK  Name = 
REMARK  6 active torsions:
REMARK  status: ('A' for Active; 'I' for Inactive)
REMARK    1  A    between atoms: C_2  and  C_3
REMARK    2  A    between atoms: C_3  and  C_4
REMARK    3  A    between atoms: C_3  and  N_11
REMARK    4  A    between atoms: C_4  and  C_5
REMARK    5  A    between atoms: N_11  and  S_12
REMARK    6  A    between atoms: S_12  and  C_15
REMARK                            x       y       z     vdW  Elec       q    Type
REMARK                         _______ _______ _______ _____ _____    ______ ____
ROOT
ATOM      1  C   UNL     1       2.645   6.949  18.690  0.00  0.00    +0.000 C 
ENDROOT
BRANCH   1   3
ATOM      2  O   UNL     1       2.143   8.979  17.509  0.00  0.00    +0.000 OA
ATOM      3  C   UNL     1       2.061   8.366  18.579  0.00  0.00    +0.000 C 
ATOM      4  N   UNL     1       1.442   8.960  19.675  0.00  0.00    +0.000 N 
ATOM      5  C   UNL     1       0.767  10.249  19.477  0.00  0.00    +0.000 C 
ATOM      6  C   UNL     1       0.969  11.171  20.683  0.00  0.00    +0.000 C 
ATOM      7  O   UNL     1       0.582  10.534  21.909  0.00  0.00    +0.000 OA
ATOM      8  C   UNL     1       1.329   9.326  22.113  0.00  0.00    +0.000 C 
ATOM      9  C   UNL     1       1.091   8.339  20.964  0.00  0.00    +0.000 C 
ENDBRANCH   1   3
BRANCH   1  10
ATOM     10  N   UNL     1       1.649   5.857  18.777  0.00  0.00    +0.000 NA
ATOM     11  H   UNL     1       1.402   5.397  17.903  0.00  0.00    +0.000 HD
BRANCH  10  12
ATOM     12  S   UNL     1       1.830   4.707  19.984  0.00  0.00    +0.000 S 
ATOM     13  O   UNL     1       2.646   5.328  21.010  0.00  0.00    +0.000 OA
ATOM     14  O   UNL     1       0.512   4.213  20.309  0.00  0.00    +0.000 OA
BRANCH  12  15
ATOM     15  C   UNL     1       2.770   3.401  19.272  0.00  0.00    +0.000 A 
ATOM     16  C   UNL     1       2.800   3.229  17.884  0.00  0.00    +0.000 A 
ATOM     17  C   UNL     1       3.423   2.102  17.346  0.00  0.00    +0.000 A 
ATOM     18  C   UNL     1       4.002   1.150  18.186  0.00  0.00    +0.000 A 
ATOM     19  C   UNL     1       3.996   1.344  19.569  0.00  0.00    +0.000 A 
ATOM     20  C   UNL     1       3.383   2.474  20.106  0.00  0.00    +0.000 A 
ATOM     21  F   UNL     1       3.385   2.633  21.435  0.00  0.00    +0.000 F 
ENDBRANCH  12  15
ENDBRANCH  10  12
ENDBRANCH   1  10
BRANCH   1  22
ATOM     22  C   UNL     1       3.668   6.687  17.564  0.00  0.00    +0.000 C 
BRANCH  22  23
ATOM     23  C   UNL     1       5.124   6.400  17.870  0.00  0.00    +0.000 A 
ATOM     24  C   UNL     1       6.135   7.103  17.197  0.00  0.00    +0.000 A 
ATOM     25  C   UNL     1       7.465   7.031  17.619  0.00  0.00    +0.000 A 
ATOM     26  C   UNL     1       7.813   6.218  18.693  0.00  0.00    +0.000 A 
ATOM     27  C   UNL     1       6.834   5.446  19.317  0.00  0.00    +0.000 A 
ATOM     28  C   UNL     1       5.496   5.540  18.915  0.00  0.00    +0.000 A 
ENDBRANCH  22  23
ENDBRANCH   1  22
TORSDOF 6
ENDMDL
MODEL 7
REMARK VINA RESULT:      -6.6      3.129      6.563
REMARK  Name = 
REMARK  6 active torsions:
REMARK  status: ('A' for Active; 'I' for Inactive)
REMARK    1  A    between atoms: C_2  and  C_3
REMARK    2  A    between atoms: C_3  and  C_4
REMARK    3  A    between atoms: C_3  and  N_11
REMARK    4  A    between atoms: C_4  and  C_5
REMARK    5  A    between atoms: N_11  and  S_12
REMARK    6  A    between atoms: S_12  and  C_15
REMARK                            x       y       z     vdW  Elec       q    Type
REMARK                         _______ _______ _______ _____ _____    ______ ____
ROOT
ATOM      1  C   UNL     1       4.523   6.357  17.623  0.00  0.00    +0.000 C 
ENDROOT
BRANCH   1   3
ATOM      2  O   UNL     1       5.479   5.565  19.678  0.00  0.00    +0.000 OA
ATOM      3  C   UNL     1       4.683   5.337  18.761  0.00  0.00    +0.000 C 
ATOM      4  N   UNL     1       3.937   4.162  18.763  0.00  0.00    +0.000 N 
ATOM      5  C   UNL     1       4.011   3.295  19.946  0.00  0.00    +0.000 C 
ATOM      6  C   UNL     1       4.001   1.816  19.549  0.00  0.00    +0.000 C 
ATOM      7  O   UNL     1       2.882   1.499  18.708  0.00  0.00    +0.000 OA
ATOM      8  C   UNL     1       2.894   2.304  17.520  0.00  0.00    +0.000 C 
ATOM      9  C   UNL     1       2.824   3.794  17.870  0.00  0.00    +0.000 C 
ENDBRANCH   1   3
BRANCH   1  10
ATOM     10  N   UNL     1       5.062   5.934  16.311  0.00  0.00    +0.000 NA
ATOM     11  H   UNL     1       4.822   6.517  15.511  0.00  0.00    +0.000 HD
BRANCH  10  12
ATOM     12  S   UNL     1       6.677   5.492  16.217  0.00  0.00    +0.000 S 
ATOM     13  O   UNL     1       7.438   6.718  16.370  0.00  0.00    +0.000 OA
ATOM     14  O   UNL     1       6.878   4.397  17.136  0.00  0.00    +0.000 OA
BRANCH  12  15
ATOM     15  C   UNL     1       6.925   4.912  14.574  0.00  0.00    +0.000 A 
ATOM     16  C   UNL     1       7.795   5.586  13.712  0.00  0.00    +0.000 A 
ATOM     17  C   UNL     1       7.864   5.205  12.371  0.00  0.00    +0.000 A 
ATOM     18  C   UNL     1       7.064   4.166  11.893  0.00  0.00    +0.000 A 
ATOM     19  C   UNL     1       6.221   3.476  12.767  0.00  0.00    +0.000 A 
ATOM     20  C   UNL     1       6.159   3.850  14.107  0.00  0.00    +0.000 A 
ATOM     21  F   UNL     1       5.338   3.177  14.923  0.00  0.00    +0.000 F 
ENDBRANCH  12  15
ENDBRANCH  10  12
ENDBRANCH   1  10
BRANCH   1  22
ATOM     22  C   UNL     1       3.054   6.819  17.503  0.00  0.00    +0.000 C 
BRANCH  22  23
ATOM     23  C   UNL     1       2.442   7.774  18.508  0.00  0.00    +0.000 A 
ATOM     24  C   UNL     1       2.005   9.042  18.094  0.00  0.00    +0.000 A 
ATOM     25  C   UNL     1       1.231   9.846  18.936  0.00  0.00    +0.000 A 
ATOM     26  C   UNL     1       0.921   9.414  20.222  0.00  0.00    +0.000 A 
ATOM     27  C   UNL     1       1.421   8.194  20.678  0.00  0.00    +0.000 A 
ATOM     28  C   UNL     1       2.171   7.375  19.825  0.00  0.00    +0.000 A 
ENDBRANCH  22  23
ENDBRANCH   1  22
TORSDOF 6
ENDMDL
MODEL 8
REMARK VINA RESULT:      -6.5      0.969      1.568
REMARK  Name = 
REMARK  6 active torsions:
REMARK  status: ('A' for Active; 'I' for Inactive)
REMARK    1  A    between atoms: C_2  and  C_3
REMARK    2  A    between atoms: C_3  and  C_4
REMARK    3  A    between atoms: C_3  and  N_11
REMARK    4  A    between atoms: C_4  and  C_5
REMARK    5  A    between atoms: N_11  and  S_12
REMARK    6  A    between atoms: S_12  and  C_15
REMARK                            x       y       z     vdW  Elec       q    Type
REMARK                         _______ _______ _______ _____ _____    ______ ____
ROOT
ATOM      1  C   UNL     1       2.627   7.379  18.621  0.00  0.00    +0.000 C 
ENDROOT
BRANCH   1   3
ATOM      2  O   UNL     1       1.557   9.312  17.680  0.00  0.00    +0.000 OA
ATOM      3  C   UNL     1       1.764   8.647  18.702  0.00  0.00    +0.000 C 
ATOM      4  N   UNL     1       1.215   9.049  19.916  0.00  0.00    +0.000 N 
ATOM      5  C   UNL     1       0.275  10.178  19.914  0.00  0.00    +0.000 C 
ATOM      6  C   UNL     1       0.473  11.065  21.146  0.00  0.00    +0.000 C 
ATOM      7  O   UNL     1       0.413  10.306  22.362  0.00  0.00    +0.000 OA
ATOM      8  C   UNL     1       1.406   9.271  22.366  0.00  0.00    +0.000 C 
ATOM      9  C   UNL     1       1.196   8.310  21.191  0.00  0.00    +0.000 C 
ENDBRANCH   1   3
BRANCH   1  10
ATOM     10  N   UNL     1       1.879   6.106  18.528  0.00  0.00    +0.000 NA
ATOM     11  H   UNL     1       1.914   5.622  17.633  0.00  0.00    +0.000 HD
BRANCH  10  12
ATOM     12  S   UNL     1       2.038   4.993  19.773  0.00  0.00    +0.000 S 
ATOM     13  O   UNL     1       2.943   5.594  20.734  0.00  0.00    +0.000 OA
ATOM     14  O   UNL     1       0.707   4.605  20.177  0.00  0.00    +0.000 OA
BRANCH  12  15
ATOM     15  C   UNL     1       2.852   3.598  19.073  0.00  0.00    +0.000 A 
ATOM     16  C   UNL     1       2.861   3.408  17.688  0.00  0.00    +0.000 A 
ATOM     17  C   UNL     1       3.376   2.223  17.161  0.00  0.00    +0.000 A 
ATOM     18  C   UNL     1       3.869   1.232  18.011  0.00  0.00    +0.000 A 
ATOM     19  C   UNL     1       3.886   1.441  19.391  0.00  0.00    +0.000 A 
ATOM     20  C   UNL     1       3.381   2.628  19.916  0.00  0.00    +0.000 A 
ATOM     21  F   UNL     1       3.402   2.802  21.244  0.00  0.00    +0.000 F 
ENDBRANCH  12  15
ENDBRANCH  10  12
ENDBRANCH   1  10
BRANCH   1  22
ATOM     22  C   UNL     1       3.674   7.498  17.492  0.00  0.00    +0.000 C 
BRANCH  22  23
ATOM     23  C   UNL     1       4.779   6.474  17.328  0.00  0.00    +0.000 A 
ATOM     24  C   UNL     1       5.455   5.985  18.456  0.00  0.00    +0.000 A 
ATOM     25  C   UNL     1       6.307   4.881  18.362  0.00  0.00    +0.000 A 
ATOM     26  C   UNL     1       6.531   4.276  17.129  0.00  0.00    +0.000 A 
ATOM     27  C   UNL     1       5.934   4.804  15.985  0.00  0.00    +0.000 A 
ATOM     28  C   UNL     1       5.058   5.892  16.082  0.00  0.00    +0.000 A 
ENDBRANCH  22  23
ENDBRANCH   1  22
TORSDOF 6
ENDMDL
MODEL 9
REMARK VINA RESULT:      -6.5      3.223      8.290
REMARK  Name = 
REMARK  6 active torsions:
REMARK  status: ('A' for Active; 'I' for Inactive)
REMARK    1  A    between atoms: C_2  and  C_3
REMARK    2  A    between atoms: C_3  and  C_4
REMARK    3  A    between atoms: C_3  and  N_11
REMARK    4  A    between atoms: C_4  and  C_5
REMARK    5  A    between atoms: N_11  and  S_12
REMARK    6  A    between atoms: S_12  and  C_15
REMARK                            x       y       z     vdW  Elec       q    Type
REMARK                         _______ _______ _______ _____ _____    ______ ____
ROOT
ATOM      1  C   UNL     1       0.951   9.369  19.073  0.00  0.00    +0.000 C 
ENDROOT
BRANCH   1   3
ATOM      2  O   UNL     1       2.392   9.033  17.181  0.00  0.00    +0.000 OA
ATOM      3  C   UNL     1       1.974   8.572  18.248  0.00  0.00    +0.000 C 
ATOM      4  N   UNL     1       2.432   7.337  18.699  0.00  0.00    +0.000 N 
ATOM      5  C   UNL     1       3.520   6.687  17.957  0.00  0.00    +0.000 C 
ATOM      6  C   UNL     1       3.312   5.171  17.885  0.00  0.00    +0.000 C 
ATOM      7  O   UNL     1       3.120   4.599  19.188  0.00  0.00    +0.000 OA
ATOM      8  C   UNL     1       1.994   5.196  19.845  0.00  0.00    +0.000 C 
ATOM      9  C   UNL     1       2.196   6.707  20.010  0.00  0.00    +0.000 C 
ENDBRANCH   1   3
BRANCH   1  10
ATOM     10  N   UNL     1       1.464   9.947  20.335  0.00  0.00    +0.000 NA
ATOM     11  H   UNL     1       1.850  10.887  20.281  0.00  0.00    +0.000 HD
BRANCH  10  12
ATOM     12  S   UNL     1       0.523   9.806  21.717  0.00  0.00    +0.000 S 
ATOM     13  O   UNL     1      -0.543   8.880  21.383  0.00  0.00    +0.000 OA
ATOM     14  O   UNL     1       1.413   9.519  22.817  0.00  0.00    +0.000 OA
BRANCH  12  15
ATOM     15  C   UNL     1      -0.205  11.388  21.969  0.00  0.00    +0.000 A 
ATOM     16  C   UNL     1       0.307  12.513  21.314  0.00  0.00    +0.000 A 
ATOM     17  C   UNL     1      -0.182  13.779  21.641  0.00  0.00    +0.000 A 
ATOM     18  C   UNL     1      -1.166  13.921  22.620  0.00  0.00    +0.000 A 
ATOM     19  C   UNL     1      -1.696  12.792  23.247  0.00  0.00    +0.000 A 
ATOM     20  C   UNL     1      -1.215  11.527  22.913  0.00  0.00    +0.000 A 
ATOM     21  F   UNL     1      -1.734  10.461  23.534  0.00  0.00    +0.000 F 
ENDBRANCH  12  15
ENDBRANCH  10  12
ENDBRANCH   1  10
BRANCH   1  22
ATOM     22  C   UNL     1       0.263  10.444  18.203  0.00  0.00    +0.000 C 
BRANCH  22  23
ATOM     23  C   UNL     1      -1.244  10.494  18.054  0.00  0.00    +0.000 A 
ATOM     24  C   UNL     1      -2.000  11.356  18.865  0.00  0.00    +0.000 A 
ATOM     25  C   UNL     1      -3.350  11.597  18.596  0.00  0.00    +0.000 A 
ATOM     26  C   UNL     1      -3.977  10.944  17.539  0.00  0.00    +0.000 A 
ATOM     27  C   UNL     1      -3.262  10.021  16.778  0.00  0.00    +0.000 A 
ATOM     28  C   UNL     1      -1.902   9.800  17.028  0.00  0.00    +0.000 A 
ENDBRANCH  22  23
ENDBRANCH   1  22
TORSDOF 6
ENDMDL
