MODEL 1
REMARK VINA RESULT:      -8.9      0.000      0.000
REMARK  Name = 
REMARK  4 active torsions:
REMARK  status: ('A' for Active; 'I' for Inactive)
REMARK    1  A    between atoms: C_1  and  O_2
REMARK    2  A    between atoms: O_2  and  C_3
REMARK    3  A    between atoms: C_3  and  C_5
REMARK    4  A    between atoms: C_16  and  C_17
REMARK                            x       y       z     vdW  Elec       q    Type
REMARK                         _______ _______ _______ _____ _____    ______ ____
ROOT
ATOM      1  C   UNL     1       6.705   5.160  15.583  0.00  0.00    +0.000 C 
ATOM      2  C   UNL     1       5.266   4.607  15.774  0.00  0.00    +0.000 C 
ATOM      3  C   UNL     1       5.022   4.190  17.183  0.00  0.00    +0.000 A 
ATOM      4  C   UNL     1       6.020   4.234  18.131  0.00  0.00    +0.000 A 
ATOM      5  N   UNL     1       5.515   3.748  19.305  0.00  0.00    +0.000 N 
ATOM      6  C   UNL     1       4.195   3.386  19.130  0.00  0.00    +0.000 A 
ATOM      7  C   UNL     1       3.282   2.837  20.039  0.00  0.00    +0.000 A 
ATOM      8  C   UNL     1       1.993   2.558  19.575  0.00  0.00    +0.000 A 
ATOM      9  C   UNL     1       1.633   2.817  18.255  0.00  0.00    +0.000 A 
ATOM     10  C   UNL     1       2.555   3.366  17.358  0.00  0.00    +0.000 A 
ATOM     11  C   UNL     1       3.860   3.657  17.800  0.00  0.00    +0.000 A 
ATOM     12  C   UNL     1       7.413   4.713  17.916  0.00  0.00    +0.000 C 
ATOM     13  C   UNL     1       7.588   6.155  18.393  0.00  0.00    +0.000 C 
ATOM     14  N   UNL     1       7.750   4.574  16.487  0.00  0.00    +0.000 NA
ATOM     15  H   UNL     1       6.024   3.652  20.173  0.00  0.00    +0.000 HD
ATOM     16  H   UNL     1       7.795   3.573  16.272  0.00  0.00    +0.000 HD
ENDROOT
BRANCH   1  17
ATOM     17  C   UNL     1       7.095   4.882  14.128  0.00  0.00    +0.000 C 
ATOM     18  O   UNL     1       7.950   5.499  13.501  0.00  0.00    +0.000 OA
BRANCH  17  20
ATOM     19  C   UNL     1       6.535   3.610  12.244  0.00  0.00    +0.000 C 
ATOM     20  O   UNL     1       6.407   3.804  13.653  0.00  0.00    +0.000 OA
ENDBRANCH  17  20
ENDBRANCH   1  17
TORSDOF 2
ENDMDL
MODEL 2
REMARK VINA RESULT:      -7.5      2.683      5.717
REMARK  Name = 
REMARK  4 active torsions:
REMARK  status: ('A' for Active; 'I' for Inactive)
REMARK    1  A    between atoms: C_1  and  O_2
REMARK    2  A    between atoms: O_2  and  C_3
REMARK    3  A    between atoms: C_3  and  C_5
REMARK    4  A    between atoms: C_16  and  C_17
REMARK                            x       y       z     vdW  Elec       q    Type
REMARK                         _______ _______ _______ _____ _____    ______ ____
ROOT
ATOM      1  C   UNL     1       4.601   4.596  18.068  0.00  0.00    +0.000 C 
ATOM      2  C   UNL     1       4.545   4.044  16.617  0.00  0.00    +0.000 C 
ATOM      3  C   UNL     1       5.686   4.539  15.799  0.00  0.00    +0.000 A 
ATOM      4  C   UNL     1       6.597   5.441  16.302  0.00  0.00    +0.000 A 
ATOM      5  N   UNL     1       7.492   5.742  15.312  0.00  0.00    +0.000 N 
ATOM      6  C   UNL     1       7.171   5.043  14.166  0.00  0.00    +0.000 A 
ATOM      7  C   UNL     1       7.789   5.039  12.910  0.00  0.00    +0.000 A 
ATOM      8  C   UNL     1       7.232   4.228  11.916  0.00  0.00    +0.000 A 
ATOM      9  C   UNL     1       6.103   3.454  12.169  0.00  0.00    +0.000 A 
ATOM     10  C   UNL     1       5.495   3.468  13.429  0.00  0.00    +0.000 A 
ATOM     11  C   UNL     1       6.037   4.275  14.448  0.00  0.00    +0.000 A 
ATOM     12  C   UNL     1       6.602   6.005  17.679  0.00  0.00    +0.000 C 
ATOM     13  C   UNL     1       7.593   5.267  18.581  0.00  0.00    +0.000 C 
ATOM     14  N   UNL     1       5.233   5.948  18.224  0.00  0.00    +0.000 NA
ATOM     15  H   UNL     1       8.267   6.386  15.391  0.00  0.00    +0.000 HD
ATOM     16  H   UNL     1       4.655   6.604  17.688  0.00  0.00    +0.000 HD
ENDROOT
BRANCH   1  17
ATOM     17  C   UNL     1       3.155   4.663  18.571  0.00  0.00    +0.000 C 
ATOM     18  O   UNL     1       2.164   4.694  17.851  0.00  0.00    +0.000 OA
BRANCH  17  20
ATOM     19  C   UNL     1       1.944   5.164  20.511  0.00  0.00    +0.000 C 
ATOM     20  O   UNL     1       3.127   4.610  19.934  0.00  0.00    +0.000 OA
ENDBRANCH  17  20
ENDBRANCH   1  17
TORSDOF 2
ENDMDL
MODEL 3
REMARK VINA RESULT:      -7.5      2.507      5.553
REMARK  Name = 
REMARK  4 active torsions:
REMARK  status: ('A' for Active; 'I' for Inactive)
REMARK    1  A    between atoms: C_1  and  O_2
REMARK    2  A    between atoms: O_2  and  C_3
REMARK    3  A    between atoms: C_3  and  C_5
REMARK    4  A    between atoms: C_16  and  C_17
REMARK                            x       y       z     vdW  Elec       q    Type
REMARK                         _______ _______ _______ _____ _____    ______ ____
ROOT
ATOM      1  C   UNL     1       4.600   4.589  18.017  0.00  0.00    +0.000 C 
ATOM      2  C   UNL     1       4.545   4.041  16.564  0.00  0.00    +0.000 C 
ATOM      3  C   UNL     1       5.691   4.532  15.750  0.00  0.00    +0.000 A 
ATOM      4  C   UNL     1       6.604   5.429  16.258  0.00  0.00    +0.000 A 
ATOM      5  N   UNL     1       7.504   5.728  15.272  0.00  0.00    +0.000 N 
ATOM      6  C   UNL     1       7.183   5.034  14.124  0.00  0.00    +0.000 A 
ATOM      7  C   UNL     1       7.805   5.030  12.869  0.00  0.00    +0.000 A 
ATOM      8  C   UNL     1       7.248   4.224  11.871  0.00  0.00    +0.000 A 
ATOM      9  C   UNL     1       6.114   3.455  12.119  0.00  0.00    +0.000 A 
ATOM     10  C   UNL     1       5.503   3.468  13.378  0.00  0.00    +0.000 A 
ATOM     11  C   UNL     1       6.045   4.271  14.400  0.00  0.00    +0.000 A 
ATOM     12  C   UNL     1       6.609   5.990  17.637  0.00  0.00    +0.000 C 
ATOM     13  C   UNL     1       7.592   5.245  18.540  0.00  0.00    +0.000 C 
ATOM     14  N   UNL     1       5.237   5.938  18.177  0.00  0.00    +0.000 NA
ATOM     15  H   UNL     1       8.282   6.368  15.355  0.00  0.00    +0.000 HD
ATOM     16  H   UNL     1       4.664   6.597  17.641  0.00  0.00    +0.000 HD
ENDROOT
BRANCH   1  17
ATOM     17  C   UNL     1       3.152   4.661  18.515  0.00  0.00    +0.000 C 
ATOM     18  O   UNL     1       2.775   5.319  19.479  0.00  0.00    +0.000 OA
BRANCH  17  20
ATOM     19  C   UNL     1       1.452   3.058  18.378  0.00  0.00    +0.000 C 
ATOM     20  O   UNL     1       2.333   3.947  17.691  0.00  0.00    +0.000 OA
ENDBRANCH  17  20
ENDBRANCH   1  17
TORSDOF 2
ENDMDL
MODEL 4
REMARK VINA RESULT:      -7.5      1.173      1.415
REMARK  Name = 
REMARK  4 active torsions:
REMARK  status: ('A' for Active; 'I' for Inactive)
REMARK    1  A    between atoms: C_1  and  O_2
REMARK    2  A    between atoms: O_2  and  C_3
REMARK    3  A    between atoms: C_3  and  C_5
REMARK    4  A    between atoms: C_16  and  C_17
REMARK                            x       y       z     vdW  Elec       q    Type
REMARK                         _______ _______ _______ _____ _____    ______ ____
ROOT
ATOM      1  C   UNL     1       6.526   5.390  15.562  0.00  0.00    +0.000 C 
ATOM      2  C   UNL     1       5.063   4.962  15.863  0.00  0.00    +0.000 C 
ATOM      3  C   UNL     1       4.774   4.990  17.323  0.00  0.00    +0.000 A 
ATOM      4  C   UNL     1       5.752   5.284  18.247  0.00  0.00    +0.000 A 
ATOM      5  N   UNL     1       5.204   5.185  19.496  0.00  0.00    +0.000 N 
ATOM      6  C   UNL     1       3.876   4.827  19.394  0.00  0.00    +0.000 A 
ATOM      7  C   UNL     1       2.923   4.600  20.396  0.00  0.00    +0.000 A 
ATOM      8  C   UNL     1       1.635   4.234  19.995  0.00  0.00    +0.000 A 
ATOM      9  C   UNL     1       1.313   4.099  18.647  0.00  0.00    +0.000 A 
ATOM     10  C   UNL     1       2.274   4.329  17.657  0.00  0.00    +0.000 A 
ATOM     11  C   UNL     1       3.579   4.700  18.034  0.00  0.00    +0.000 A 
ATOM     12  C   UNL     1       7.166   5.636  17.944  0.00  0.00    +0.000 C 
ATOM     13  C   UNL     1       7.385   7.149  17.977  0.00  0.00    +0.000 C 
ATOM     14  N   UNL     1       7.528   5.068  16.631  0.00  0.00    +0.000 NA
ATOM     15  H   UNL     1       5.691   5.336  20.369  0.00  0.00    +0.000 HD
ATOM     16  H   UNL     1       7.539   4.047  16.724  0.00  0.00    +0.000 HD
ENDROOT
BRANCH   1  17
ATOM     17  C   UNL     1       6.936   4.680  14.268  0.00  0.00    +0.000 C 
ATOM     18  O   UNL     1       6.343   3.728  13.773  0.00  0.00    +0.000 OA
BRANCH  17  20
ATOM     19  C   UNL     1       7.867   5.566  12.311  0.00  0.00    +0.000 C 
ATOM     20  O   UNL     1       8.012   5.304  13.708  0.00  0.00    +0.000 OA
ENDBRANCH  17  20
ENDBRANCH   1  17
TORSDOF 2
ENDMDL
MODEL 5
REMARK VINA RESULT:      -7.3      2.272      3.645
REMARK  Name = 
REMARK  4 active torsions:
REMARK  status: ('A' for Active; 'I' for Inactive)
REMARK    1  A    between atoms: C_1  and  O_2
REMARK    2  A    between atoms: O_2  and  C_3
REMARK    3  A    between atoms: C_3  and  C_5
REMARK    4  A    between atoms: C_16  and  C_17
REMARK                            x       y       z     vdW  Elec       q    Type
REMARK                         _______ _______ _______ _____ _____    ______ ____
ROOT
ATOM      1  C   UNL     1       6.695   5.428  17.697  0.00  0.00    +0.000 C 
ATOM      2  C   UNL     1       5.741   5.107  18.880  0.00  0.00    +0.000 C 
ATOM      3  C   UNL     1       4.466   4.500  18.406  0.00  0.00    +0.000 A 
ATOM      4  C   UNL     1       4.194   4.349  17.064  0.00  0.00    +0.000 A 
ATOM      5  N   UNL     1       2.942   3.814  16.939  0.00  0.00    +0.000 N 
ATOM      6  C   UNL     1       2.394   3.615  18.190  0.00  0.00    +0.000 A 
ATOM      7  C   UNL     1       1.142   3.104  18.556  0.00  0.00    +0.000 A 
ATOM      8  C   UNL     1       0.848   3.024  19.920  0.00  0.00    +0.000 A 
ATOM      9  C   UNL     1       1.768   3.439  20.880  0.00  0.00    +0.000 A 
ATOM     10  C   UNL     1       3.015   3.948  20.500  0.00  0.00    +0.000 A 
ATOM     11  C   UNL     1       3.336   4.037  19.132  0.00  0.00    +0.000 A 
ATOM     12  C   UNL     1       5.097   4.717  15.940  0.00  0.00    +0.000 C 
ATOM     13  C   UNL     1       5.854   3.499  15.409  0.00  0.00    +0.000 C 
ATOM     14  N   UNL     1       6.025   5.769  16.398  0.00  0.00    +0.000 NA
ATOM     15  H   UNL     1       2.473   3.602  16.069  0.00  0.00    +0.000 HD
ATOM     16  H   UNL     1       5.476   6.618  16.565  0.00  0.00    +0.000 HD
ENDROOT
BRANCH   1  17
ATOM     17  C   UNL     1       7.557   6.616  18.136  0.00  0.00    +0.000 C 
ATOM     18  O   UNL     1       8.298   6.620  19.113  0.00  0.00    +0.000 OA
BRANCH  17  20
ATOM     19  C   UNL     1       7.962   8.883  17.716  0.00  0.00    +0.000 C 
ATOM     20  O   UNL     1       7.438   7.642  17.244  0.00  0.00    +0.000 OA
ENDBRANCH  17  20
ENDBRANCH   1  17
TORSDOF 2
ENDMDL
MODEL 6
REMARK VINA RESULT:      -7.0      1.656      1.830
REMARK  Name = 
REMARK  4 active torsions:
REMARK  status: ('A' for Active; 'I' for Inactive)
REMARK    1  A    between atoms: C_1  and  O_2
REMARK    2  A    between atoms: O_2  and  C_3
REMARK    3  A    between atoms: C_3  and  C_5
REMARK    4  A    between atoms: C_16  and  C_17
REMARK                            x       y       z     vdW  Elec       q    Type
REMARK                         _______ _______ _______ _____ _____    ______ ____
ROOT
ATOM      1  C   UNL     1       5.510   5.317  15.712  0.00  0.00    +0.000 C 
ATOM      2  C   UNL     1       4.679   4.096  16.194  0.00  0.00    +0.000 C 
ATOM      3  C   UNL     1       4.005   4.373  17.494  0.00  0.00    +0.000 A 
ATOM      4  C   UNL     1       4.206   5.553  18.173  0.00  0.00    +0.000 A 
ATOM      5  N   UNL     1       3.501   5.498  19.344  0.00  0.00    +0.000 N 
ATOM      6  C   UNL     1       2.842   4.289  19.434  0.00  0.00    +0.000 A 
ATOM      7  C   UNL     1       2.016   3.784  20.446  0.00  0.00    +0.000 A 
ATOM      8  C   UNL     1       1.484   2.504  20.271  0.00  0.00    +0.000 A 
ATOM      9  C   UNL     1       1.767   1.757  19.130  0.00  0.00    +0.000 A 
ATOM     10  C   UNL     1       2.594   2.274  18.126  0.00  0.00    +0.000 A 
ATOM     11  C   UNL     1       3.142   3.562  18.278  0.00  0.00    +0.000 A 
ATOM     12  C   UNL     1       5.054   6.691  17.723  0.00  0.00    +0.000 C 
ATOM     13  C   UNL     1       4.214   7.792  17.074  0.00  0.00    +0.000 C 
ATOM     14  N   UNL     1       6.082   6.181  16.796  0.00  0.00    +0.000 NA
ATOM     15  H   UNL     1       3.468   6.220  20.050  0.00  0.00    +0.000 HD
ATOM     16  H   UNL     1       6.723   5.590  17.334  0.00  0.00    +0.000 HD
ENDROOT
BRANCH   1  17
ATOM     17  C   UNL     1       6.658   4.759  14.864  0.00  0.00    +0.000 C 
ATOM     18  O   UNL     1       7.777   5.256  14.786  0.00  0.00    +0.000 OA
BRANCH  17  20
ATOM     19  C   UNL     1       6.334   3.629  12.839  0.00  0.00    +0.000 C 
ATOM     20  O   UNL     1       6.280   3.593  14.266  0.00  0.00    +0.000 OA
ENDBRANCH  17  20
ENDBRANCH   1  17
TORSDOF 2
ENDMDL
MODEL 7
REMARK VINA RESULT:      -7.0      2.020      2.383
REMARK  Name = 
REMARK  4 active torsions:
REMARK  status: ('A' for Active; 'I' for Inactive)
REMARK    1  A    between atoms: C_1  and  O_2
REMARK    2  A    between atoms: O_2  and  C_3
REMARK    3  A    between atoms: C_3  and  C_5
REMARK    4  A    between atoms: C_16  and  C_17
REMARK                            x       y       z     vdW  Elec       q    Type
REMARK                         _______ _______ _______ _____ _____    ______ ____
ROOT
ATOM      1  C   UNL     1       5.770   5.399  16.377  0.00  0.00    +0.000 C 
ATOM      2  C   UNL     1       4.905   4.148  16.698  0.00  0.00    +0.000 C 
ATOM      3  C   UNL     1       3.836   4.461  17.686  0.00  0.00    +0.000 A 
ATOM      4  C   UNL     1       3.736   5.703  18.271  0.00  0.00    +0.000 A 
ATOM      5  N   UNL     1       2.699   5.673  19.162  0.00  0.00    +0.000 N 
ATOM      6  C   UNL     1       2.123   4.420  19.164  0.00  0.00    +0.000 A 
ATOM      7  C   UNL     1       1.050   3.921  19.914  0.00  0.00    +0.000 A 
ATOM      8  C   UNL     1       0.682   2.587  19.712  0.00  0.00    +0.000 A 
ATOM      9  C   UNL     1       1.361   1.784  18.799  0.00  0.00    +0.000 A 
ATOM     10  C   UNL     1       2.431   2.296  18.056  0.00  0.00    +0.000 A 
ATOM     11  C   UNL     1       2.820   3.637  18.240  0.00  0.00    +0.000 A 
ATOM     12  C   UNL     1       4.610   6.875  17.995  0.00  0.00    +0.000 C 
ATOM     13  C   UNL     1       3.955   7.842  17.008  0.00  0.00    +0.000 C 
ATOM     14  N   UNL     1       5.910   6.393  17.493  0.00  0.00    +0.000 NA
ATOM     15  H   UNL     1       2.398   6.442  19.746  0.00  0.00    +0.000 HD
ATOM     16  H   UNL     1       6.382   5.905  18.261  0.00  0.00    +0.000 HD
ENDROOT
BRANCH   1  17
ATOM     17  C   UNL     1       7.161   4.886  15.991  0.00  0.00    +0.000 C 
ATOM     18  O   UNL     1       7.871   4.182  16.703  0.00  0.00    +0.000 OA
BRANCH  17  20
ATOM     19  C   UNL     1       6.828   4.475  13.711  0.00  0.00    +0.000 C 
ATOM     20  O   UNL     1       7.466   5.263  14.716  0.00  0.00    +0.000 OA
ENDBRANCH  17  20
ENDBRANCH   1  17
TORSDOF 2
ENDMDL
MODEL 8
REMARK VINA RESULT:      -6.9      1.592      1.813
REMARK  Name = 
REMARK  4 active torsions:
REMARK  status: ('A' for Active; 'I' for Inactive)
REMARK    1  A    between atoms: C_1  and  O_2
REMARK    2  A    between atoms: O_2  and  C_3
REMARK    3  A    between atoms: C_3  and  C_5
REMARK    4  A    between atoms: C_16  and  C_17
REMARK                            x       y       z     vdW  Elec       q    Type
REMARK                         _______ _______ _______ _____ _____    ______ ____
ROOT
ATOM      1  C   UNL     1       5.635   5.917  16.836  0.00  0.00    +0.000 C 
ATOM      2  C   UNL     1       4.172   5.588  17.242  0.00  0.00    +0.000 C 
ATOM      3  C   UNL     1       4.123   4.709  18.444  0.00  0.00    +0.000 A 
ATOM      4  C   UNL     1       5.269   4.214  19.023  0.00  0.00    +0.000 A 
ATOM      5  N   UNL     1       4.908   3.408  20.067  0.00  0.00    +0.000 N 
ATOM      6  C   UNL     1       3.532   3.373  20.172  0.00  0.00    +0.000 A 
ATOM      7  C   UNL     1       2.714   2.681  21.074  0.00  0.00    +0.000 A 
ATOM      8  C   UNL     1       1.330   2.826  20.938  0.00  0.00    +0.000 A 
ATOM      9  C   UNL     1       0.787   3.630  19.939  0.00  0.00    +0.000 A 
ATOM     10  C   UNL     1       1.616   4.316  19.044  0.00  0.00    +0.000 A 
ATOM     11  C   UNL     1       3.014   4.187  19.161  0.00  0.00    +0.000 A 
ATOM     12  C   UNL     1       6.664   4.493  18.584  0.00  0.00    +0.000 C 
ATOM     13  C   UNL     1       7.309   5.589  19.434  0.00  0.00    +0.000 C 
ATOM     14  N   UNL     1       6.650   4.859  17.155  0.00  0.00    +0.000 NA
ATOM     15  H   UNL     1       5.540   2.900  20.669  0.00  0.00    +0.000 HD
ATOM     16  H   UNL     1       6.383   4.026  16.621  0.00  0.00    +0.000 HD
ENDROOT
BRANCH   1  17
ATOM     17  C   UNL     1       5.628   6.157  15.322  0.00  0.00    +0.000 C 
ATOM     18  O   UNL     1       4.981   7.030  14.754  0.00  0.00    +0.000 OA
BRANCH  17  20
ATOM     19  C   UNL     1       5.868   4.259  13.974  0.00  0.00    +0.000 C 
ATOM     20  O   UNL     1       6.501   5.308  14.706  0.00  0.00    +0.000 OA
ENDBRANCH  17  20
ENDBRANCH   1  17
TORSDOF 2
ENDMDL
MODEL 9
REMARK VINA RESULT:      -6.8      3.113      5.599
REMARK  Name = 
REMARK  4 active torsions:
REMARK  status: ('A' for Active; 'I' for Inactive)
REMARK    1  A    between atoms: C_1  and  O_2
REMARK    2  A    between atoms: O_2  and  C_3
REMARK    3  A    between atoms: C_3  and  C_5
REMARK    4  A    between atoms: C_16  and  C_17
REMARK                            x       y       z     vdW  Elec       q    Type
REMARK                         _______ _______ _______ _____ _____    ______ ____
ROOT
ATOM      1  C   UNL     1       4.662   5.661  17.791  0.00  0.00    +0.000 C 
ATOM      2  C   UNL     1       4.378   4.973  16.427  0.00  0.00    +0.000 C 
ATOM      3  C   UNL     1       5.591   4.951  15.562  0.00  0.00    +0.000 A 
ATOM      4  C   UNL     1       6.763   5.560  15.949  0.00  0.00    +0.000 A 
ATOM      5  N   UNL     1       7.673   5.415  14.938  0.00  0.00    +0.000 N 
ATOM      6  C   UNL     1       7.102   4.718  13.893  0.00  0.00    +0.000 A 
ATOM      7  C   UNL     1       7.641   4.344  12.656  0.00  0.00    +0.000 A 
ATOM      8  C   UNL     1       6.815   3.639  11.775  0.00  0.00    +0.000 A 
ATOM      9  C   UNL     1       5.503   3.322  12.118  0.00  0.00    +0.000 A 
ATOM     10  C   UNL     1       4.978   3.701  13.357  0.00  0.00    +0.000 A 
ATOM     11  C   UNL     1       5.789   4.411  14.263  0.00  0.00    +0.000 A 
ATOM     12  C   UNL     1       7.001   6.266  17.237  0.00  0.00    +0.000 C 
ATOM     13  C   UNL     1       7.724   5.368  18.242  0.00  0.00    +0.000 C 
ATOM     14  N   UNL     1       5.708   6.737  17.769  0.00  0.00    +0.000 NA
ATOM     15  H   UNL     1       8.619   5.771  14.938  0.00  0.00    +0.000 HD
ATOM     16  H   UNL     1       5.360   7.470  17.142  0.00  0.00    +0.000 HD
ENDROOT
BRANCH   1  17
ATOM     17  C   UNL     1       3.337   6.267  18.263  0.00  0.00    +0.000 C 
ATOM     18  O   UNL     1       2.510   5.688  18.960  0.00  0.00    +0.000 OA
BRANCH  17  20
ATOM     19  C   UNL     1       2.030   8.209  18.255  0.00  0.00    +0.000 C 
ATOM     20  O   UNL     1       3.242   7.566  17.859  0.00  0.00    +0.000 OA
ENDBRANCH  17  20
ENDBRANCH   1  17
TORSDOF 2
ENDMDL
