MODEL 1
REMARK VINA RESULT:      -7.8      0.000      0.000
REMARK  Name = 
REMARK  5 active torsions:
REMARK  status: ('A' for Active; 'I' for Inactive)
REMARK    1  A    between atoms: C_1  and  C_2
REMARK    2  A    between atoms: C_5  and  C_6
REMARK    3  A    between atoms: N_17  and  C_18
REMARK    4  A    between atoms: C_21  and  O_22
REMARK    5  A    between atoms: O_22  and  C_23
REMARK                            x       y       z     vdW  Elec       q    Type
REMARK                         _______ _______ _______ _____ _____    ______ ____
ROOT
ATOM      1  C   UNL     1       0.691  15.444  19.136  0.00  0.00    +0.000 C 
ATOM      2  O   UNL     1       1.791  15.966  18.940  0.00  0.00    +0.000 OA
ATOM      3  N   UNL     1       0.547  14.059  19.280  0.00  0.00    +0.000 N 
ATOM      4  C   UNL     1       1.746  13.251  19.445  0.00  0.00    +0.000 C 
ATOM      5  C   UNL     1       1.598  12.331  20.659  0.00  0.00    +0.000 C 
ATOM      6  C   UNL     1       0.309  11.476  20.592  0.00  0.00    +0.000 C 
ATOM      7  C   UNL     1       0.122  10.681  21.912  0.00  0.00    +0.000 C 
ATOM      8  C   UNL     1       0.157   9.215  21.521  0.00  0.00    +0.000 C 
ATOM      9  N   UNL     1       0.839   9.208  20.246  0.00  0.00    +0.000 N 
ATOM     10  C   UNL     1       1.548   8.100  19.878  0.00  0.00    +0.000 C 
ATOM     11  O   UNL     1       1.563   7.114  20.620  0.00  0.00    +0.000 OA
ATOM     12  N   UNL     1       2.243   8.181  18.692  0.00  0.00    +0.000 N 
ATOM     13  C   UNL     1       0.460  10.388  19.502  0.00  0.00    +0.000 C 
ATOM     14  C   UNL     1      -0.903  12.396  20.359  0.00  0.00    +0.000 C 
ATOM     15  C   UNL     1      -0.701  13.303  19.149  0.00  0.00    +0.000 C 
ATOM     16  H   UNL     1       2.414   9.106  18.329  0.00  0.00    +0.000 HD
ENDROOT
BRANCH   1  21
ATOM     17  C   UNL     1      -3.993  18.615  19.553  0.00  0.00    +0.000 C 
ATOM     18  C   UNL     1      -2.730  17.826  19.481  0.00  0.00    +0.000 A 
ATOM     19  C   UNL     1      -1.866  17.966  18.398  0.00  0.00    +0.000 A 
ATOM     20  N   UNL     1      -0.747  17.225  18.256  0.00  0.00    +0.000 NA
ATOM     21  C   UNL     1      -0.486  16.348  19.261  0.00  0.00    +0.000 A 
ATOM     22  C   UNL     1      -1.340  16.209  20.346  0.00  0.00    +0.000 A 
ATOM     23  N   UNL     1      -2.470  16.949  20.481  0.00  0.00    +0.000 NA
ENDBRANCH   1  21
BRANCH  12  24
ATOM     24  C   UNL     1       3.009   7.130  18.134  0.00  0.00    +0.000 A 
ATOM     25  C   UNL     1       2.538   5.818  18.043  0.00  0.00    +0.000 A 
ATOM     26  C   UNL     1       3.328   4.803  17.504  0.00  0.00    +0.000 A 
ATOM     27  C   UNL     1       4.599   5.085  17.014  0.00  0.00    +0.000 A 
ATOM     28  C   UNL     1       5.093   6.382  17.127  0.00  0.00    +0.000 A 
ATOM     29  C   UNL     1       4.293   7.408  17.657  0.00  0.00    +0.000 A 
BRANCH  27  30
ATOM     30  O   UNL     1       5.273   4.010  16.524  0.00  0.00    +0.000 OA
BRANCH  30  31
ATOM     31  C   UNL     1       5.961   4.123  15.286  0.00  0.00    +0.000 C 
ATOM     32  F   UNL     1       6.093   2.966  14.605  0.00  0.00    +0.000 F 
ATOM     33  F   UNL     1       5.303   5.007  14.504  0.00  0.00    +0.000 F 
ATOM     34  F   UNL     1       7.200   4.609  15.519  0.00  0.00    +0.000 F 
ENDBRANCH  30  31
ENDBRANCH  27  30
ENDBRANCH  12  24
TORSDOF 4
ENDMDL
MODEL 2
REMARK VINA RESULT:      -7.6      0.707      1.213
REMARK  Name = 
REMARK  5 active torsions:
REMARK  status: ('A' for Active; 'I' for Inactive)
REMARK    1  A    between atoms: C_1  and  C_2
REMARK    2  A    between atoms: C_5  and  C_6
REMARK    3  A    between atoms: N_17  and  C_18
REMARK    4  A    between atoms: C_21  and  O_22
REMARK    5  A    between atoms: O_22  and  C_23
REMARK                            x       y       z     vdW  Elec       q    Type
REMARK                         _______ _______ _______ _____ _____    ______ ____
ROOT
ATOM      1  C   UNL     1       0.222  15.106  19.491  0.00  0.00    +0.000 C 
ATOM      2  O   UNL     1       1.265  15.719  19.248  0.00  0.00    +0.000 OA
ATOM      3  N   UNL     1       0.193  13.712  19.600  0.00  0.00    +0.000 N 
ATOM      4  C   UNL     1       1.460  12.996  19.669  0.00  0.00    +0.000 C 
ATOM      5  C   UNL     1       1.456  12.035  20.860  0.00  0.00    +0.000 C 
ATOM      6  C   UNL     1       0.236  11.083  20.841  0.00  0.00    +0.000 C 
ATOM      7  C   UNL     1       0.190  10.240  22.144  0.00  0.00    +0.000 C 
ATOM      8  C   UNL     1       0.314   8.793  21.706  0.00  0.00    +0.000 C 
ATOM      9  N   UNL     1       0.917   8.874  20.394  0.00  0.00    +0.000 N 
ATOM     10  C   UNL     1       1.687   7.836  19.951  0.00  0.00    +0.000 C 
ATOM     11  O   UNL     1       1.822   6.835  20.659  0.00  0.00    +0.000 OA
ATOM     12  N   UNL     1       2.301   8.004  18.730  0.00  0.00    +0.000 N 
ATOM     13  C   UNL     1       0.404  10.040  19.710  0.00  0.00    +0.000 C 
ATOM     14  C   UNL     1      -1.056  11.911  20.707  0.00  0.00    +0.000 C 
ATOM     15  C   UNL     1      -0.997  12.862  19.516  0.00  0.00    +0.000 C 
ATOM     16  H   UNL     1       2.378   8.949  18.388  0.00  0.00    +0.000 HD
ENDROOT
BRANCH   1  21
ATOM     17  C   UNL     1      -4.280  18.422  20.448  0.00  0.00    +0.000 C 
ATOM     18  C   UNL     1      -3.132  17.518  20.151  0.00  0.00    +0.000 A 
ATOM     19  C   UNL     1      -2.897  16.388  20.930  0.00  0.00    +0.000 A 
ATOM     20  N   UNL     1      -1.834  15.578  20.742  0.00  0.00    +0.000 NA
ATOM     21  C   UNL     1      -1.012  15.911  19.712  0.00  0.00    +0.000 A 
ATOM     22  C   UNL     1      -1.244  17.032  18.928  0.00  0.00    +0.000 A 
ATOM     23  N   UNL     1      -2.310  17.850  19.126  0.00  0.00    +0.000 NA
ENDBRANCH   1  21
BRANCH  12  24
ATOM     24  C   UNL     1       3.111   7.031  18.096  0.00  0.00    +0.000 A 
ATOM     25  C   UNL     1       2.740   5.689  17.994  0.00  0.00    +0.000 A 
ATOM     26  C   UNL     1       3.573   4.754  17.378  0.00  0.00    +0.000 A 
ATOM     27  C   UNL     1       4.785   5.149  16.823  0.00  0.00    +0.000 A 
ATOM     28  C   UNL     1       5.182   6.479  16.946  0.00  0.00    +0.000 A 
ATOM     29  C   UNL     1       4.337   7.424  17.552  0.00  0.00    +0.000 A 
BRANCH  27  30
ATOM     30  O   UNL     1       5.510   4.145  16.262  0.00  0.00    +0.000 OA
BRANCH  30  31
ATOM     31  C   UNL     1       5.960   4.275  14.920  0.00  0.00    +0.000 C 
ATOM     32  F   UNL     1       7.080   5.013  14.770  0.00  0.00    +0.000 F 
ATOM     33  F   UNL     1       6.189   3.042  14.418  0.00  0.00    +0.000 F 
ATOM     34  F   UNL     1       4.984   4.853  14.187  0.00  0.00    +0.000 F 
ENDBRANCH  30  31
ENDBRANCH  27  30
ENDBRANCH  12  24
TORSDOF 4
ENDMDL
MODEL 3
REMARK VINA RESULT:      -7.6      0.741      1.324
REMARK  Name = 
REMARK  5 active torsions:
REMARK  status: ('A' for Active; 'I' for Inactive)
REMARK    1  A    between atoms: C_1  and  C_2
REMARK    2  A    between atoms: C_5  and  C_6
REMARK    3  A    between atoms: N_17  and  C_18
REMARK    4  A    between atoms: C_21  and  O_22
REMARK    5  A    between atoms: O_22  and  C_23
REMARK                            x       y       z     vdW  Elec       q    Type
REMARK                         _______ _______ _______ _____ _____    ______ ____
ROOT
ATOM      1  C   UNL     1       0.474  14.974  19.590  0.00  0.00    +0.000 C 
ATOM      2  O   UNL     1       1.541  15.574  19.437  0.00  0.00    +0.000 OA
ATOM      3  N   UNL     1       0.414  13.577  19.643  0.00  0.00    +0.000 N 
ATOM      4  C   UNL     1       1.660  12.834  19.764  0.00  0.00    +0.000 C 
ATOM      5  C   UNL     1       1.563  11.829  20.915  0.00  0.00    +0.000 C 
ATOM      6  C   UNL     1       0.330  10.904  20.782  0.00  0.00    +0.000 C 
ATOM      7  C   UNL     1       0.186  10.014  22.047  0.00  0.00    +0.000 C 
ATOM      8  C   UNL     1       0.312   8.582  21.561  0.00  0.00    +0.000 C 
ATOM      9  N   UNL     1       0.998   8.700  20.293  0.00  0.00    +0.000 N 
ATOM     10  C   UNL     1       1.776   7.663  19.860  0.00  0.00    +0.000 C 
ATOM     11  O   UNL     1       1.848   6.634  20.536  0.00  0.00    +0.000 OA
ATOM     12  N   UNL     1       2.468   7.864  18.687  0.00  0.00    +0.000 N 
ATOM     13  C   UNL     1       0.551   9.901  19.625  0.00  0.00    +0.000 C 
ATOM     14  C   UNL     1      -0.935  11.762  20.600  0.00  0.00    +0.000 C 
ATOM     15  C   UNL     1      -0.784  12.756  19.453  0.00  0.00    +0.000 C 
ATOM     16  H   UNL     1       2.584   8.820  18.387  0.00  0.00    +0.000 HD
ENDROOT
BRANCH   1  21
ATOM     17  C   UNL     1      -4.013  18.367  20.320  0.00  0.00    +0.000 C 
ATOM     18  C   UNL     1      -2.870  17.437  20.091  0.00  0.00    +0.000 A 
ATOM     19  C   UNL     1      -2.577  16.432  21.009  0.00  0.00    +0.000 A 
ATOM     20  N   UNL     1      -1.514  15.610  20.878  0.00  0.00    +0.000 NA
ATOM     21  C   UNL     1      -0.757  15.795  19.764  0.00  0.00    +0.000 A 
ATOM     22  C   UNL     1      -1.049  16.790  18.843  0.00  0.00    +0.000 A 
ATOM     23  N   UNL     1      -2.113  17.622  18.983  0.00  0.00    +0.000 NA
ENDBRANCH   1  21
BRANCH  12  24
ATOM     24  C   UNL     1       3.299   6.900  18.068  0.00  0.00    +0.000 A 
ATOM     25  C   UNL     1       4.603   7.180  17.655  0.00  0.00    +0.000 A 
ATOM     26  C   UNL     1       5.387   6.210  17.029  0.00  0.00    +0.000 A 
ATOM     27  C   UNL     1       4.892   4.925  16.832  0.00  0.00    +0.000 A 
ATOM     28  C   UNL     1       3.582   4.641  17.210  0.00  0.00    +0.000 A 
ATOM     29  C   UNL     1       2.797   5.613  17.853  0.00  0.00    +0.000 A 
BRANCH  27  30
ATOM     30  O   UNL     1       5.747   4.075  16.203  0.00  0.00    +0.000 OA
BRANCH  30  31
ATOM     31  C   UNL     1       6.082   4.303  14.841  0.00  0.00    +0.000 C 
ATOM     32  F   UNL     1       6.213   3.186  14.097  0.00  0.00    +0.000 F 
ATOM     33  F   UNL     1       5.127   5.079  14.284  0.00  0.00    +0.000 F 
ATOM     34  F   UNL     1       7.253   4.975  14.788  0.00  0.00    +0.000 F 
ENDBRANCH  30  31
ENDBRANCH  27  30
ENDBRANCH  12  24
TORSDOF 4
ENDMDL
MODEL 4
REMARK VINA RESULT:      -7.5      3.679      4.517
REMARK  Name = 
REMARK  5 active torsions:
REMARK  status: ('A' for Active; 'I' for Inactive)
REMARK    1  A    between atoms: C_1  and  C_2
REMARK    2  A    between atoms: C_5  and  C_6
REMARK    3  A    between atoms: N_17  and  C_18
REMARK    4  A    between atoms: C_21  and  O_22
REMARK    5  A    between atoms: O_22  and  C_23
REMARK                            x       y       z     vdW  Elec       q    Type
REMARK                         _______ _______ _______ _____ _____    ______ ____
ROOT
ATOM      1  C   UNL     1      -5.544  12.173  19.582  0.00  0.00    +0.000 C 
ATOM      2  O   UNL     1      -6.236  11.422  18.890  0.00  0.00    +0.000 OA
ATOM      3  N   UNL     1      -4.150  12.058  19.631  0.00  0.00    +0.000 N 
ATOM      4  C   UNL     1      -3.492  11.195  18.659  0.00  0.00    +0.000 C 
ATOM      5  C   UNL     1      -2.351  11.951  17.975  0.00  0.00    +0.000 C 
ATOM      6  C   UNL     1      -1.359  12.564  18.993  0.00  0.00    +0.000 C 
ATOM      7  C   UNL     1      -0.314  13.449  18.261  0.00  0.00    +0.000 C 
ATOM      8  C   UNL     1       1.035  12.814  18.542  0.00  0.00    +0.000 C 
ATOM      9  N   UNL     1       0.713  11.450  18.902  0.00  0.00    +0.000 N 
ATOM     10  C   UNL     1       1.629  10.466  18.660  0.00  0.00    +0.000 C 
ATOM     11  O   UNL     1       2.724  10.761  18.176  0.00  0.00    +0.000 OA
ATOM     12  N   UNL     1       1.236   9.178  18.947  0.00  0.00    +0.000 N 
ATOM     13  C   UNL     1      -0.524  11.439  19.650  0.00  0.00    +0.000 C 
ATOM     14  C   UNL     1      -2.138  13.410  20.017  0.00  0.00    +0.000 C 
ATOM     15  C   UNL     1      -3.272  12.619  20.660  0.00  0.00    +0.000 C 
ATOM     16  H   UNL     1       0.246   9.016  19.040  0.00  0.00    +0.000 HD
ENDROOT
BRANCH   1  21
ATOM     17  C   UNL     1      -7.903  16.380  22.568  0.00  0.00    +0.000 C 
ATOM     18  C   UNL     1      -7.337  15.273  21.745  0.00  0.00    +0.000 A 
ATOM     19  C   UNL     1      -7.471  13.947  22.148  0.00  0.00    +0.000 A 
ATOM     20  N   UNL     1      -6.917  12.918  21.473  0.00  0.00    +0.000 NA
ATOM     21  C   UNL     1      -6.244  13.249  20.339  0.00  0.00    +0.000 A 
ATOM     22  C   UNL     1      -6.113  14.567  19.928  0.00  0.00    +0.000 A 
ATOM     23  N   UNL     1      -6.662  15.601  20.616  0.00  0.00    +0.000 NA
ENDBRANCH   1  21
BRANCH  12  24
ATOM     24  C   UNL     1       2.054   8.033  18.791  0.00  0.00    +0.000 A 
ATOM     25  C   UNL     1       2.123   7.017  19.747  0.00  0.00    +0.000 A 
ATOM     26  C   UNL     1       2.955   5.912  19.568  0.00  0.00    +0.000 A 
ATOM     27  C   UNL     1       3.715   5.783  18.411  0.00  0.00    +0.000 A 
ATOM     28  C   UNL     1       3.680   6.804  17.463  0.00  0.00    +0.000 A 
ATOM     29  C   UNL     1       2.831   7.910  17.636  0.00  0.00    +0.000 A 
BRANCH  27  30
ATOM     30  O   UNL     1       4.492   4.668  18.360  0.00  0.00    +0.000 OA
BRANCH  30  31
ATOM     31  C   UNL     1       4.130   3.605  17.488  0.00  0.00    +0.000 C 
ATOM     32  F   UNL     1       2.883   3.692  16.980  0.00  0.00    +0.000 F 
ATOM     33  F   UNL     1       5.009   3.567  16.463  0.00  0.00    +0.000 F 
ATOM     34  F   UNL     1       4.221   2.439  18.164  0.00  0.00    +0.000 F 
ENDBRANCH  30  31
ENDBRANCH  27  30
ENDBRANCH  12  24
TORSDOF 4
ENDMDL
MODEL 5
REMARK VINA RESULT:      -7.4      3.470      4.284
REMARK  Name = 
REMARK  5 active torsions:
REMARK  status: ('A' for Active; 'I' for Inactive)
REMARK    1  A    between atoms: C_1  and  C_2
REMARK    2  A    between atoms: C_5  and  C_6
REMARK    3  A    between atoms: N_17  and  C_18
REMARK    4  A    between atoms: C_21  and  O_22
REMARK    5  A    between atoms: O_22  and  C_23
REMARK                            x       y       z     vdW  Elec       q    Type
REMARK                         _______ _______ _______ _____ _____    ______ ____
ROOT
ATOM      1  C   UNL     1      -2.609  13.277  23.558  0.00  0.00    +0.000 C 
ATOM      2  O   UNL     1      -3.544  12.551  23.902  0.00  0.00    +0.000 OA
ATOM      3  N   UNL     1      -1.623  12.840  22.666  0.00  0.00    +0.000 N 
ATOM      4  C   UNL     1      -1.843  11.593  21.947  0.00  0.00    +0.000 C 
ATOM      5  C   UNL     1      -1.614  11.804  20.448  0.00  0.00    +0.000 C 
ATOM      6  C   UNL     1      -0.229  12.426  20.149  0.00  0.00    +0.000 C 
ATOM      7  C   UNL     1      -0.107  12.766  18.639  0.00  0.00    +0.000 C 
ATOM      8  C   UNL     1       1.048  11.929  18.118  0.00  0.00    +0.000 C 
ATOM      9  N   UNL     1       1.168  10.858  19.083  0.00  0.00    +0.000 N 
ATOM     10  C   UNL     1       1.664   9.652  18.678  0.00  0.00    +0.000 C 
ATOM     11  O   UNL     1       2.035   9.509  17.510  0.00  0.00    +0.000 OA
ATOM     12  N   UNL     1       1.680   8.647  19.619  0.00  0.00    +0.000 N 
ATOM     13  C   UNL     1       0.881  11.377  20.402  0.00  0.00    +0.000 C 
ATOM     14  C   UNL     1      -0.051  13.703  20.989  0.00  0.00    +0.000 C 
ATOM     15  C   UNL     1      -0.304  13.446  22.471  0.00  0.00    +0.000 C 
ATOM     16  H   UNL     1       1.085   8.770  20.424  0.00  0.00    +0.000 HD
ENDROOT
BRANCH   1  21
ATOM     17  C   UNL     1      -2.242  18.627  25.408  0.00  0.00    +0.000 C 
ATOM     18  C   UNL     1      -2.403  17.222  24.935  0.00  0.00    +0.000 A 
ATOM     19  C   UNL     1      -2.137  16.151  25.785  0.00  0.00    +0.000 A 
ATOM     20  N   UNL     1      -2.203  14.865  25.383  0.00  0.00    +0.000 NA
ATOM     21  C   UNL     1      -2.585  14.667  24.093  0.00  0.00    +0.000 A 
ATOM     22  C   UNL     1      -2.858  15.730  23.244  0.00  0.00    +0.000 A 
ATOM     23  N   UNL     1      -2.781  17.023  23.649  0.00  0.00    +0.000 NA
ENDBRANCH   1  21
BRANCH  12  24
ATOM     24  C   UNL     1       2.181   7.342  19.395  0.00  0.00    +0.000 A 
ATOM     25  C   UNL     1       1.882   6.264  20.232  0.00  0.00    +0.000 A 
ATOM     26  C   UNL     1       2.411   4.995  19.991  0.00  0.00    +0.000 A 
ATOM     27  C   UNL     1       3.225   4.770  18.887  0.00  0.00    +0.000 A 
ATOM     28  C   UNL     1       3.557   5.842  18.062  0.00  0.00    +0.000 A 
ATOM     29  C   UNL     1       3.014   7.117  18.295  0.00  0.00    +0.000 A 
BRANCH  27  30
ATOM     30  O   UNL     1       3.685   3.495  18.768  0.00  0.00    +0.000 OA
BRANCH  30  31
ATOM     31  C   UNL     1       2.828   2.492  18.240  0.00  0.00    +0.000 C 
ATOM     32  F   UNL     1       2.001   1.924  19.143  0.00  0.00    +0.000 F 
ATOM     33  F   UNL     1       2.079   3.035  17.256  0.00  0.00    +0.000 F 
ATOM     34  F   UNL     1       3.585   1.513  17.700  0.00  0.00    +0.000 F 
ENDBRANCH  30  31
ENDBRANCH  27  30
ENDBRANCH  12  24
TORSDOF 4
ENDMDL
MODEL 6
REMARK VINA RESULT:      -7.4      3.442      4.262
REMARK  Name = 
REMARK  5 active torsions:
REMARK  status: ('A' for Active; 'I' for Inactive)
REMARK    1  A    between atoms: C_1  and  C_2
REMARK    2  A    between atoms: C_5  and  C_6
REMARK    3  A    between atoms: N_17  and  C_18
REMARK    4  A    between atoms: C_21  and  O_22
REMARK    5  A    between atoms: O_22  and  C_23
REMARK                            x       y       z     vdW  Elec       q    Type
REMARK                         _______ _______ _______ _____ _____    ______ ____
ROOT
ATOM      1  C   UNL     1      -2.457  13.226  23.431  0.00  0.00    +0.000 C 
ATOM      2  O   UNL     1      -3.403  12.555  23.850  0.00  0.00    +0.000 OA
ATOM      3  N   UNL     1      -1.483  12.682  22.586  0.00  0.00    +0.000 N 
ATOM      4  C   UNL     1      -1.729  11.373  21.997  0.00  0.00    +0.000 C 
ATOM      5  C   UNL     1      -1.503  11.427  20.485  0.00  0.00    +0.000 C 
ATOM      6  C   UNL     1      -0.109  11.990  20.120  0.00  0.00    +0.000 C 
ATOM      7  C   UNL     1       0.013  12.173  18.583  0.00  0.00    +0.000 C 
ATOM      8  C   UNL     1       1.149  11.267  18.146  0.00  0.00    +0.000 C 
ATOM      9  N   UNL     1       1.255  10.297  19.215  0.00  0.00    +0.000 N 
ATOM     10  C   UNL     1       1.728   9.047  18.932  0.00  0.00    +0.000 C 
ATOM     11  O   UNL     1       2.090   8.779  17.784  0.00  0.00    +0.000 OA
ATOM     12  N   UNL     1       1.730   8.143  19.970  0.00  0.00    +0.000 N 
ATOM     13  C   UNL     1       0.983  10.952  20.474  0.00  0.00    +0.000 C 
ATOM     14  C   UNL     1       0.097  13.342  20.826  0.00  0.00    +0.000 C 
ATOM     15  C   UNL     1      -0.154  13.241  22.327  0.00  0.00    +0.000 C 
ATOM     16  H   UNL     1       1.142   8.358  20.760  0.00  0.00    +0.000 HD
ENDROOT
BRANCH   1  21
ATOM     17  C   UNL     1      -2.511  18.631  25.152  0.00  0.00    +0.000 C 
ATOM     18  C   UNL     1      -2.435  17.219  24.679  0.00  0.00    +0.000 A 
ATOM     19  C   UNL     1      -2.906  16.865  23.418  0.00  0.00    +0.000 A 
ATOM     20  N   UNL     1      -2.921  15.591  22.974  0.00  0.00    +0.000 NA
ATOM     21  C   UNL     1      -2.406  14.662  23.823  0.00  0.00    +0.000 A 
ATOM     22  C   UNL     1      -1.928  15.010  25.078  0.00  0.00    +0.000 A 
ATOM     23  N   UNL     1      -1.925  16.292  25.526  0.00  0.00    +0.000 NA
ENDBRANCH   1  21
BRANCH  12  24
ATOM     24  C   UNL     1       2.206   6.812  19.878  0.00  0.00    +0.000 A 
ATOM     25  C   UNL     1       3.268   6.446  19.048  0.00  0.00    +0.000 A 
ATOM     26  C   UNL     1       3.698   5.121  18.968  0.00  0.00    +0.000 A 
ATOM     27  C   UNL     1       3.095   4.137  19.744  0.00  0.00    +0.000 A 
ATOM     28  C   UNL     1       2.015   4.483  20.553  0.00  0.00    +0.000 A 
ATOM     29  C   UNL     1       1.590   5.819  20.645  0.00  0.00    +0.000 A 
BRANCH  27  30
ATOM     30  O   UNL     1       3.597   2.886  19.569  0.00  0.00    +0.000 OA
BRANCH  30  31
ATOM     31  C   UNL     1       3.107   2.080  18.506  0.00  0.00    +0.000 C 
ATOM     32  F   UNL     1       3.293   2.597  17.274  0.00  0.00    +0.000 F 
ATOM     33  F   UNL     1       3.713   0.874  18.561  0.00  0.00    +0.000 F 
ATOM     34  F   UNL     1       1.780   1.892  18.679  0.00  0.00    +0.000 F 
ENDBRANCH  30  31
ENDBRANCH  27  30
ENDBRANCH  12  24
TORSDOF 4
ENDMDL
MODEL 7
REMARK VINA RESULT:      -7.3      3.475      4.343
REMARK  Name = 
REMARK  5 active torsions:
REMARK  status: ('A' for Active; 'I' for Inactive)
REMARK    1  A    between atoms: C_1  and  C_2
REMARK    2  A    between atoms: C_5  and  C_6
REMARK    3  A    between atoms: N_17  and  C_18
REMARK    4  A    between atoms: C_21  and  O_22
REMARK    5  A    between atoms: O_22  and  C_23
REMARK                            x       y       z     vdW  Elec       q    Type
REMARK                         _______ _______ _______ _____ _____    ______ ____
ROOT
ATOM      1  C   UNL     1      -3.999  13.210  22.407  0.00  0.00    +0.000 C 
ATOM      2  O   UNL     1      -4.985  12.474  22.316  0.00  0.00    +0.000 OA
ATOM      3  N   UNL     1      -2.767  12.868  21.839  0.00  0.00    +0.000 N 
ATOM      4  C   UNL     1      -2.718  11.742  20.916  0.00  0.00    +0.000 C 
ATOM      5  C   UNL     1      -2.008  12.151  19.624  0.00  0.00    +0.000 C 
ATOM      6  C   UNL     1      -0.611  12.762  19.891  0.00  0.00    +0.000 C 
ATOM      7  C   UNL     1       0.000  13.305  18.571  0.00  0.00    +0.000 C 
ATOM      8  C   UNL     1       1.274  12.510  18.347  0.00  0.00    +0.000 C 
ATOM      9  N   UNL     1       1.083  11.312  19.134  0.00  0.00    +0.000 N 
ATOM     10  C   UNL     1       1.702  10.157  18.747  0.00  0.00    +0.000 C 
ATOM     11  O   UNL     1       2.441  10.166  17.760  0.00  0.00    +0.000 OA
ATOM     12  N   UNL     1       1.419   9.031  19.487  0.00  0.00    +0.000 N 
ATOM     13  C   UNL     1       0.367  11.651  20.343  0.00  0.00    +0.000 C 
ATOM     14  C   UNL     1      -0.740  13.903  20.917  0.00  0.00    +0.000 C 
ATOM     15  C   UNL     1      -1.467  13.450  22.179  0.00  0.00    +0.000 C 
ATOM     16  H   UNL     1       0.590   9.061  20.059  0.00  0.00    +0.000 HD
ENDROOT
BRANCH   1  21
ATOM     17  C   UNL     1      -4.864  17.997  25.324  0.00  0.00    +0.000 C 
ATOM     18  C   UNL     1      -4.581  16.765  24.535  0.00  0.00    +0.000 A 
ATOM     19  C   UNL     1      -5.145  16.583  23.274  0.00  0.00    +0.000 A 
ATOM     20  N   UNL     1      -4.973  15.456  22.552  0.00  0.00    +0.000 NA
ATOM     21  C   UNL     1      -4.175  14.510  23.113  0.00  0.00    +0.000 A 
ATOM     22  C   UNL     1      -3.604  14.688  24.365  0.00  0.00    +0.000 A 
ATOM     23  N   UNL     1      -3.788  15.819  25.094  0.00  0.00    +0.000 NA
ENDBRANCH   1  21
BRANCH  12  24
ATOM     24  C   UNL     1       1.985   7.754  19.257  0.00  0.00    +0.000 A 
ATOM     25  C   UNL     1       2.582   7.399  18.046  0.00  0.00    +0.000 A 
ATOM     26  C   UNL     1       3.112   6.124  17.848  0.00  0.00    +0.000 A 
ATOM     27  C   UNL     1       3.085   5.183  18.872  0.00  0.00    +0.000 A 
ATOM     28  C   UNL     1       2.464   5.513  20.075  0.00  0.00    +0.000 A 
ATOM     29  C   UNL     1       1.943   6.802  20.280  0.00  0.00    +0.000 A 
BRANCH  27  30
ATOM     30  O   UNL     1       3.623   3.976  18.553  0.00  0.00    +0.000 OA
BRANCH  30  31
ATOM     31  C   UNL     1       2.793   2.970  17.988  0.00  0.00    +0.000 C 
ATOM     32  F   UNL     1       3.317   1.727  18.012  0.00  0.00    +0.000 F 
ATOM     33  F   UNL     1       1.619   2.953  18.654  0.00  0.00    +0.000 F 
ATOM     34  F   UNL     1       2.541   3.287  16.699  0.00  0.00    +0.000 F 
ENDBRANCH  30  31
ENDBRANCH  27  30
ENDBRANCH  12  24
TORSDOF 4
ENDMDL
MODEL 8
REMARK VINA RESULT:      -7.2      6.087      8.174
REMARK  Name = 
REMARK  5 active torsions:
REMARK  status: ('A' for Active; 'I' for Inactive)
REMARK    1  A    between atoms: C_1  and  C_2
REMARK    2  A    between atoms: C_5  and  C_6
REMARK    3  A    between atoms: N_17  and  C_18
REMARK    4  A    between atoms: C_21  and  O_22
REMARK    5  A    between atoms: O_22  and  C_23
REMARK                            x       y       z     vdW  Elec       q    Type
REMARK                         _______ _______ _______ _____ _____    ______ ____
ROOT
ATOM      1  C   UNL     1      -2.117  12.344  21.231  0.00  0.00    +0.000 C 
ATOM      2  O   UNL     1      -1.917  11.167  20.920  0.00  0.00    +0.000 OA
ATOM      3  N   UNL     1      -1.256  13.371  20.831  0.00  0.00    +0.000 N 
ATOM      4  C   UNL     1      -0.244  13.074  19.826  0.00  0.00    +0.000 C 
ATOM      5  C   UNL     1      -0.298  14.112  18.703  0.00  0.00    +0.000 C 
ATOM      6  C   UNL     1      -0.197  15.561  19.238  0.00  0.00    +0.000 C 
ATOM      7  C   UNL     1      -0.415  16.578  18.085  0.00  0.00    +0.000 C 
ATOM      8  C   UNL     1       0.871  17.376  17.988  0.00  0.00    +0.000 C 
ATOM      9  N   UNL     1       1.859  16.529  18.621  0.00  0.00    +0.000 N 
ATOM     10  C   UNL     1       3.164  16.623  18.228  0.00  0.00    +0.000 C 
ATOM     11  O   UNL     1       3.483  17.451  17.372  0.00  0.00    +0.000 OA
ATOM     12  N   UNL     1       4.044  15.736  18.807  0.00  0.00    +0.000 N 
ATOM     13  C   UNL     1       1.244  15.837  19.731  0.00  0.00    +0.000 C 
ATOM     14  C   UNL     1      -1.258  15.776  20.334  0.00  0.00    +0.000 C 
ATOM     15  C   UNL     1      -1.173  14.709  21.421  0.00  0.00    +0.000 C 
ATOM     16  H   UNL     1       3.644  14.921  19.245  0.00  0.00    +0.000 HD
ENDROOT
BRANCH   1  21
ATOM     17  C   UNL     1      -6.849  13.159  24.252  0.00  0.00    +0.000 C 
ATOM     18  C   UNL     1      -5.583  13.003  23.480  0.00  0.00    +0.000 A 
ATOM     19  C   UNL     1      -5.522  13.361  22.135  0.00  0.00    +0.000 A 
ATOM     20  N   UNL     1      -4.420  13.175  21.378  0.00  0.00    +0.000 NA
ATOM     21  C   UNL     1      -3.345  12.647  22.020  0.00  0.00    +0.000 A 
ATOM     22  C   UNL     1      -3.397  12.294  23.360  0.00  0.00    +0.000 A 
ATOM     23  N   UNL     1      -4.511  12.473  24.116  0.00  0.00    +0.000 NA
ENDBRANCH   1  21
BRANCH  12  24
ATOM     24  C   UNL     1       5.436  15.699  18.549  0.00  0.00    +0.000 A 
ATOM     25  C   UNL     1       6.312  16.694  18.988  0.00  0.00    +0.000 A 
ATOM     26  C   UNL     1       7.675  16.635  18.699  0.00  0.00    +0.000 A 
ATOM     27  C   UNL     1       8.198  15.559  17.989  0.00  0.00    +0.000 A 
ATOM     28  C   UNL     1       7.331  14.576  17.518  0.00  0.00    +0.000 A 
ATOM     29  C   UNL     1       5.960  14.628  17.821  0.00  0.00    +0.000 A 
BRANCH  27  30
ATOM     30  O   UNL     1       9.537  15.623  17.762  0.00  0.00    +0.000 OA
BRANCH  30  31
ATOM     31  C   UNL     1      10.362  14.530  18.145  0.00  0.00    +0.000 C 
ATOM     32  F   UNL     1      10.401  13.515  17.256  0.00  0.00    +0.000 F 
ATOM     33  F   UNL     1      11.620  14.982  18.335  0.00  0.00    +0.000 F 
ATOM     34  F   UNL     1       9.911  14.034  19.318  0.00  0.00    +0.000 F 
ENDBRANCH  30  31
ENDBRANCH  27  30
ENDBRANCH  12  24
TORSDOF 4
ENDMDL
MODEL 9
REMARK VINA RESULT:      -7.2      0.657      1.267
REMARK  Name = 
REMARK  5 active torsions:
REMARK  status: ('A' for Active; 'I' for Inactive)
REMARK    1  A    between atoms: C_1  and  C_2
REMARK    2  A    between atoms: C_5  and  C_6
REMARK    3  A    between atoms: N_17  and  C_18
REMARK    4  A    between atoms: C_21  and  O_22
REMARK    5  A    between atoms: O_22  and  C_23
REMARK                            x       y       z     vdW  Elec       q    Type
REMARK                         _______ _______ _______ _____ _____    ______ ____
ROOT
ATOM      1  C   UNL     1       0.432  15.217  19.992  0.00  0.00    +0.000 C 
ATOM      2  O   UNL     1       1.523  15.780  19.877  0.00  0.00    +0.000 OA
ATOM      3  N   UNL     1       0.319  13.823  20.017  0.00  0.00    +0.000 N 
ATOM      4  C   UNL     1       1.534  13.032  20.156  0.00  0.00    +0.000 C 
ATOM      5  C   UNL     1       1.370  12.011  21.284  0.00  0.00    +0.000 C 
ATOM      6  C   UNL     1       0.107  11.135  21.104  0.00  0.00    +0.000 C 
ATOM      7  C   UNL     1      -0.101  10.228  22.347  0.00  0.00    +0.000 C 
ATOM      8  C   UNL     1      -0.015   8.802  21.838  0.00  0.00    +0.000 C 
ATOM      9  N   UNL     1       0.707   8.916  20.591  0.00  0.00    +0.000 N 
ATOM     10  C   UNL     1       1.457   7.859  20.158  0.00  0.00    +0.000 C 
ATOM     11  O   UNL     1       1.474   6.816  20.816  0.00  0.00    +0.000 OA
ATOM     12  N   UNL     1       2.187   8.055  19.007  0.00  0.00    +0.000 N 
ATOM     13  C   UNL     1       0.322  10.145  19.933  0.00  0.00    +0.000 C 
ATOM     14  C   UNL     1      -1.120  12.042  20.905  0.00  0.00    +0.000 C 
ATOM     15  C   UNL     1      -0.903  13.050  19.781  0.00  0.00    +0.000 C 
ATOM     16  H   UNL     1       2.346   9.011  18.727  0.00  0.00    +0.000 HD
ENDROOT
BRANCH   1  21
ATOM     17  C   UNL     1      -4.347  18.221  20.559  0.00  0.00    +0.000 C 
ATOM     18  C   UNL     1      -3.059  17.478  20.443  0.00  0.00    +0.000 A 
ATOM     19  C   UNL     1      -2.264  17.606  19.307  0.00  0.00    +0.000 A 
ATOM     20  N   UNL     1      -1.126  16.903  19.128  0.00  0.00    +0.000 NA
ATOM     21  C   UNL     1      -0.773  16.080  20.150  0.00  0.00    +0.000 A 
ATOM     22  C   UNL     1      -1.556  15.954  21.288  0.00  0.00    +0.000 A 
ATOM     23  N   UNL     1      -2.707  16.655  21.460  0.00  0.00    +0.000 NA
ENDBRANCH   1  21
BRANCH  12  24
ATOM     24  C   UNL     1       2.998   7.072  18.391  0.00  0.00    +0.000 A 
ATOM     25  C   UNL     1       4.337   7.295  18.060  0.00  0.00    +0.000 A 
ATOM     26  C   UNL     1       5.100   6.309  17.435  0.00  0.00    +0.000 A 
ATOM     27  C   UNL     1       4.549   5.063  17.156  0.00  0.00    +0.000 A 
ATOM     28  C   UNL     1       3.206   4.838  17.451  0.00  0.00    +0.000 A 
ATOM     29  C   UNL     1       2.440   5.826  18.093  0.00  0.00    +0.000 A 
BRANCH  27  30
ATOM     30  O   UNL     1       5.390   4.193  16.537  0.00  0.00    +0.000 OA
BRANCH  30  31
ATOM     31  C   UNL     1       5.945   4.537  15.274  0.00  0.00    +0.000 C 
ATOM     32  F   UNL     1       7.143   5.156  15.333  0.00  0.00    +0.000 F 
ATOM     33  F   UNL     1       6.080   3.412  14.539  0.00  0.00    +0.000 F 
ATOM     34  F   UNL     1       5.087   5.359  14.631  0.00  0.00    +0.000 F 
ENDBRANCH  30  31
ENDBRANCH  27  30
ENDBRANCH  12  24
TORSDOF 4
ENDMDL
