MODEL 1
REMARK VINA RESULT:      -9.0      0.000      0.000
REMARK  Name = 
REMARK  6 active torsions:
REMARK  status: ('A' for Active; 'I' for Inactive)
REMARK    1  A    between atoms: C_1  and  C_2
REMARK    2  A    between atoms: C_2  and  C_3
REMARK    3  A    between atoms: C_3  and  C_4
REMARK    4  A    between atoms: C_4  and  N_5
REMARK    5  A    between atoms: C_12  and  S_13
REMARK    6  A    between atoms: S_13  and  C_16
REMARK                            x       y       z     vdW  Elec       q    Type
REMARK                         _______ _______ _______ _____ _____    ______ ____
ROOT
ATOM      1  N   UNL     1       4.108   5.544  18.359  0.00  0.00    +0.000 NA
ATOM      2  C   UNL     1       4.068   6.978  17.976  0.00  0.00    +0.000 C 
ATOM      3  C   UNL     1       2.685   7.658  18.125  0.00  0.00    +0.000 C 
ATOM      4  N   UNL     1       2.196   7.449  19.486  0.00  0.00    +0.000 N 
ATOM      5  C   UNL     1       1.393   8.363  20.052  0.00  0.00    +0.000 A 
ATOM      6  N   UNL     1       0.857   9.447  19.531  0.00  0.00    +0.000 NA
ATOM      7  C   UNL     1       0.235  10.056  20.592  0.00  0.00    +0.000 A 
ATOM      8  C   UNL     1      -0.502  11.236  20.714  0.00  0.00    +0.000 A 
ATOM      9  C   UNL     1      -0.988  11.609  21.984  0.00  0.00    +0.000 A 
ATOM     10  C   UNL     1      -0.765  10.800  23.105  0.00  0.00    +0.000 A 
ATOM     11  C   UNL     1      -0.049   9.608  23.003  0.00  0.00    +0.000 A 
ATOM     12  C   UNL     1       0.423   9.295  21.733  0.00  0.00    +0.000 A 
ATOM     13  O   UNL     1       1.144   8.200  21.388  0.00  0.00    +0.000 OA
ATOM     14  C   UNL     1       2.188   6.067  19.962  0.00  0.00    +0.000 C 
ATOM     15  C   UNL     1       3.574   5.420  19.739  0.00  0.00    +0.000 C 
ENDROOT
BRANCH   8  16
ATOM     16  S   UNL     1      -0.843  12.238  19.305  0.00  0.00    +0.000 S 
ATOM     17  O   UNL     1      -1.420  13.482  19.791  0.00  0.00    +0.000 OA
ATOM     18  O   UNL     1       0.386  12.290  18.528  0.00  0.00    +0.000 OA
BRANCH  16  19
ATOM     19  C   UNL     1      -2.113  11.451  18.323  0.00  0.00    +0.000 A 
ATOM     20  C   UNL     1      -1.687  10.717  17.205  0.00  0.00    +0.000 A 
ATOM     21  C   UNL     1      -2.622  10.174  16.332  0.00  0.00    +0.000 A 
ATOM     22  C   UNL     1      -3.980  10.363  16.570  0.00  0.00    +0.000 A 
ATOM     23  C   UNL     1      -4.430  11.073  17.695  0.00  0.00    +0.000 A 
ATOM     24  C   UNL     1      -5.812  11.231  17.898  0.00  0.00    +0.000 A 
ATOM     25  C   UNL     1      -6.304  11.914  19.008  0.00  0.00    +0.000 A 
ATOM     26  C   UNL     1      -5.418  12.459  19.922  0.00  0.00    +0.000 A 
ATOM     27  C   UNL     1      -4.041  12.332  19.719  0.00  0.00    +0.000 A 
ATOM     28  C   UNL     1      -3.499  11.633  18.608  0.00  0.00    +0.000 A 
ENDBRANCH  16  19
ENDBRANCH   8  16
BRANCH   1  29
ATOM     29  C   UNL     1       3.366   4.671  17.437  0.00  0.00    +0.000 C 
BRANCH  29  30
ATOM     30  C   UNL     1       3.785   3.197  17.482  0.00  0.00    +0.000 C 
BRANCH  30  32
ATOM     31  C   UNL     1       1.511   2.739  18.453  0.00  0.00    +0.000 C 
ATOM     32  C   UNL     1       2.593   2.241  17.510  0.00  0.00    +0.000 C 
ENDBRANCH  30  32
ENDBRANCH  29  30
ENDBRANCH   1  29
TORSDOF 5
ENDMDL
MODEL 2
REMARK VINA RESULT:      -8.8      0.800      1.279
REMARK  Name = 
REMARK  6 active torsions:
REMARK  status: ('A' for Active; 'I' for Inactive)
REMARK    1  A    between atoms: C_1  and  C_2
REMARK    2  A    between atoms: C_2  and  C_3
REMARK    3  A    between atoms: C_3  and  C_4
REMARK    4  A    between atoms: C_4  and  N_5
REMARK    5  A    between atoms: C_12  and  S_13
REMARK    6  A    between atoms: S_13  and  C_16
REMARK                            x       y       z     vdW  Elec       q    Type
REMARK                         _______ _______ _______ _____ _____    ______ ____
ROOT
ATOM      1  N   UNL     1       4.199   5.428  18.383  0.00  0.00    +0.000 NA
ATOM      2  C   UNL     1       4.165   6.868  18.021  0.00  0.00    +0.000 C 
ATOM      3  C   UNL     1       2.780   7.545  18.164  0.00  0.00    +0.000 C 
ATOM      4  N   UNL     1       2.276   7.317  19.515  0.00  0.00    +0.000 N 
ATOM      5  C   UNL     1       1.466   8.223  20.087  0.00  0.00    +0.000 A 
ATOM      6  N   UNL     1       0.937   9.315  19.575  0.00  0.00    +0.000 NA
ATOM      7  C   UNL     1       0.302   9.909  20.638  0.00  0.00    +0.000 A 
ATOM      8  C   UNL     1      -0.435  11.087  20.768  0.00  0.00    +0.000 A 
ATOM      9  C   UNL     1      -0.936  11.441  22.038  0.00  0.00    +0.000 A 
ATOM     10  C   UNL     1      -0.726  10.616  23.150  0.00  0.00    +0.000 A 
ATOM     11  C   UNL     1      -0.010   9.425  23.038  0.00  0.00    +0.000 A 
ATOM     12  C   UNL     1       0.477   9.130  21.769  0.00  0.00    +0.000 A 
ATOM     13  O   UNL     1       1.202   8.040  21.416  0.00  0.00    +0.000 OA
ATOM     14  C   UNL     1       2.261   5.928  19.971  0.00  0.00    +0.000 C 
ATOM     15  C   UNL     1       3.649   5.284  19.754  0.00  0.00    +0.000 C 
ENDROOT
BRANCH   8  16
ATOM     16  S   UNL     1      -0.759  12.110  19.371  0.00  0.00    +0.000 S 
ATOM     17  O   UNL     1      -1.330  13.351  19.870  0.00  0.00    +0.000 OA
ATOM     18  O   UNL     1       0.476  12.163  18.603  0.00  0.00    +0.000 OA
BRANCH  16  19
ATOM     19  C   UNL     1      -2.028  11.345  18.370  0.00  0.00    +0.000 A 
ATOM     20  C   UNL     1      -1.597  10.555  17.294  0.00  0.00    +0.000 A 
ATOM     21  C   UNL     1      -2.524  10.024  16.406  0.00  0.00    +0.000 A 
ATOM     22  C   UNL     1      -3.880  10.281  16.588  0.00  0.00    +0.000 A 
ATOM     23  C   UNL     1      -4.336  11.049  17.671  0.00  0.00    +0.000 A 
ATOM     24  C   UNL     1      -5.716  11.274  17.819  0.00  0.00    +0.000 A 
ATOM     25  C   UNL     1      -6.215  12.016  18.886  0.00  0.00    +0.000 A 
ATOM     26  C   UNL     1      -5.338  12.554  19.813  0.00  0.00    +0.000 A 
ATOM     27  C   UNL     1      -3.962  12.359  19.665  0.00  0.00    +0.000 A 
ATOM     28  C   UNL     1      -3.414  11.599  18.598  0.00  0.00    +0.000 A 
ENDBRANCH  16  19
ENDBRANCH   8  16
BRANCH   1  29
ATOM     29  C   UNL     1       3.468   4.569  17.440  0.00  0.00    +0.000 C 
BRANCH  29  30
ATOM     30  C   UNL     1       4.355   3.624  16.622  0.00  0.00    +0.000 C 
BRANCH  30  32
ATOM     31  C   UNL     1       5.849   4.758  14.946  0.00  0.00    +0.000 C 
ATOM     32  C   UNL     1       5.747   4.197  16.354  0.00  0.00    +0.000 C 
ENDBRANCH  30  32
ENDBRANCH  29  30
ENDBRANCH   1  29
TORSDOF 5
ENDMDL
MODEL 3
REMARK VINA RESULT:      -8.3      0.653      1.924
REMARK  Name = 
REMARK  6 active torsions:
REMARK  status: ('A' for Active; 'I' for Inactive)
REMARK    1  A    between atoms: C_1  and  C_2
REMARK    2  A    between atoms: C_2  and  C_3
REMARK    3  A    between atoms: C_3  and  C_4
REMARK    4  A    between atoms: C_4  and  N_5
REMARK    5  A    between atoms: C_12  and  S_13
REMARK    6  A    between atoms: S_13  and  C_16
REMARK                            x       y       z     vdW  Elec       q    Type
REMARK                         _______ _______ _______ _____ _____    ______ ____
ROOT
ATOM      1  N   UNL     1       4.240   5.413  18.330  0.00  0.00    +0.000 NA
ATOM      2  C   UNL     1       4.253   6.871  18.053  0.00  0.00    +0.000 C 
ATOM      3  C   UNL     1       2.884   7.579  18.204  0.00  0.00    +0.000 C 
ATOM      4  N   UNL     1       2.340   7.285  19.528  0.00  0.00    +0.000 N 
ATOM      5  C   UNL     1       1.541   8.179  20.132  0.00  0.00    +0.000 A 
ATOM      6  N   UNL     1       1.054   9.314  19.675  0.00  0.00    +0.000 NA
ATOM      7  C   UNL     1       0.410   9.862  20.756  0.00  0.00    +0.000 A 
ATOM      8  C   UNL     1      -0.299  11.050  20.939  0.00  0.00    +0.000 A 
ATOM      9  C   UNL     1      -0.821  11.343  22.215  0.00  0.00    +0.000 A 
ATOM     10  C   UNL     1      -0.662  10.449  23.281  0.00  0.00    +0.000 A 
ATOM     11  C   UNL     1       0.025   9.246  23.115  0.00  0.00    +0.000 A 
ATOM     12  C   UNL     1       0.535   9.013  21.843  0.00  0.00    +0.000 A 
ATOM     13  O   UNL     1       1.238   7.926  21.442  0.00  0.00    +0.000 OA
ATOM     14  C   UNL     1       2.276   5.873  19.899  0.00  0.00    +0.000 C 
ATOM     15  C   UNL     1       3.652   5.203  19.677  0.00  0.00    +0.000 C 
ENDROOT
BRANCH   8  16
ATOM     16  S   UNL     1      -0.559  12.163  19.598  0.00  0.00    +0.000 S 
ATOM     17  O   UNL     1      -0.217  13.495  20.071  0.00  0.00    +0.000 OA
ATOM     18  O   UNL     1       0.163  11.615  18.460  0.00  0.00    +0.000 OA
BRANCH  16  19
ATOM     19  C   UNL     1      -2.304  12.206  19.207  0.00  0.00    +0.000 A 
ATOM     20  C   UNL     1      -3.160  12.736  20.184  0.00  0.00    +0.000 A 
ATOM     21  C   UNL     1      -4.537  12.697  19.998  0.00  0.00    +0.000 A 
ATOM     22  C   UNL     1      -5.060  12.130  18.840  0.00  0.00    +0.000 A 
ATOM     23  C   UNL     1      -4.223  11.616  17.838  0.00  0.00    +0.000 A 
ATOM     24  C   UNL     1      -4.798  11.061  16.682  0.00  0.00    +0.000 A 
ATOM     25  C   UNL     1      -4.006  10.554  15.655  0.00  0.00    +0.000 A 
ATOM     26  C   UNL     1      -2.627  10.584  15.777  0.00  0.00    +0.000 A 
ATOM     27  C   UNL     1      -2.042  11.109  16.932  0.00  0.00    +0.000 A 
ATOM     28  C   UNL     1      -2.813  11.647  17.996  0.00  0.00    +0.000 A 
ENDBRANCH  16  19
ENDBRANCH   8  16
BRANCH   1  29
ATOM     29  C   UNL     1       3.509   4.632  17.320  0.00  0.00    +0.000 C 
BRANCH  29  30
ATOM     30  C   UNL     1       3.520   3.117  17.558  0.00  0.00    +0.000 C 
BRANCH  30  32
ATOM     31  C   UNL     1       1.932   2.000  19.156  0.00  0.00    +0.000 C 
ATOM     32  C   UNL     1       2.119   2.535  17.747  0.00  0.00    +0.000 C 
ENDBRANCH  30  32
ENDBRANCH  29  30
ENDBRANCH   1  29
TORSDOF 5
ENDMDL
MODEL 4
REMARK VINA RESULT:      -8.1      4.100      9.617
REMARK  Name = 
REMARK  6 active torsions:
REMARK  status: ('A' for Active; 'I' for Inactive)
REMARK    1  A    between atoms: C_1  and  C_2
REMARK    2  A    between atoms: C_2  and  C_3
REMARK    3  A    between atoms: C_3  and  C_4
REMARK    4  A    between atoms: C_4  and  N_5
REMARK    5  A    between atoms: C_12  and  S_13
REMARK    6  A    between atoms: S_13  and  C_16
REMARK                            x       y       z     vdW  Elec       q    Type
REMARK                         _______ _______ _______ _____ _____    ______ ____
ROOT
ATOM      1  N   UNL     1       0.565  10.790  19.071  0.00  0.00    +0.000 NA
ATOM      2  C   UNL     1       0.513   9.737  18.026  0.00  0.00    +0.000 C 
ATOM      3  C   UNL     1       1.602   8.643  18.143  0.00  0.00    +0.000 C 
ATOM      4  N   UNL     1       1.560   8.072  19.487  0.00  0.00    +0.000 N 
ATOM      5  C   UNL     1       1.925   6.794  19.679  0.00  0.00    +0.000 A 
ATOM      6  N   UNL     1       2.433   5.930  18.826  0.00  0.00    +0.000 NA
ATOM      7  C   UNL     1       2.494   4.756  19.535  0.00  0.00    +0.000 A 
ATOM      8  C   UNL     1       2.924   3.469  19.209  0.00  0.00    +0.000 A 
ATOM      9  C   UNL     1       2.819   2.449  20.177  0.00  0.00    +0.000 A 
ATOM     10  C   UNL     1       2.320   2.720  21.457  0.00  0.00    +0.000 A 
ATOM     11  C   UNL     1       1.904   4.003  21.811  0.00  0.00    +0.000 A 
ATOM     12  C   UNL     1       2.011   4.968  20.815  0.00  0.00    +0.000 A 
ATOM     13  O   UNL     1       1.667   6.275  20.918  0.00  0.00    +0.000 OA
ATOM     14  C   UNL     1       1.613   9.026  20.594  0.00  0.00    +0.000 C 
ATOM     15  C   UNL     1       0.544  10.125  20.398  0.00  0.00    +0.000 C 
ENDROOT
BRANCH   8  16
ATOM     16  S   UNL     1       3.607   3.119  17.624  0.00  0.00    +0.000 S 
ATOM     17  O   UNL     1       3.975   1.711  17.615  0.00  0.00    +0.000 OA
ATOM     18  O   UNL     1       2.646   3.600  16.643  0.00  0.00    +0.000 OA
BRANCH  16  19
ATOM     19  C   UNL     1       5.133   4.032  17.432  0.00  0.00    +0.000 A 
ATOM     20  C   UNL     1       5.664   4.629  18.585  0.00  0.00    +0.000 A 
ATOM     21  C   UNL     1       6.782   5.449  18.492  0.00  0.00    +0.000 A 
ATOM     22  C   UNL     1       7.370   5.675  17.250  0.00  0.00    +0.000 A 
ATOM     23  C   UNL     1       6.870   5.070  16.086  0.00  0.00    +0.000 A 
ATOM     24  C   UNL     1       7.503   5.322  14.857  0.00  0.00    +0.000 A 
ATOM     25  C   UNL     1       7.051   4.732  13.679  0.00  0.00    +0.000 A 
ATOM     26  C   UNL     1       5.952   3.890  13.716  0.00  0.00    +0.000 A 
ATOM     27  C   UNL     1       5.298   3.651  14.927  0.00  0.00    +0.000 A 
ATOM     28  C   UNL     1       5.734   4.223  16.151  0.00  0.00    +0.000 A 
ENDBRANCH  16  19
ENDBRANCH   8  16
BRANCH   1  29
ATOM     29  C   UNL     1       1.735  11.673  18.955  0.00  0.00    +0.000 C 
BRANCH  29  30
ATOM     30  C   UNL     1       1.762  12.829  19.961  0.00  0.00    +0.000 C 
BRANCH  30  32
ATOM     31  C   UNL     1       3.057  14.156  18.262  0.00  0.00    +0.000 C 
ATOM     32  C   UNL     1       1.944  14.193  19.295  0.00  0.00    +0.000 C 
ENDBRANCH  30  32
ENDBRANCH  29  30
ENDBRANCH   1  29
TORSDOF 5
ENDMDL
MODEL 5
REMARK VINA RESULT:      -8.1      2.721      3.751
REMARK  Name = 
REMARK  6 active torsions:
REMARK  status: ('A' for Active; 'I' for Inactive)
REMARK    1  A    between atoms: C_1  and  C_2
REMARK    2  A    between atoms: C_2  and  C_3
REMARK    3  A    between atoms: C_3  and  C_4
REMARK    4  A    between atoms: C_4  and  N_5
REMARK    5  A    between atoms: C_12  and  S_13
REMARK    6  A    between atoms: S_13  and  C_16
REMARK                            x       y       z     vdW  Elec       q    Type
REMARK                         _______ _______ _______ _____ _____    ______ ____
ROOT
ATOM      1  N   UNL     1       4.427   5.507  18.180  0.00  0.00    +0.000 NA
ATOM      2  C   UNL     1       4.304   6.938  17.801  0.00  0.00    +0.000 C 
ATOM      3  C   UNL     1       2.890   7.543  17.979  0.00  0.00    +0.000 C 
ATOM      4  N   UNL     1       2.439   7.307  19.348  0.00  0.00    +0.000 N 
ATOM      5  C   UNL     1       1.600   8.176  19.932  0.00  0.00    +0.000 A 
ATOM      6  N   UNL     1       0.998   9.231  19.424  0.00  0.00    +0.000 NA
ATOM      7  C   UNL     1       0.364   9.805  20.498  0.00  0.00    +0.000 A 
ATOM      8  C   UNL     1      -0.431  10.944  20.636  0.00  0.00    +0.000 A 
ATOM      9  C   UNL     1      -0.912  11.289  21.916  0.00  0.00    +0.000 A 
ATOM     10  C   UNL     1      -0.625  10.492  23.032  0.00  0.00    +0.000 A 
ATOM     11  C   UNL     1       0.151   9.339  22.912  0.00  0.00    +0.000 A 
ATOM     12  C   UNL     1       0.614   9.053  21.633  0.00  0.00    +0.000 A 
ATOM     13  O   UNL     1       1.385   7.998  21.271  0.00  0.00    +0.000 OA
ATOM     14  C   UNL     1       2.513   5.925  19.821  0.00  0.00    +0.000 C 
ATOM     15  C   UNL     1       3.927   5.353  19.570  0.00  0.00    +0.000 C 
ENDROOT
BRANCH   8  16
ATOM     16  S   UNL     1      -0.851  11.929  19.237  0.00  0.00    +0.000 S 
ATOM     17  O   UNL     1      -0.990  11.028  18.103  0.00  0.00    +0.000 OA
ATOM     18  O   UNL     1      -1.990  12.744  19.632  0.00  0.00    +0.000 OA
BRANCH  16  19
ATOM     19  C   UNL     1       0.523  13.007  18.849  0.00  0.00    +0.000 A 
ATOM     20  C   UNL     1       1.710  12.393  18.424  0.00  0.00    +0.000 A 
ATOM     21  C   UNL     1       2.852  13.157  18.215  0.00  0.00    +0.000 A 
ATOM     22  C   UNL     1       2.812  14.532  18.432  0.00  0.00    +0.000 A 
ATOM     23  C   UNL     1       1.628  15.171  18.835  0.00  0.00    +0.000 A 
ATOM     24  C   UNL     1       1.634  16.562  19.033  0.00  0.00    +0.000 A 
ATOM     25  C   UNL     1       0.480  17.240  19.417  0.00  0.00    +0.000 A 
ATOM     26  C   UNL     1      -0.693  16.532  19.621  0.00  0.00    +0.000 A 
ATOM     27  C   UNL     1      -0.706  15.145  19.452  0.00  0.00    +0.000 A 
ATOM     28  C   UNL     1       0.445  14.418  19.049  0.00  0.00    +0.000 A 
ENDBRANCH  16  19
ENDBRANCH   8  16
BRANCH   1  29
ATOM     29  C   UNL     1       3.714   4.598  17.271  0.00  0.00    +0.000 C 
BRANCH  29  30
ATOM     30  C   UNL     1       3.750   3.123  17.690  0.00  0.00    +0.000 C 
BRANCH  30  32
ATOM     31  C   UNL     1       1.961   2.052  19.096  0.00  0.00    +0.000 C 
ATOM     32  C   UNL     1       2.366   2.473  17.694  0.00  0.00    +0.000 C 
ENDBRANCH  30  32
ENDBRANCH  29  30
ENDBRANCH   1  29
TORSDOF 5
ENDMDL
MODEL 6
REMARK VINA RESULT:      -8.1      2.622      4.085
REMARK  Name = 
REMARK  6 active torsions:
REMARK  status: ('A' for Active; 'I' for Inactive)
REMARK    1  A    between atoms: C_1  and  C_2
REMARK    2  A    between atoms: C_2  and  C_3
REMARK    3  A    between atoms: C_3  and  C_4
REMARK    4  A    between atoms: C_4  and  N_5
REMARK    5  A    between atoms: C_12  and  S_13
REMARK    6  A    between atoms: S_13  and  C_16
REMARK                            x       y       z     vdW  Elec       q    Type
REMARK                         _______ _______ _______ _____ _____    ______ ____
ROOT
ATOM      1  N   UNL     1       4.219   5.596  18.216  0.00  0.00    +0.000 NA
ATOM      2  C   UNL     1       4.026   7.009  17.801  0.00  0.00    +0.000 C 
ATOM      3  C   UNL     1       2.605   7.575  18.044  0.00  0.00    +0.000 C 
ATOM      4  N   UNL     1       2.245   7.370  19.445  0.00  0.00    +0.000 N 
ATOM      5  C   UNL     1       1.412   8.231  20.051  0.00  0.00    +0.000 A 
ATOM      6  N   UNL     1       0.747   9.250  19.548  0.00  0.00    +0.000 NA
ATOM      7  C   UNL     1       0.159   9.838  20.640  0.00  0.00    +0.000 A 
ATOM      8  C   UNL     1      -0.664  10.955  20.791  0.00  0.00    +0.000 A 
ATOM      9  C   UNL     1      -1.079  11.327  22.086  0.00  0.00    +0.000 A 
ATOM     10  C   UNL     1      -0.701  10.577  23.206  0.00  0.00    +0.000 A 
ATOM     11  C   UNL     1       0.105   9.446  23.076  0.00  0.00    +0.000 A 
ATOM     12  C   UNL     1       0.501   9.133  21.781  0.00  0.00    +0.000 A 
ATOM     13  O   UNL     1       1.284   8.091  21.406  0.00  0.00    +0.000 OA
ATOM     14  C   UNL     1       2.392   6.008  19.955  0.00  0.00    +0.000 C 
ATOM     15  C   UNL     1       3.807   5.473  19.637  0.00  0.00    +0.000 C 
ENDROOT
BRANCH   8  16
ATOM     16  S   UNL     1      -1.199  11.880  19.389  0.00  0.00    +0.000 S 
ATOM     17  O   UNL     1      -0.603  11.263  18.214  0.00  0.00    +0.000 OA
ATOM     18  O   UNL     1      -2.649  11.965  19.479  0.00  0.00    +0.000 OA
BRANCH  16  19
ATOM     19  C   UNL     1      -0.517  13.530  19.485  0.00  0.00    +0.000 A 
ATOM     20  C   UNL     1      -1.374  14.545  19.937  0.00  0.00    +0.000 A 
ATOM     21  C   UNL     1      -0.949  15.869  19.928  0.00  0.00    +0.000 A 
ATOM     22  C   UNL     1       0.327  16.181  19.468  0.00  0.00    +0.000 A 
ATOM     23  C   UNL     1       1.210  15.180  19.034  0.00  0.00    +0.000 A 
ATOM     24  C   UNL     1       2.492  15.543  18.586  0.00  0.00    +0.000 A 
ATOM     25  C   UNL     1       3.406  14.583  18.161  0.00  0.00    +0.000 A 
ATOM     26  C   UNL     1       3.044  13.246  18.166  0.00  0.00    +0.000 A 
ATOM     27  C   UNL     1       1.764  12.873  18.584  0.00  0.00    +0.000 A 
ATOM     28  C   UNL     1       0.807  13.819  19.037  0.00  0.00    +0.000 A 
ENDBRANCH  16  19
ENDBRANCH   8  16
BRANCH   1  29
ATOM     29  C   UNL     1       3.484   4.635  17.380  0.00  0.00    +0.000 C 
BRANCH  29  30
ATOM     30  C   UNL     1       3.710   3.166  17.753  0.00  0.00    +0.000 C 
BRANCH  30  32
ATOM     31  C   UNL     1       1.639   2.347  18.921  0.00  0.00    +0.000 C 
ATOM     32  C   UNL     1       2.443   2.320  17.632  0.00  0.00    +0.000 C 
ENDBRANCH  30  32
ENDBRANCH  29  30
ENDBRANCH   1  29
TORSDOF 5
ENDMDL
MODEL 7
REMARK VINA RESULT:      -7.9      2.855      3.990
REMARK  Name = 
REMARK  6 active torsions:
REMARK  status: ('A' for Active; 'I' for Inactive)
REMARK    1  A    between atoms: C_1  and  C_2
REMARK    2  A    between atoms: C_2  and  C_3
REMARK    3  A    between atoms: C_3  and  C_4
REMARK    4  A    between atoms: C_4  and  N_5
REMARK    5  A    between atoms: C_12  and  S_13
REMARK    6  A    between atoms: S_13  and  C_16
REMARK                            x       y       z     vdW  Elec       q    Type
REMARK                         _______ _______ _______ _____ _____    ______ ____
ROOT
ATOM      1  N   UNL     1       4.587   5.587  18.078  0.00  0.00    +0.000 NA
ATOM      2  C   UNL     1       4.435   7.018  17.711  0.00  0.00    +0.000 C 
ATOM      3  C   UNL     1       3.010   7.594  17.897  0.00  0.00    +0.000 C 
ATOM      4  N   UNL     1       2.569   7.338  19.266  0.00  0.00    +0.000 N 
ATOM      5  C   UNL     1       1.714   8.186  19.860  0.00  0.00    +0.000 A 
ATOM      6  N   UNL     1       1.090   9.233  19.363  0.00  0.00    +0.000 NA
ATOM      7  C   UNL     1       0.450   9.786  20.444  0.00  0.00    +0.000 A 
ATOM      8  C   UNL     1      -0.367  10.908  20.594  0.00  0.00    +0.000 A 
ATOM      9  C   UNL     1      -0.850  11.233  21.878  0.00  0.00    +0.000 A 
ATOM     10  C   UNL     1      -0.545  10.432  22.986  0.00  0.00    +0.000 A 
ATOM     11  C   UNL     1       0.253   9.296  22.855  0.00  0.00    +0.000 A 
ATOM     12  C   UNL     1       0.718   9.030  21.572  0.00  0.00    +0.000 A 
ATOM     13  O   UNL     1       1.508   7.993  21.199  0.00  0.00    +0.000 OA
ATOM     14  C   UNL     1       2.671   5.954  19.727  0.00  0.00    +0.000 C 
ATOM     15  C   UNL     1       4.094   5.412  19.467  0.00  0.00    +0.000 C 
ENDROOT
BRANCH   8  16
ATOM     16  S   UNL     1      -0.811  11.896  19.204  0.00  0.00    +0.000 S 
ATOM     17  O   UNL     1      -0.904  11.007  18.056  0.00  0.00    +0.000 OA
ATOM     18  O   UNL     1      -1.984  12.661  19.598  0.00  0.00    +0.000 OA
BRANCH  16  19
ATOM     19  C   UNL     1       0.524  13.031  18.846  0.00  0.00    +0.000 A 
ATOM     20  C   UNL     1       1.733  12.471  18.406  0.00  0.00    +0.000 A 
ATOM     21  C   UNL     1       2.847  13.280  18.219  0.00  0.00    +0.000 A 
ATOM     22  C   UNL     1       2.757  14.646  18.471  0.00  0.00    +0.000 A 
ATOM     23  C   UNL     1       1.552  15.233  18.889  0.00  0.00    +0.000 A 
ATOM     24  C   UNL     1       1.509  16.618  19.122  0.00  0.00    +0.000 A 
ATOM     25  C   UNL     1       0.331  17.245  19.522  0.00  0.00    +0.000 A 
ATOM     26  C   UNL     1      -0.816  16.490  19.706  0.00  0.00    +0.000 A 
ATOM     27  C   UNL     1      -0.780  15.109  19.502  0.00  0.00    +0.000 A 
ATOM     28  C   UNL     1       0.396  14.433  19.082  0.00  0.00    +0.000 A 
ENDBRANCH  16  19
ENDBRANCH   8  16
BRANCH   1  29
ATOM     29  C   UNL     1       3.889   4.671  17.163  0.00  0.00    +0.000 C 
BRANCH  29  30
ATOM     30  C   UNL     1       4.811   3.721  16.390  0.00  0.00    +0.000 C 
BRANCH  30  32
ATOM     31  C   UNL     1       6.888   4.789  15.457  0.00  0.00    +0.000 C 
ATOM     32  C   UNL     1       5.454   4.379  15.169  0.00  0.00    +0.000 C 
ENDBRANCH  30  32
ENDBRANCH  29  30
ENDBRANCH   1  29
TORSDOF 5
ENDMDL
MODEL 8
REMARK VINA RESULT:      -7.8      2.722      4.312
REMARK  Name = 
REMARK  6 active torsions:
REMARK  status: ('A' for Active; 'I' for Inactive)
REMARK    1  A    between atoms: C_1  and  C_2
REMARK    2  A    between atoms: C_2  and  C_3
REMARK    3  A    between atoms: C_3  and  C_4
REMARK    4  A    between atoms: C_4  and  N_5
REMARK    5  A    between atoms: C_12  and  S_13
REMARK    6  A    between atoms: S_13  and  C_16
REMARK                            x       y       z     vdW  Elec       q    Type
REMARK                         _______ _______ _______ _____ _____    ______ ____
ROOT
ATOM      1  N   UNL     1       4.244   5.672  18.268  0.00  0.00    +0.000 NA
ATOM      2  C   UNL     1       4.058   7.088  17.860  0.00  0.00    +0.000 C 
ATOM      3  C   UNL     1       2.632   7.649  18.078  0.00  0.00    +0.000 C 
ATOM      4  N   UNL     1       2.243   7.433  19.469  0.00  0.00    +0.000 N 
ATOM      5  C   UNL     1       1.396   8.289  20.065  0.00  0.00    +0.000 A 
ATOM      6  N   UNL     1       0.739   9.310  19.555  0.00  0.00    +0.000 NA
ATOM      7  C   UNL     1       0.129   9.889  20.640  0.00  0.00    +0.000 A 
ATOM      8  C   UNL     1      -0.699  11.004  20.782  0.00  0.00    +0.000 A 
ATOM      9  C   UNL     1      -1.142  11.365  22.071  0.00  0.00    +0.000 A 
ATOM     10  C   UNL     1      -0.785  10.607  23.193  0.00  0.00    +0.000 A 
ATOM     11  C   UNL     1       0.025   9.478  23.071  0.00  0.00    +0.000 A 
ATOM     12  C   UNL     1       0.448   9.175  21.782  0.00  0.00    +0.000 A 
ATOM     13  O   UNL     1       1.241   8.138  21.415  0.00  0.00    +0.000 OA
ATOM     14  C   UNL     1       2.382   6.068  19.972  0.00  0.00    +0.000 C 
ATOM     15  C   UNL     1       3.804   5.537  19.679  0.00  0.00    +0.000 C 
ENDROOT
BRANCH   8  16
ATOM     16  S   UNL     1      -1.207  11.938  19.377  0.00  0.00    +0.000 S 
ATOM     17  O   UNL     1      -0.615  11.310  18.206  0.00  0.00    +0.000 OA
ATOM     18  O   UNL     1      -2.655  12.052  19.457  0.00  0.00    +0.000 OA
BRANCH  16  19
ATOM     19  C   UNL     1      -0.494  13.575  19.477  0.00  0.00    +0.000 A 
ATOM     20  C   UNL     1      -1.333  14.607  19.922  0.00  0.00    +0.000 A 
ATOM     21  C   UNL     1      -0.883  15.922  19.916  0.00  0.00    +0.000 A 
ATOM     22  C   UNL     1       0.402  16.209  19.466  0.00  0.00    +0.000 A 
ATOM     23  C   UNL     1       1.268  15.191  19.038  0.00  0.00    +0.000 A 
ATOM     24  C   UNL     1       2.560  15.529  18.600  0.00  0.00    +0.000 A 
ATOM     25  C   UNL     1       3.459  14.551  18.182  0.00  0.00    +0.000 A 
ATOM     26  C   UNL     1       3.071  13.221  18.184  0.00  0.00    +0.000 A 
ATOM     27  C   UNL     1       1.781  12.873  18.593  0.00  0.00    +0.000 A 
ATOM     28  C   UNL     1       0.839  13.838  19.039  0.00  0.00    +0.000 A 
ENDBRANCH  16  19
ENDBRANCH   8  16
BRANCH   1  29
ATOM     29  C   UNL     1       3.529   4.717  17.409  0.00  0.00    +0.000 C 
BRANCH  29  30
ATOM     30  C   UNL     1       4.437   3.853  16.526  0.00  0.00    +0.000 C 
BRANCH  30  32
ATOM     31  C   UNL     1       6.433   3.920  14.998  0.00  0.00    +0.000 C 
ATOM     32  C   UNL     1       5.204   4.668  15.485  0.00  0.00    +0.000 C 
ENDBRANCH  30  32
ENDBRANCH  29  30
ENDBRANCH   1  29
TORSDOF 5
ENDMDL
MODEL 9
REMARK VINA RESULT:      -7.8      1.371      2.491
REMARK  Name = 
REMARK  6 active torsions:
REMARK  status: ('A' for Active; 'I' for Inactive)
REMARK    1  A    between atoms: C_1  and  C_2
REMARK    2  A    between atoms: C_2  and  C_3
REMARK    3  A    between atoms: C_3  and  C_4
REMARK    4  A    between atoms: C_4  and  N_5
REMARK    5  A    between atoms: C_12  and  S_13
REMARK    6  A    between atoms: S_13  and  C_16
REMARK                            x       y       z     vdW  Elec       q    Type
REMARK                         _______ _______ _______ _____ _____    ______ ____
ROOT
ATOM      1  N   UNL     1       4.607   5.683  17.975  0.00  0.00    +0.000 NA
ATOM      2  C   UNL     1       4.384   7.107  17.618  0.00  0.00    +0.000 C 
ATOM      3  C   UNL     1       2.943   7.622  17.852  0.00  0.00    +0.000 C 
ATOM      4  N   UNL     1       2.556   7.345  19.233  0.00  0.00    +0.000 N 
ATOM      5  C   UNL     1       1.686   8.156  19.857  0.00  0.00    +0.000 A 
ATOM      6  N   UNL     1       1.004   9.177  19.383  0.00  0.00    +0.000 NA
ATOM      7  C   UNL     1       0.375   9.700  20.485  0.00  0.00    +0.000 A 
ATOM      8  C   UNL     1      -0.482  10.787  20.665  0.00  0.00    +0.000 A 
ATOM      9  C   UNL     1      -0.937  11.089  21.966  0.00  0.00    +0.000 A 
ATOM     10  C   UNL     1      -0.563  10.299  23.060  0.00  0.00    +0.000 A 
ATOM     11  C   UNL     1       0.277   9.198  22.900  0.00  0.00    +0.000 A 
ATOM     12  C   UNL     1       0.711   8.954  21.602  0.00  0.00    +0.000 A 
ATOM     13  O   UNL     1       1.531   7.951  21.200  0.00  0.00    +0.000 OA
ATOM     14  C   UNL     1       2.730   5.966  19.686  0.00  0.00    +0.000 C 
ATOM     15  C   UNL     1       4.166   5.484  19.379  0.00  0.00    +0.000 C 
ENDROOT
BRANCH   8  16
ATOM     16  S   UNL     1      -1.011  11.758  19.294  0.00  0.00    +0.000 S 
ATOM     17  O   UNL     1      -0.015  12.801  19.096  0.00  0.00    +0.000 OA
ATOM     18  O   UNL     1      -1.280  10.828  18.208  0.00  0.00    +0.000 OA
BRANCH  16  19
ATOM     19  C   UNL     1      -2.530  12.597  19.724  0.00  0.00    +0.000 A 
ATOM     20  C   UNL     1      -2.437  13.638  20.660  0.00  0.00    +0.000 A 
ATOM     21  C   UNL     1      -3.590  14.258  21.128  0.00  0.00    +0.000 A 
ATOM     22  C   UNL     1      -4.834  13.841  20.665  0.00  0.00    +0.000 A 
ATOM     23  C   UNL     1      -4.951  12.817  19.711  0.00  0.00    +0.000 A 
ATOM     24  C   UNL     1      -6.229  12.436  19.267  0.00  0.00    +0.000 A 
ATOM     25  C   UNL     1      -6.391  11.437  18.311  0.00  0.00    +0.000 A 
ATOM     26  C   UNL     1      -5.276  10.797  17.795  0.00  0.00    +0.000 A 
ATOM     27  C   UNL     1      -4.001  11.149  18.246  0.00  0.00    +0.000 A 
ATOM     28  C   UNL     1      -3.792  12.170  19.210  0.00  0.00    +0.000 A 
ENDBRANCH  16  19
ENDBRANCH   8  16
BRANCH   1  29
ATOM     29  C   UNL     1       3.919   4.740  17.079  0.00  0.00    +0.000 C 
BRANCH  29  30
ATOM     30  C   UNL     1       4.854   3.896  16.206  0.00  0.00    +0.000 C 
BRANCH  30  32
ATOM     31  C   UNL     1       7.050   4.810  15.388  0.00  0.00    +0.000 C 
ATOM     32  C   UNL     1       5.557   4.714  15.123  0.00  0.00    +0.000 C 
ENDBRANCH  30  32
ENDBRANCH  29  30
ENDBRANCH   1  29
TORSDOF 5
ENDMDL
