MODEL 1
REMARK VINA RESULT:      -8.2      0.000      0.000
REMARK  Name = 
REMARK  13 active torsions:
REMARK  status: ('A' for Active; 'I' for Inactive)
REMARK    1  A    between atoms: C_1  and  C_2
REMARK    2  A    between atoms: C_2  and  C_3
REMARK    3  A    between atoms: C_2  and  N_4
REMARK    4  A    between atoms: C_2  and  C_5
REMARK    5  A    between atoms: N_7  and  C_8
REMARK    6  A    between atoms: C_8  and  C_9
REMARK    7  A    between atoms: C_8  and  C_18
REMARK    8  A    between atoms: C_9  and  C_10
REMARK    9  A    between atoms: C_13  and  O_14
REMARK   10  A    between atoms: C_15  and  O_16
REMARK   11  A    between atoms: C_18  and  O_20
REMARK   12  A    between atoms: O_20  and  C_21
REMARK   13  A    between atoms: C_21  and  C_22
REMARK                            x       y       z     vdW  Elec       q    Type
REMARK                         _______ _______ _______ _____ _____    ______ ____
ROOT
ATOM      1  C   UNL     1       3.054   6.907  17.795  0.00  0.00    +0.000 C 
ENDROOT
BRANCH   1   4
ATOM      2  C   UNL     1       5.351   6.713  16.775  0.00  0.00    +0.000 C 
ATOM      3  O   UNL     1       4.969   6.833  15.617  0.00  0.00    +0.000 OA
ATOM      4  N   UNL     1       4.506   6.753  17.859  0.00  0.00    +0.000 N 
ATOM      5  H   UNL     1       4.951   6.646  18.771  0.00  0.00    +0.000 HD
BRANCH   2   7
ATOM      6  C   UNL     1       6.941   5.672  18.422  0.00  0.00    +0.000 C 
ATOM      7  C   UNL     1       6.848   6.570  17.184  0.00  0.00    +0.000 C 
ATOM      8  C   UNL     1       7.460   7.943  17.471  0.00  0.00    +0.000 C 
BRANCH   7   9
ATOM      9  N   UNL     1       7.593   5.916  16.069  0.00  0.00    +0.000 NA
ATOM     10  H   UNL     1       6.985   5.220  15.639  0.00  0.00    +0.000 HD
ATOM     11  H   UNL     1       8.362   5.377  16.481  0.00  0.00    +0.000 HD
ENDBRANCH   7   9
ENDBRANCH   2   7
ENDBRANCH   1   4
BRANCH   1  12
ATOM     12  C   UNL     1       2.610   8.362  18.027  0.00  0.00    +0.000 C 
ATOM     13  O   UNL     1       3.005   9.311  17.358  0.00  0.00    +0.000 OA
BRANCH  12  14
ATOM     14  O   UNL     1       1.727   8.447  19.061  0.00  0.00    +0.000 OA
BRANCH  14  15
ATOM     15  C   UNL     1       0.844   9.578  19.070  0.00  0.00    +0.000 C 
BRANCH  15  16
ATOM     16  C   UNL     1       0.332   9.832  20.469  0.00  0.00    +0.000 A 
ATOM     17  C   UNL     1      -0.156  11.089  20.856  0.00  0.00    +0.000 A 
ATOM     18  C   UNL     1      -0.654  11.292  22.145  0.00  0.00    +0.000 A 
ATOM     19  C   UNL     1      -0.688  10.242  23.054  0.00  0.00    +0.000 A 
ATOM     20  C   UNL     1      -0.225   8.983  22.680  0.00  0.00    +0.000 A 
ATOM     21  C   UNL     1       0.279   8.777  21.394  0.00  0.00    +0.000 A 
ENDBRANCH  15  16
ENDBRANCH  14  15
ENDBRANCH  12  14
ENDBRANCH   1  12
BRANCH   1  22
ATOM     22  C   UNL     1       2.277   5.974  18.743  0.00  0.00    +0.000 C 
BRANCH  22  23
ATOM     23  C   UNL     1       2.642   4.505  18.705  0.00  0.00    +0.000 A 
ATOM     24  C   UNL     1       2.010   3.630  17.801  0.00  0.00    +0.000 A 
ATOM     25  C   UNL     1       2.443   2.305  17.664  0.00  0.00    +0.000 A 
ATOM     26  C   UNL     1       3.514   1.860  18.427  0.00  0.00    +0.000 A 
ATOM     27  C   UNL     1       4.123   2.710  19.346  0.00  0.00    +0.000 A 
ATOM     28  C   UNL     1       3.686   4.019  19.504  0.00  0.00    +0.000 A 
BRANCH  26  29
ATOM     29  O   UNL     1       4.027   0.599  18.291  0.00  0.00    +0.000 OA
ATOM     30  H   UNL     1       3.970   0.353  17.352  0.00  0.00    +0.000 HD
ENDBRANCH  26  29
BRANCH  27  31
ATOM     31  O   UNL     1       5.194   2.276  20.073  0.00  0.00    +0.000 OA
ATOM     32  H   UNL     1       4.925   2.415  21.003  0.00  0.00    +0.000 HD
ENDBRANCH  27  31
ENDBRANCH  22  23
ENDBRANCH   1  22
TORSDOF 11
ENDMDL
MODEL 2
REMARK VINA RESULT:      -7.9      2.313      5.966
REMARK  Name = 
REMARK  13 active torsions:
REMARK  status: ('A' for Active; 'I' for Inactive)
REMARK    1  A    between atoms: C_1  and  C_2
REMARK    2  A    between atoms: C_2  and  C_3
REMARK    3  A    between atoms: C_2  and  N_4
REMARK    4  A    between atoms: C_2  and  C_5
REMARK    5  A    between atoms: N_7  and  C_8
REMARK    6  A    between atoms: C_8  and  C_9
REMARK    7  A    between atoms: C_8  and  C_18
REMARK    8  A    between atoms: C_9  and  C_10
REMARK    9  A    between atoms: C_13  and  O_14
REMARK   10  A    between atoms: C_15  and  O_16
REMARK   11  A    between atoms: C_18  and  O_20
REMARK   12  A    between atoms: O_20  and  C_21
REMARK   13  A    between atoms: C_21  and  C_22
REMARK                            x       y       z     vdW  Elec       q    Type
REMARK                         _______ _______ _______ _____ _____    ______ ____
ROOT
ATOM      1  C   UNL     1       4.828   5.474  17.645  0.00  0.00    +0.000 C 
ENDROOT
BRANCH   1   4
ATOM      2  C   UNL     1       5.555   5.399  15.233  0.00  0.00    +0.000 C 
ATOM      3  O   UNL     1       5.392   6.596  15.030  0.00  0.00    +0.000 OA
ATOM      4  N   UNL     1       5.323   4.798  16.448  0.00  0.00    +0.000 N 
ATOM      5  H   UNL     1       5.503   3.794  16.486  0.00  0.00    +0.000 HD
BRANCH   2   7
ATOM      6  C   UNL     1       7.384   4.997  13.554  0.00  0.00    +0.000 C 
ATOM      7  C   UNL     1       6.110   4.406  14.167  0.00  0.00    +0.000 C 
ATOM      8  C   UNL     1       5.065   4.143  13.081  0.00  0.00    +0.000 C 
BRANCH   7   9
ATOM      9  N   UNL     1       6.462   3.121  14.840  0.00  0.00    +0.000 NA
ATOM     10  H   UNL     1       7.346   3.247  15.334  0.00  0.00    +0.000 HD
ATOM     11  H   UNL     1       6.664   2.431  14.111  0.00  0.00    +0.000 HD
ENDBRANCH   7   9
ENDBRANCH   2   7
ENDBRANCH   1   4
BRANCH   1  12
ATOM     12  C   UNL     1       5.349   4.824  18.939  0.00  0.00    +0.000 C 
ATOM     13  O   UNL     1       5.707   5.459  19.926  0.00  0.00    +0.000 OA
BRANCH  12  14
ATOM     14  O   UNL     1       5.352   3.465  18.839  0.00  0.00    +0.000 OA
BRANCH  14  15
ATOM     15  C   UNL     1       4.725   2.733  19.903  0.00  0.00    +0.000 C 
BRANCH  15  16
ATOM     16  C   UNL     1       3.222   2.840  19.797  0.00  0.00    +0.000 A 
ATOM     17  C   UNL     1       2.515   2.238  18.745  0.00  0.00    +0.000 A 
ATOM     18  C   UNL     1       1.122   2.322  18.685  0.00  0.00    +0.000 A 
ATOM     19  C   UNL     1       0.419   2.991  19.681  0.00  0.00    +0.000 A 
ATOM     20  C   UNL     1       1.104   3.577  20.741  0.00  0.00    +0.000 A 
ATOM     21  C   UNL     1       2.498   3.500  20.802  0.00  0.00    +0.000 A 
ENDBRANCH  15  16
ENDBRANCH  14  15
ENDBRANCH  12  14
ENDBRANCH   1  12
BRANCH   1  22
ATOM     22  C   UNL     1       3.295   5.599  17.712  0.00  0.00    +0.000 C 
BRANCH  22  23
ATOM     23  C   UNL     1       2.741   6.865  18.331  0.00  0.00    +0.000 A 
ATOM     24  C   UNL     1       2.430   7.981  17.530  0.00  0.00    +0.000 A 
ATOM     25  C   UNL     1       1.787   9.098  18.076  0.00  0.00    +0.000 A 
ATOM     26  C   UNL     1       1.448   9.095  19.422  0.00  0.00    +0.000 A 
ATOM     27  C   UNL     1       1.781   8.009  20.227  0.00  0.00    +0.000 A 
ATOM     28  C   UNL     1       2.439   6.905  19.699  0.00  0.00    +0.000 A 
BRANCH  26  29
ATOM     29  O   UNL     1       0.759  10.126  19.999  0.00  0.00    +0.000 OA
ATOM     30  H   UNL     1       0.185   9.752  20.690  0.00  0.00    +0.000 HD
ENDBRANCH  26  29
BRANCH  27  31
ATOM     31  O   UNL     1       1.420   7.998  21.544  0.00  0.00    +0.000 OA
ATOM     32  H   UNL     1       1.251   7.055  21.738  0.00  0.00    +0.000 HD
ENDBRANCH  27  31
ENDBRANCH  22  23
ENDBRANCH   1  22
TORSDOF 11
ENDMDL
MODEL 3
REMARK VINA RESULT:      -7.8      1.230      1.868
REMARK  Name = 
REMARK  13 active torsions:
REMARK  status: ('A' for Active; 'I' for Inactive)
REMARK    1  A    between atoms: C_1  and  C_2
REMARK    2  A    between atoms: C_2  and  C_3
REMARK    3  A    between atoms: C_2  and  N_4
REMARK    4  A    between atoms: C_2  and  C_5
REMARK    5  A    between atoms: N_7  and  C_8
REMARK    6  A    between atoms: C_8  and  C_9
REMARK    7  A    between atoms: C_8  and  C_18
REMARK    8  A    between atoms: C_9  and  C_10
REMARK    9  A    between atoms: C_13  and  O_14
REMARK   10  A    between atoms: C_15  and  O_16
REMARK   11  A    between atoms: C_18  and  O_20
REMARK   12  A    between atoms: O_20  and  C_21
REMARK   13  A    between atoms: C_21  and  C_22
REMARK                            x       y       z     vdW  Elec       q    Type
REMARK                         _______ _______ _______ _____ _____    ______ ____
ROOT
ATOM      1  C   UNL     1       3.017   6.913  17.767  0.00  0.00    +0.000 C 
ENDROOT
BRANCH   1   4
ATOM      2  C   UNL     1       5.323   6.726  16.766  0.00  0.00    +0.000 C 
ATOM      3  O   UNL     1       4.946   6.797  15.603  0.00  0.00    +0.000 OA
ATOM      4  N   UNL     1       4.471   6.788  17.844  0.00  0.00    +0.000 N 
ATOM      5  H   UNL     1       4.913   6.723  18.761  0.00  0.00    +0.000 HD
BRANCH   2   7
ATOM      6  C   UNL     1       6.926   5.743  18.436  0.00  0.00    +0.000 C 
ATOM      7  C   UNL     1       6.820   6.626  17.188  0.00  0.00    +0.000 C 
ATOM      8  C   UNL     1       7.394   8.017  17.466  0.00  0.00    +0.000 C 
BRANCH   7   9
ATOM      9  N   UNL     1       7.591   5.980  16.086  0.00  0.00    +0.000 NA
ATOM     10  H   UNL     1       7.621   6.622  15.294  0.00  0.00    +0.000 HD
ATOM     11  H   UNL     1       7.048   5.177  15.753  0.00  0.00    +0.000 HD
ENDBRANCH   7   9
ENDBRANCH   2   7
ENDBRANCH   1   4
BRANCH   1  12
ATOM     12  C   UNL     1       2.544   8.364  17.963  0.00  0.00    +0.000 C 
ATOM     13  O   UNL     1       3.104   9.337  17.470  0.00  0.00    +0.000 OA
BRANCH  12  14
ATOM     14  O   UNL     1       1.428   8.415  18.744  0.00  0.00    +0.000 OA
BRANCH  14  15
ATOM     15  C   UNL     1       1.158   9.657  19.410  0.00  0.00    +0.000 C 
BRANCH  15  16
ATOM     16  C   UNL     1      -0.174  10.213  18.964  0.00  0.00    +0.000 A 
ATOM     17  C   UNL     1      -0.843  11.200  19.703  0.00  0.00    +0.000 A 
ATOM     18  C   UNL     1      -2.059  11.722  19.254  0.00  0.00    +0.000 A 
ATOM     19  C   UNL     1      -2.609  11.279  18.056  0.00  0.00    +0.000 A 
ATOM     20  C   UNL     1      -1.948  10.314  17.302  0.00  0.00    +0.000 A 
ATOM     21  C   UNL     1      -0.735   9.785  17.750  0.00  0.00    +0.000 A 
ENDBRANCH  15  16
ENDBRANCH  14  15
ENDBRANCH  12  14
ENDBRANCH   1  12
BRANCH   1  22
ATOM     22  C   UNL     1       2.251   5.988  18.730  0.00  0.00    +0.000 C 
BRANCH  22  23
ATOM     23  C   UNL     1       2.619   4.519  18.702  0.00  0.00    +0.000 A 
ATOM     24  C   UNL     1       1.975   3.633  17.817  0.00  0.00    +0.000 A 
ATOM     25  C   UNL     1       2.409   2.307  17.687  0.00  0.00    +0.000 A 
ATOM     26  C   UNL     1       3.493   1.873  18.438  0.00  0.00    +0.000 A 
ATOM     27  C   UNL     1       4.113   2.734  19.339  0.00  0.00    +0.000 A 
ATOM     28  C   UNL     1       3.676   4.043  19.490  0.00  0.00    +0.000 A 
BRANCH  26  29
ATOM     29  O   UNL     1       4.006   0.611  18.307  0.00  0.00    +0.000 OA
ATOM     30  H   UNL     1       3.898   0.155  19.159  0.00  0.00    +0.000 HD
ENDBRANCH  26  29
BRANCH  27  31
ATOM     31  O   UNL     1       5.197   2.309  20.053  0.00  0.00    +0.000 OA
ATOM     32  H   UNL     1       4.820   2.008  20.904  0.00  0.00    +0.000 HD
ENDBRANCH  27  31
ENDBRANCH  22  23
ENDBRANCH   1  22
TORSDOF 11
ENDMDL
MODEL 4
REMARK VINA RESULT:      -7.6      2.140      6.116
REMARK  Name = 
REMARK  13 active torsions:
REMARK  status: ('A' for Active; 'I' for Inactive)
REMARK    1  A    between atoms: C_1  and  C_2
REMARK    2  A    between atoms: C_2  and  C_3
REMARK    3  A    between atoms: C_2  and  N_4
REMARK    4  A    between atoms: C_2  and  C_5
REMARK    5  A    between atoms: N_7  and  C_8
REMARK    6  A    between atoms: C_8  and  C_9
REMARK    7  A    between atoms: C_8  and  C_18
REMARK    8  A    between atoms: C_9  and  C_10
REMARK    9  A    between atoms: C_13  and  O_14
REMARK   10  A    between atoms: C_15  and  O_16
REMARK   11  A    between atoms: C_18  and  O_20
REMARK   12  A    between atoms: O_20  and  C_21
REMARK   13  A    between atoms: C_21  and  C_22
REMARK                            x       y       z     vdW  Elec       q    Type
REMARK                         _______ _______ _______ _____ _____    ______ ____
ROOT
ATOM      1  C   UNL     1       3.880   6.112  18.093  0.00  0.00    +0.000 C 
ENDROOT
BRANCH   1   4
ATOM      2  C   UNL     1       6.076   5.406  19.109  0.00  0.00    +0.000 C 
ATOM      3  O   UNL     1       5.576   4.695  19.972  0.00  0.00    +0.000 OA
ATOM      4  N   UNL     1       5.339   6.096  18.175  0.00  0.00    +0.000 N 
ATOM      5  H   UNL     1       5.877   6.648  17.508  0.00  0.00    +0.000 HD
BRANCH   2   7
ATOM      6  C   UNL     1       7.891   6.974  18.353  0.00  0.00    +0.000 C 
ATOM      7  C   UNL     1       7.612   5.573  18.905  0.00  0.00    +0.000 C 
ATOM      8  C   UNL     1       8.146   4.504  17.949  0.00  0.00    +0.000 C 
BRANCH   7   9
ATOM      9  N   UNL     1       8.292   5.442  20.227  0.00  0.00    +0.000 NA
ATOM     10  H   UNL     1       9.298   5.385  20.069  0.00  0.00    +0.000 HD
ATOM     11  H   UNL     1       8.035   4.533  20.623  0.00  0.00    +0.000 HD
ENDBRANCH   7   9
ENDBRANCH   2   7
ENDBRANCH   1   4
BRANCH   1  12
ATOM     12  C   UNL     1       3.327   4.920  17.292  0.00  0.00    +0.000 C 
ATOM     13  O   UNL     1       4.024   4.167  16.620  0.00  0.00    +0.000 OA
BRANCH  12  14
ATOM     14  O   UNL     1       1.976   4.817  17.436  0.00  0.00    +0.000 OA
BRANCH  14  15
ATOM     15  C   UNL     1       1.458   3.531  17.806  0.00  0.00    +0.000 C 
BRANCH  15  16
ATOM     16  C   UNL     1       1.817   3.214  19.239  0.00  0.00    +0.000 A 
ATOM     17  C   UNL     1       0.984   3.589  20.305  0.00  0.00    +0.000 A 
ATOM     18  C   UNL     1       1.319   3.257  21.619  0.00  0.00    +0.000 A 
ATOM     19  C   UNL     1       2.477   2.534  21.884  0.00  0.00    +0.000 A 
ATOM     20  C   UNL     1       3.304   2.138  20.836  0.00  0.00    +0.000 A 
ATOM     21  C   UNL     1       2.974   2.472  19.520  0.00  0.00    +0.000 A 
ENDBRANCH  15  16
ENDBRANCH  14  15
ENDBRANCH  12  14
ENDBRANCH   1  12
BRANCH   1  22
ATOM     22  C   UNL     1       3.293   7.422  17.537  0.00  0.00    +0.000 C 
BRANCH  22  23
ATOM     23  C   UNL     1       2.274   8.134  18.402  0.00  0.00    +0.000 A 
ATOM     24  C   UNL     1       2.049   7.728  19.732  0.00  0.00    +0.000 A 
ATOM     25  C   UNL     1       1.215   8.469  20.577  0.00  0.00    +0.000 A 
ATOM     26  C   UNL     1       0.613   9.622  20.094  0.00  0.00    +0.000 A 
ATOM     27  C   UNL     1       0.804  10.013  18.771  0.00  0.00    +0.000 A 
ATOM     28  C   UNL     1       1.612   9.271  17.919  0.00  0.00    +0.000 A 
BRANCH  26  29
ATOM     29  O   UNL     1      -0.158  10.426  20.888  0.00  0.00    +0.000 OA
ATOM     30  H   UNL     1      -0.561  11.107  20.323  0.00  0.00    +0.000 HD
ENDBRANCH  26  29
BRANCH  27  31
ATOM     31  O   UNL     1       0.233  11.164  18.309  0.00  0.00    +0.000 OA
ATOM     32  H   UNL     1       0.992  11.708  18.018  0.00  0.00    +0.000 HD
ENDBRANCH  27  31
ENDBRANCH  22  23
ENDBRANCH   1  22
TORSDOF 11
ENDMDL
MODEL 5
REMARK VINA RESULT:      -7.5      0.788      1.345
REMARK  Name = 
REMARK  13 active torsions:
REMARK  status: ('A' for Active; 'I' for Inactive)
REMARK    1  A    between atoms: C_1  and  C_2
REMARK    2  A    between atoms: C_2  and  C_3
REMARK    3  A    between atoms: C_2  and  N_4
REMARK    4  A    between atoms: C_2  and  C_5
REMARK    5  A    between atoms: N_7  and  C_8
REMARK    6  A    between atoms: C_8  and  C_9
REMARK    7  A    between atoms: C_8  and  C_18
REMARK    8  A    between atoms: C_9  and  C_10
REMARK    9  A    between atoms: C_13  and  O_14
REMARK   10  A    between atoms: C_15  and  O_16
REMARK   11  A    between atoms: C_18  and  O_20
REMARK   12  A    between atoms: O_20  and  C_21
REMARK   13  A    between atoms: C_21  and  C_22
REMARK                            x       y       z     vdW  Elec       q    Type
REMARK                         _______ _______ _______ _____ _____    ______ ____
ROOT
ATOM      1  C   UNL     1       3.027   6.762  17.808  0.00  0.00    +0.000 C 
ENDROOT
BRANCH   1   4
ATOM      2  C   UNL     1       5.153   5.702  16.967  0.00  0.00    +0.000 C 
ATOM      3  O   UNL     1       4.596   4.934  16.192  0.00  0.00    +0.000 OA
ATOM      4  N   UNL     1       4.478   6.605  17.753  0.00  0.00    +0.000 N 
ATOM      5  H   UNL     1       5.061   7.192  18.352  0.00  0.00    +0.000 HD
BRANCH   2   7
ATOM      6  C   UNL     1       7.071   7.270  17.399  0.00  0.00    +0.000 C 
ATOM      7  C   UNL     1       6.701   5.810  17.119  0.00  0.00    +0.000 C 
ATOM      8  C   UNL     1       7.401   5.313  15.852  0.00  0.00    +0.000 C 
BRANCH   7   9
ATOM      9  N   UNL     1       7.131   4.981  18.283  0.00  0.00    +0.000 NA
ATOM     10  H   UNL     1       6.632   5.305  19.112  0.00  0.00    +0.000 HD
ATOM     11  H   UNL     1       8.117   5.192  18.469  0.00  0.00    +0.000 HD
ENDBRANCH   7   9
ENDBRANCH   2   7
ENDBRANCH   1   4
BRANCH   1  12
ATOM     12  C   UNL     1       2.604   8.230  17.993  0.00  0.00    +0.000 C 
ATOM     13  O   UNL     1       2.930   9.135  17.233  0.00  0.00    +0.000 OA
BRANCH  12  14
ATOM     14  O   UNL     1       1.823   8.380  19.100  0.00  0.00    +0.000 OA
BRANCH  14  15
ATOM     15  C   UNL     1       0.946   9.515  19.127  0.00  0.00    +0.000 C 
BRANCH  15  16
ATOM     16  C   UNL     1       0.366   9.696  20.511  0.00  0.00    +0.000 A 
ATOM     17  C   UNL     1       0.273   8.626  21.415  0.00  0.00    +0.000 A 
ATOM     18  C   UNL     1      -0.236   8.824  22.700  0.00  0.00    +0.000 A 
ATOM     19  C   UNL     1      -0.640  10.092  23.104  0.00  0.00    +0.000 A 
ATOM     20  C   UNL     1      -0.536  11.167  22.226  0.00  0.00    +0.000 A 
ATOM     21  C   UNL     1      -0.032  10.972  20.937  0.00  0.00    +0.000 A 
ENDBRANCH  15  16
ENDBRANCH  14  15
ENDBRANCH  12  14
ENDBRANCH   1  12
BRANCH   1  22
ATOM     22  C   UNL     1       2.336   5.889  18.872  0.00  0.00    +0.000 C 
BRANCH  22  23
ATOM     23  C   UNL     1       2.660   4.410  18.856  0.00  0.00    +0.000 A 
ATOM     24  C   UNL     1       2.001   3.539  17.966  0.00  0.00    +0.000 A 
ATOM     25  C   UNL     1       2.396   2.201  17.848  0.00  0.00    +0.000 A 
ATOM     26  C   UNL     1       3.456   1.737  18.616  0.00  0.00    +0.000 A 
ATOM     27  C   UNL     1       4.090   2.584  19.521  0.00  0.00    +0.000 A 
ATOM     28  C   UNL     1       3.691   3.907  19.660  0.00  0.00    +0.000 A 
BRANCH  26  29
ATOM     29  O   UNL     1       3.932   0.460  18.498  0.00  0.00    +0.000 OA
ATOM     30  H   UNL     1       4.256   0.345  17.588  0.00  0.00    +0.000 HD
ENDBRANCH  26  29
BRANCH  27  31
ATOM     31  O   UNL     1       5.151   2.130  20.251  0.00  0.00    +0.000 OA
ATOM     32  H   UNL     1       5.608   1.509  19.649  0.00  0.00    +0.000 HD
ENDBRANCH  27  31
ENDBRANCH  22  23
ENDBRANCH   1  22
TORSDOF 11
ENDMDL
MODEL 6
REMARK VINA RESULT:      -7.5      2.510      4.814
REMARK  Name = 
REMARK  13 active torsions:
REMARK  status: ('A' for Active; 'I' for Inactive)
REMARK    1  A    between atoms: C_1  and  C_2
REMARK    2  A    between atoms: C_2  and  C_3
REMARK    3  A    between atoms: C_2  and  N_4
REMARK    4  A    between atoms: C_2  and  C_5
REMARK    5  A    between atoms: N_7  and  C_8
REMARK    6  A    between atoms: C_8  and  C_9
REMARK    7  A    between atoms: C_8  and  C_18
REMARK    8  A    between atoms: C_9  and  C_10
REMARK    9  A    between atoms: C_13  and  O_14
REMARK   10  A    between atoms: C_15  and  O_16
REMARK   11  A    between atoms: C_18  and  O_20
REMARK   12  A    between atoms: O_20  and  C_21
REMARK   13  A    between atoms: C_21  and  C_22
REMARK                            x       y       z     vdW  Elec       q    Type
REMARK                         _______ _______ _______ _____ _____    ______ ____
ROOT
ATOM      1  C   UNL     1       2.657   6.751  19.382  0.00  0.00    +0.000 C 
ENDROOT
BRANCH   1   4
ATOM      2  C   UNL     1       2.702   4.306  19.990  0.00  0.00    +0.000 C 
ATOM      3  O   UNL     1       3.912   4.258  20.172  0.00  0.00    +0.000 OA
ATOM      4  N   UNL     1       2.034   5.453  19.629  0.00  0.00    +0.000 N 
ATOM      5  H   UNL     1       1.025   5.359  19.513  0.00  0.00    +0.000 HD
BRANCH   2   7
ATOM      6  C   UNL     1       1.916   2.577  21.638  0.00  0.00    +0.000 C 
ATOM      7  C   UNL     1       1.743   3.096  20.207  0.00  0.00    +0.000 C 
ATOM      8  C   UNL     1       2.040   1.987  19.195  0.00  0.00    +0.000 C 
BRANCH   7   9
ATOM      9  N   UNL     1       0.335   3.559  20.040  0.00  0.00    +0.000 NA
ATOM     10  H   UNL     1      -0.274   2.947  20.584  0.00  0.00    +0.000 HD
ATOM     11  H   UNL     1       0.066   3.398  19.064  0.00  0.00    +0.000 HD
ENDBRANCH   7   9
ENDBRANCH   2   7
ENDBRANCH   1   4
BRANCH   1  12
ATOM     12  C   UNL     1       1.804   7.918  19.912  0.00  0.00    +0.000 C 
ATOM     13  O   UNL     1       1.360   7.975  21.054  0.00  0.00    +0.000 OA
BRANCH  12  14
ATOM     14  O   UNL     1       1.619   8.867  18.952  0.00  0.00    +0.000 OA
BRANCH  14  15
ATOM     15  C   UNL     1       1.131  10.145  19.387  0.00  0.00    +0.000 C 
BRANCH  15  16
ATOM     16  C   UNL     1      -0.185  10.459  18.715  0.00  0.00    +0.000 A 
ATOM     17  C   UNL     1      -0.691   9.658  17.680  0.00  0.00    +0.000 A 
ATOM     18  C   UNL     1      -1.926   9.949  17.095  0.00  0.00    +0.000 A 
ATOM     19  C   UNL     1      -2.676  11.028  17.548  0.00  0.00    +0.000 A 
ATOM     20  C   UNL     1      -2.197  11.821  18.587  0.00  0.00    +0.000 A 
ATOM     21  C   UNL     1      -0.960  11.537  19.171  0.00  0.00    +0.000 A 
ENDBRANCH  15  16
ENDBRANCH  14  15
ENDBRANCH  12  14
ENDBRANCH   1  12
BRANCH   1  22
ATOM     22  C   UNL     1       3.020   7.008  17.908  0.00  0.00    +0.000 C 
BRANCH  22  23
ATOM     23  C   UNL     1       4.265   6.324  17.383  0.00  0.00    +0.000 A 
ATOM     24  C   UNL     1       4.187   5.055  16.776  0.00  0.00    +0.000 A 
ATOM     25  C   UNL     1       5.309   4.483  16.164  0.00  0.00    +0.000 A 
ATOM     26  C   UNL     1       6.506   5.185  16.152  0.00  0.00    +0.000 A 
ATOM     27  C   UNL     1       6.599   6.426  16.778  0.00  0.00    +0.000 A 
ATOM     28  C   UNL     1       5.497   6.991  17.407  0.00  0.00    +0.000 A 
BRANCH  26  29
ATOM     29  O   UNL     1       7.619   4.711  15.513  0.00  0.00    +0.000 OA
ATOM     30  H   UNL     1       7.322   4.161  14.767  0.00  0.00    +0.000 HD
ENDBRANCH  26  29
BRANCH  27  31
ATOM     31  O   UNL     1       7.771   7.125  16.738  0.00  0.00    +0.000 OA
ATOM     32  H   UNL     1       7.493   8.051  16.590  0.00  0.00    +0.000 HD
ENDBRANCH  27  31
ENDBRANCH  22  23
ENDBRANCH   1  22
TORSDOF 11
ENDMDL
MODEL 7
REMARK VINA RESULT:      -7.5      2.489      4.640
REMARK  Name = 
REMARK  13 active torsions:
REMARK  status: ('A' for Active; 'I' for Inactive)
REMARK    1  A    between atoms: C_1  and  C_2
REMARK    2  A    between atoms: C_2  and  C_3
REMARK    3  A    between atoms: C_2  and  N_4
REMARK    4  A    between atoms: C_2  and  C_5
REMARK    5  A    between atoms: N_7  and  C_8
REMARK    6  A    between atoms: C_8  and  C_9
REMARK    7  A    between atoms: C_8  and  C_18
REMARK    8  A    between atoms: C_9  and  C_10
REMARK    9  A    between atoms: C_13  and  O_14
REMARK   10  A    between atoms: C_15  and  O_16
REMARK   11  A    between atoms: C_18  and  O_20
REMARK   12  A    between atoms: O_20  and  C_21
REMARK   13  A    between atoms: C_21  and  C_22
REMARK                            x       y       z     vdW  Elec       q    Type
REMARK                         _______ _______ _______ _____ _____    ______ ____
ROOT
ATOM      1  C   UNL     1       2.760   6.903  19.146  0.00  0.00    +0.000 C 
ENDROOT
BRANCH   1   4
ATOM      2  C   UNL     1       2.854   4.513  19.941  0.00  0.00    +0.000 C 
ATOM      3  O   UNL     1       4.063   4.510  20.141  0.00  0.00    +0.000 OA
ATOM      4  N   UNL     1       2.165   5.612  19.485  0.00  0.00    +0.000 N 
ATOM      5  H   UNL     1       1.160   5.485  19.365  0.00  0.00    +0.000 HD
BRANCH   2   7
ATOM      6  C   UNL     1       2.309   2.697  21.594  0.00  0.00    +0.000 C 
ATOM      7  C   UNL     1       1.921   3.300  20.240  0.00  0.00    +0.000 C 
ATOM      8  C   UNL     1       2.036   2.250  19.133  0.00  0.00    +0.000 C 
BRANCH   7   9
ATOM      9  N   UNL     1       0.512   3.783  20.324  0.00  0.00    +0.000 NA
ATOM     10  H   UNL     1       0.303   4.001  21.298  0.00  0.00    +0.000 HD
ATOM     11  H   UNL     1      -0.102   2.997  20.092  0.00  0.00    +0.000 HD
ENDBRANCH   7   9
ENDBRANCH   2   7
ENDBRANCH   1   4
BRANCH   1  12
ATOM     12  C   UNL     1       1.863   8.085  19.556  0.00  0.00    +0.000 C 
ATOM     13  O   UNL     1       1.503   8.301  20.708  0.00  0.00    +0.000 OA
BRANCH  12  14
ATOM     14  O   UNL     1       1.535   8.849  18.476  0.00  0.00    +0.000 OA
BRANCH  14  15
ATOM     15  C   UNL     1       1.271  10.239  18.720  0.00  0.00    +0.000 C 
BRANCH  15  16
ATOM     16  C   UNL     1      -0.195  10.538  18.508  0.00  0.00    +0.000 A 
ATOM     17  C   UNL     1      -0.960   9.834  17.566  0.00  0.00    +0.000 A 
ATOM     18  C   UNL     1      -2.321  10.106  17.410  0.00  0.00    +0.000 A 
ATOM     19  C   UNL     1      -2.937  11.067  18.203  0.00  0.00    +0.000 A 
ATOM     20  C   UNL     1      -2.197  11.761  19.156  0.00  0.00    +0.000 A 
ATOM     21  C   UNL     1      -0.833  11.496  19.312  0.00  0.00    +0.000 A 
ENDBRANCH  15  16
ENDBRANCH  14  15
ENDBRANCH  12  14
ENDBRANCH   1  12
BRANCH   1  22
ATOM     22  C   UNL     1       3.156   7.048  17.665  0.00  0.00    +0.000 C 
BRANCH  22  23
ATOM     23  C   UNL     1       4.456   6.396  17.241  0.00  0.00    +0.000 A 
ATOM     24  C   UNL     1       5.681   7.076  17.381  0.00  0.00    +0.000 A 
ATOM     25  C   UNL     1       6.895   6.427  17.123  0.00  0.00    +0.000 A 
ATOM     26  C   UNL     1       6.882   5.095  16.733  0.00  0.00    +0.000 A 
ATOM     27  C   UNL     1       5.673   4.426  16.562  0.00  0.00    +0.000 A 
ATOM     28  C   UNL     1       4.463   5.068  16.793  0.00  0.00    +0.000 A 
BRANCH  26  29
ATOM     29  O   UNL     1       8.034   4.386  16.533  0.00  0.00    +0.000 OA
ATOM     30  H   UNL     1       8.278   3.967  17.376  0.00  0.00    +0.000 HD
ENDBRANCH  26  29
BRANCH  27  31
ATOM     31  O   UNL     1       5.667   3.107  16.206  0.00  0.00    +0.000 OA
ATOM     32  H   UNL     1       5.707   2.629  17.059  0.00  0.00    +0.000 HD
ENDBRANCH  27  31
ENDBRANCH  22  23
ENDBRANCH   1  22
TORSDOF 11
ENDMDL
MODEL 8
REMARK VINA RESULT:      -7.4      1.539      2.133
REMARK  Name = 
REMARK  13 active torsions:
REMARK  status: ('A' for Active; 'I' for Inactive)
REMARK    1  A    between atoms: C_1  and  C_2
REMARK    2  A    between atoms: C_2  and  C_3
REMARK    3  A    between atoms: C_2  and  N_4
REMARK    4  A    between atoms: C_2  and  C_5
REMARK    5  A    between atoms: N_7  and  C_8
REMARK    6  A    between atoms: C_8  and  C_9
REMARK    7  A    between atoms: C_8  and  C_18
REMARK    8  A    between atoms: C_9  and  C_10
REMARK    9  A    between atoms: C_13  and  O_14
REMARK   10  A    between atoms: C_15  and  O_16
REMARK   11  A    between atoms: C_18  and  O_20
REMARK   12  A    between atoms: O_20  and  C_21
REMARK   13  A    between atoms: C_21  and  C_22
REMARK                            x       y       z     vdW  Elec       q    Type
REMARK                         _______ _______ _______ _____ _____    ______ ____
ROOT
ATOM      1  C   UNL     1       2.989   6.517  17.592  0.00  0.00    +0.000 C 
ENDROOT
BRANCH   1   4
ATOM      2  C   UNL     1       5.407   6.476  16.881  0.00  0.00    +0.000 C 
ATOM      3  O   UNL     1       5.183   6.745  15.707  0.00  0.00    +0.000 OA
ATOM      4  N   UNL     1       4.422   6.365  17.835  0.00  0.00    +0.000 N 
ATOM      5  H   UNL     1       4.743   6.142  18.777  0.00  0.00    +0.000 HD
BRANCH   2   7
ATOM      6  C   UNL     1       6.724   5.666  18.866  0.00  0.00    +0.000 C 
ATOM      7  C   UNL     1       6.838   6.289  17.470  0.00  0.00    +0.000 C 
ATOM      8  C   UNL     1       7.569   7.632  17.541  0.00  0.00    +0.000 C 
BRANCH   7   9
ATOM      9  N   UNL     1       7.602   5.352  16.596  0.00  0.00    +0.000 NA
ATOM     10  H   UNL     1       7.323   5.513  15.628  0.00  0.00    +0.000 HD
ATOM     11  H   UNL     1       7.286   4.400  16.807  0.00  0.00    +0.000 HD
ENDBRANCH   7   9
ENDBRANCH   2   7
ENDBRANCH   1   4
BRANCH   1  12
ATOM     12  C   UNL     1       2.374   7.654  18.426  0.00  0.00    +0.000 C 
ATOM     13  O   UNL     1       2.418   7.705  19.651  0.00  0.00    +0.000 OA
BRANCH  12  14
ATOM     14  O   UNL     1       1.785   8.587  17.625  0.00  0.00    +0.000 OA
BRANCH  14  15
ATOM     15  C   UNL     1       2.003   9.964  17.963  0.00  0.00    +0.000 C 
BRANCH  15  16
ATOM     16  C   UNL     1       0.782  10.537  18.642  0.00  0.00    +0.000 A 
ATOM     17  C   UNL     1      -0.512  10.287  18.161  0.00  0.00    +0.000 A 
ATOM     18  C   UNL     1      -1.629  10.800  18.824  0.00  0.00    +0.000 A 
ATOM     19  C   UNL     1      -1.469  11.551  19.983  0.00  0.00    +0.000 A 
ATOM     20  C   UNL     1      -0.193  11.793  20.485  0.00  0.00    +0.000 A 
ATOM     21  C   UNL     1       0.927  11.285  19.821  0.00  0.00    +0.000 A 
ENDBRANCH  15  16
ENDBRANCH  14  15
ENDBRANCH  12  14
ENDBRANCH   1  12
BRANCH   1  22
ATOM     22  C   UNL     1       2.173   5.228  17.798  0.00  0.00    +0.000 C 
BRANCH  22  23
ATOM     23  C   UNL     1       2.490   4.410  19.033  0.00  0.00    +0.000 A 
ATOM     24  C   UNL     1       1.610   4.396  20.132  0.00  0.00    +0.000 A 
ATOM     25  C   UNL     1       1.827   3.534  21.214  0.00  0.00    +0.000 A 
ATOM     26  C   UNL     1       2.921   2.680  21.191  0.00  0.00    +0.000 A 
ATOM     27  C   UNL     1       3.813   2.711  20.122  0.00  0.00    +0.000 A 
ATOM     28  C   UNL     1       3.618   3.579  19.055  0.00  0.00    +0.000 A 
BRANCH  26  29
ATOM     29  O   UNL     1       3.150   1.768  22.184  0.00  0.00    +0.000 OA
ATOM     30  H   UNL     1       4.087   1.511  22.143  0.00  0.00    +0.000 HD
ENDBRANCH  26  29
BRANCH  27  31
ATOM     31  O   UNL     1       4.871   1.848  20.091  0.00  0.00    +0.000 OA
ATOM     32  H   UNL     1       5.352   2.088  19.274  0.00  0.00    +0.000 HD
ENDBRANCH  27  31
ENDBRANCH  22  23
ENDBRANCH   1  22
TORSDOF 11
ENDMDL
MODEL 9
REMARK VINA RESULT:      -7.4      2.061      6.097
REMARK  Name = 
REMARK  13 active torsions:
REMARK  status: ('A' for Active; 'I' for Inactive)
REMARK    1  A    between atoms: C_1  and  C_2
REMARK    2  A    between atoms: C_2  and  C_3
REMARK    3  A    between atoms: C_2  and  N_4
REMARK    4  A    between atoms: C_2  and  C_5
REMARK    5  A    between atoms: N_7  and  C_8
REMARK    6  A    between atoms: C_8  and  C_9
REMARK    7  A    between atoms: C_8  and  C_18
REMARK    8  A    between atoms: C_9  and  C_10
REMARK    9  A    between atoms: C_13  and  O_14
REMARK   10  A    between atoms: C_15  and  O_16
REMARK   11  A    between atoms: C_18  and  O_20
REMARK   12  A    between atoms: O_20  and  C_21
REMARK   13  A    between atoms: C_21  and  C_22
REMARK                            x       y       z     vdW  Elec       q    Type
REMARK                         _______ _______ _______ _____ _____    ______ ____
ROOT
ATOM      1  C   UNL     1       3.817   6.122  18.071  0.00  0.00    +0.000 C 
ENDROOT
BRANCH   1   4
ATOM      2  C   UNL     1       6.055   5.386  18.965  0.00  0.00    +0.000 C 
ATOM      3  O   UNL     1       5.594   4.657  19.834  0.00  0.00    +0.000 OA
ATOM      4  N   UNL     1       5.278   6.100  18.084  0.00  0.00    +0.000 N 
ATOM      5  H   UNL     1       5.787   6.666  17.404  0.00  0.00    +0.000 HD
BRANCH   2   7
ATOM      6  C   UNL     1       8.329   5.537  20.030  0.00  0.00    +0.000 C 
ATOM      7  C   UNL     1       7.582   5.553  18.693  0.00  0.00    +0.000 C 
ATOM      8  C   UNL     1       7.853   6.859  17.942  0.00  0.00    +0.000 C 
BRANCH   7   9
ATOM      9  N   UNL     1       8.055   4.400  17.873  0.00  0.00    +0.000 NA
ATOM     10  H   UNL     1       7.542   3.567  18.161  0.00  0.00    +0.000 HD
ATOM     11  H   UNL     1       9.029   4.212  18.130  0.00  0.00    +0.000 HD
ENDBRANCH   7   9
ENDBRANCH   2   7
ENDBRANCH   1   4
BRANCH   1  12
ATOM     12  C   UNL     1       3.221   4.919  17.318  0.00  0.00    +0.000 C 
ATOM     13  O   UNL     1       3.881   4.154  16.624  0.00  0.00    +0.000 OA
BRANCH  12  14
ATOM     14  O   UNL     1       1.879   4.822  17.533  0.00  0.00    +0.000 OA
BRANCH  14  15
ATOM     15  C   UNL     1       1.364   3.521  17.853  0.00  0.00    +0.000 C 
BRANCH  15  16
ATOM     16  C   UNL     1       1.761   3.132  19.258  0.00  0.00    +0.000 A 
ATOM     17  C   UNL     1       2.960   2.453  19.522  0.00  0.00    +0.000 A 
ATOM     18  C   UNL     1       3.322   2.132  20.832  0.00  0.00    +0.000 A 
ATOM     19  C   UNL     1       2.503   2.500  21.893  0.00  0.00    +0.000 A 
ATOM     20  C   UNL     1       1.319   3.191  21.650  0.00  0.00    +0.000 A 
ATOM     21  C   UNL     1       0.951   3.510  20.340  0.00  0.00    +0.000 A 
ENDBRANCH  15  16
ENDBRANCH  14  15
ENDBRANCH  12  14
ENDBRANCH   1  12
BRANCH   1  22
ATOM     22  C   UNL     1       3.209   7.425  17.521  0.00  0.00    +0.000 C 
BRANCH  22  23
ATOM     23  C   UNL     1       2.212   8.140  18.408  0.00  0.00    +0.000 A 
ATOM     24  C   UNL     1       2.029   7.747  19.748  0.00  0.00    +0.000 A 
ATOM     25  C   UNL     1       1.215   8.492  20.609  0.00  0.00    +0.000 A 
ATOM     26  C   UNL     1       0.591   9.636  20.131  0.00  0.00    +0.000 A 
ATOM     27  C   UNL     1       0.741  10.013  18.799  0.00  0.00    +0.000 A 
ATOM     28  C   UNL     1       1.529   9.267  17.932  0.00  0.00    +0.000 A 
BRANCH  26  29
ATOM     29  O   UNL     1      -0.162  10.444  20.939  0.00  0.00    +0.000 OA
ATOM     30  H   UNL     1      -0.077  11.356  20.612  0.00  0.00    +0.000 HD
ENDBRANCH  26  29
BRANCH  27  31
ATOM     31  O   UNL     1       0.148  11.155  18.342  0.00  0.00    +0.000 OA
ATOM     32  H   UNL     1       0.072  11.720  19.137  0.00  0.00    +0.000 HD
ENDBRANCH  27  31
ENDBRANCH  22  23
ENDBRANCH   1  22
TORSDOF 11
ENDMDL
