MODEL 1
REMARK VINA RESULT:      -6.9      0.000      0.000
REMARK  Name = 
REMARK  6 active torsions:
REMARK  status: ('A' for Active; 'I' for Inactive)
REMARK    1  A    between atoms: C_1  and  O_2
REMARK    2  A    between atoms: O_2  and  C_3
REMARK    3  A    between atoms: C_6  and  N_7
REMARK    4  A    between atoms: N_7  and  C_8
REMARK    5  A    between atoms: C_13  and  S_14
REMARK    6  A    between atoms: S_14  and  N_15
REMARK                            x       y       z     vdW  Elec       q    Type
REMARK                         _______ _______ _______ _____ _____    ______ ____
ROOT
ATOM      1  C   UNL     1       3.031   4.844  19.148  0.00  0.00    +0.000 A 
ATOM      2  N   UNL     1       1.870   4.143  19.224  0.00  0.00    +0.000 NA
ATOM      3  C   UNL     1       1.749   2.984  18.545  0.00  0.00    +0.000 A 
ATOM      4  C   UNL     1       2.733   2.482  17.722  0.00  0.00    +0.000 A 
ATOM      5  C   UNL     1       3.925   3.189  17.632  0.00  0.00    +0.000 A 
ATOM      6  C   UNL     1       4.087   4.367  18.374  0.00  0.00    +0.000 A 
ENDROOT
BRANCH   6   7
ATOM      7  S   UNL     1       5.663   5.152  18.378  0.00  0.00    +0.000 S 
ATOM      8  O   UNL     1       5.553   6.408  17.668  0.00  0.00    +0.000 OA
ATOM      9  O   UNL     1       6.197   5.083  19.725  0.00  0.00    +0.000 OA
BRANCH   7  10
ATOM     10  N   UNL     1       6.619   4.148  17.424  0.00  0.00    +0.000 NA
ATOM     11  H   UNL     1       7.178   3.534  18.021  0.00  0.00    +0.000 HD
ATOM     12  H   UNL     1       7.182   4.630  16.725  0.00  0.00    +0.000 HD
ENDBRANCH   7  10
ENDBRANCH   6   7
BRANCH   1  13
ATOM     13  N   UNL     1       3.086   6.077  19.827  0.00  0.00    +0.000 N 
ATOM     14  H   UNL     1       3.293   5.953  20.816  0.00  0.00    +0.000 HD
BRANCH  13  18
ATOM     15  C   UNL     1       1.038   9.673  18.925  0.00  0.00    +0.000 A 
ATOM     16  C   UNL     1       0.986   9.133  20.211  0.00  0.00    +0.000 A 
ATOM     17  C   UNL     1       1.649   7.934  20.510  0.00  0.00    +0.000 A 
ATOM     18  C   UNL     1       2.342   7.236  19.516  0.00  0.00    +0.000 A 
ATOM     19  C   UNL     1       2.342   7.770  18.218  0.00  0.00    +0.000 A 
ATOM     20  C   UNL     1       1.695   8.972  17.920  0.00  0.00    +0.000 A 
BRANCH  15  22
ATOM     21  C   UNL     1      -1.014  10.760  18.540  0.00  0.00    +0.000 C 
ATOM     22  O   UNL     1       0.394  10.867  18.743  0.00  0.00    +0.000 OA
ENDBRANCH  15  22
ENDBRANCH  13  18
ENDBRANCH   1  13
TORSDOF 5
ENDMDL
MODEL 2
REMARK VINA RESULT:      -6.8      0.329      1.150
REMARK  Name = 
REMARK  6 active torsions:
REMARK  status: ('A' for Active; 'I' for Inactive)
REMARK    1  A    between atoms: C_1  and  O_2
REMARK    2  A    between atoms: O_2  and  C_3
REMARK    3  A    between atoms: C_6  and  N_7
REMARK    4  A    between atoms: N_7  and  C_8
REMARK    5  A    between atoms: C_13  and  S_14
REMARK    6  A    between atoms: S_14  and  N_15
REMARK                            x       y       z     vdW  Elec       q    Type
REMARK                         _______ _______ _______ _____ _____    ______ ____
ROOT
ATOM      1  C   UNL     1       2.921   4.946  19.085  0.00  0.00    +0.000 A 
ATOM      2  N   UNL     1       1.722   4.308  19.107  0.00  0.00    +0.000 NA
ATOM      3  C   UNL     1       1.549   3.191  18.372  0.00  0.00    +0.000 A 
ATOM      4  C   UNL     1       2.520   2.675  17.541  0.00  0.00    +0.000 A 
ATOM      5  C   UNL     1       3.750   3.317  17.505  0.00  0.00    +0.000 A 
ATOM      6  C   UNL     1       3.963   4.448  18.306  0.00  0.00    +0.000 A 
ENDROOT
BRANCH   6   7
ATOM      7  S   UNL     1       5.580   5.141  18.373  0.00  0.00    +0.000 S 
ATOM      8  O   UNL     1       5.555   6.429  17.713  0.00  0.00    +0.000 OA
ATOM      9  O   UNL     1       6.080   4.989  19.727  0.00  0.00    +0.000 OA
BRANCH   7  10
ATOM     10  N   UNL     1       6.500   4.124  17.398  0.00  0.00    +0.000 NA
ATOM     11  H   UNL     1       5.891   3.439  16.943  0.00  0.00    +0.000 HD
ATOM     12  H   UNL     1       7.296   3.690  17.862  0.00  0.00    +0.000 HD
ENDBRANCH   7  10
ENDBRANCH   6   7
BRANCH   1  13
ATOM     13  N   UNL     1       3.032   6.140  19.823  0.00  0.00    +0.000 N 
ATOM     14  H   UNL     1       3.200   5.957  20.811  0.00  0.00    +0.000 HD
BRANCH  13  18
ATOM     15  C   UNL     1       0.866   9.677  18.964  0.00  0.00    +0.000 A 
ATOM     16  C   UNL     1       1.630   9.058  17.974  0.00  0.00    +0.000 A 
ATOM     17  C   UNL     1       2.362   7.896  18.258  0.00  0.00    +0.000 A 
ATOM     18  C   UNL     1       2.371   7.357  19.549  0.00  0.00    +0.000 A 
ATOM     19  C   UNL     1       1.635   8.021  20.542  0.00  0.00    +0.000 A 
ATOM     20  C   UNL     1       0.893   9.171  20.259  0.00  0.00    +0.000 A 
BRANCH  15  22
ATOM     21  C   UNL     1      -0.744  11.285  19.567  0.00  0.00    +0.000 C 
ATOM     22  O   UNL     1       0.154  10.781  18.579  0.00  0.00    +0.000 OA
ENDBRANCH  15  22
ENDBRANCH  13  18
ENDBRANCH   1  13
TORSDOF 5
ENDMDL
MODEL 3
REMARK VINA RESULT:      -6.7      3.381      6.147
REMARK  Name = 
REMARK  6 active torsions:
REMARK  status: ('A' for Active; 'I' for Inactive)
REMARK    1  A    between atoms: C_1  and  O_2
REMARK    2  A    between atoms: O_2  and  C_3
REMARK    3  A    between atoms: C_6  and  N_7
REMARK    4  A    between atoms: N_7  and  C_8
REMARK    5  A    between atoms: C_13  and  S_14
REMARK    6  A    between atoms: S_14  and  N_15
REMARK                            x       y       z     vdW  Elec       q    Type
REMARK                         _______ _______ _______ _____ _____    ______ ____
ROOT
ATOM      1  C   UNL     1       3.318   4.727  18.954  0.00  0.00    +0.000 A 
ATOM      2  N   UNL     1       3.328   6.031  18.574  0.00  0.00    +0.000 NA
ATOM      3  C   UNL     1       2.608   6.932  19.273  0.00  0.00    +0.000 A 
ATOM      4  C   UNL     1       1.805   6.595  20.341  0.00  0.00    +0.000 A 
ATOM      5  C   UNL     1       1.782   5.265  20.739  0.00  0.00    +0.000 A 
ATOM      6  C   UNL     1       2.568   4.326  20.058  0.00  0.00    +0.000 A 
ENDROOT
BRANCH   6   7
ATOM      7  S   UNL     1       2.655   2.684  20.687  0.00  0.00    +0.000 S 
ATOM      8  O   UNL     1       4.041   2.264  20.686  0.00  0.00    +0.000 OA
ATOM      9  O   UNL     1       1.840   2.617  21.885  0.00  0.00    +0.000 OA
BRANCH   7  10
ATOM     10  N   UNL     1       1.877   1.758  19.517  0.00  0.00    +0.000 NA
ATOM     11  H   UNL     1       1.112   2.297  19.102  0.00  0.00    +0.000 HD
ATOM     12  H   UNL     1       1.578   0.835  19.829  0.00  0.00    +0.000 HD
ENDBRANCH   7  10
ENDBRANCH   6   7
BRANCH   1  13
ATOM     13  N   UNL     1       4.039   3.817  18.157  0.00  0.00    +0.000 N 
ATOM     14  H   UNL     1       4.151   2.917  18.621  0.00  0.00    +0.000 HD
BRANCH  13  18
ATOM     15  C   UNL     1       7.039   4.993  15.408  0.00  0.00    +0.000 A 
ATOM     16  C   UNL     1       5.782   4.591  14.953  0.00  0.00    +0.000 A 
ATOM     17  C   UNL     1       4.791   4.186  15.859  0.00  0.00    +0.000 A 
ATOM     18  C   UNL     1       5.055   4.138  17.231  0.00  0.00    +0.000 A 
ATOM     19  C   UNL     1       6.341   4.499  17.665  0.00  0.00    +0.000 A 
ATOM     20  C   UNL     1       7.326   4.918  16.767  0.00  0.00    +0.000 A 
BRANCH  15  22
ATOM     21  C   UNL     1       7.569   5.055  13.116  0.00  0.00    +0.000 C 
ATOM     22  O   UNL     1       7.924   5.411  14.452  0.00  0.00    +0.000 OA
ENDBRANCH  15  22
ENDBRANCH  13  18
ENDBRANCH   1  13
TORSDOF 5
ENDMDL
MODEL 4
REMARK VINA RESULT:      -6.7      3.442      6.090
REMARK  Name = 
REMARK  6 active torsions:
REMARK  status: ('A' for Active; 'I' for Inactive)
REMARK    1  A    between atoms: C_1  and  O_2
REMARK    2  A    between atoms: O_2  and  C_3
REMARK    3  A    between atoms: C_6  and  N_7
REMARK    4  A    between atoms: N_7  and  C_8
REMARK    5  A    between atoms: C_13  and  S_14
REMARK    6  A    between atoms: S_14  and  N_15
REMARK                            x       y       z     vdW  Elec       q    Type
REMARK                         _______ _______ _______ _____ _____    ______ ____
ROOT
ATOM      1  C   UNL     1       3.195   4.873  18.410  0.00  0.00    +0.000 A 
ATOM      2  N   UNL     1       2.946   6.186  18.162  0.00  0.00    +0.000 NA
ATOM      3  C   UNL     1       2.393   6.950  19.126  0.00  0.00    +0.000 A 
ATOM      4  C   UNL     1       2.008   6.458  20.354  0.00  0.00    +0.000 A 
ATOM      5  C   UNL     1       2.253   5.118  20.621  0.00  0.00    +0.000 A 
ATOM      6  C   UNL     1       2.878   4.323  19.650  0.00  0.00    +0.000 A 
ENDROOT
BRANCH   6   7
ATOM      7  S   UNL     1       3.332   2.676  20.073  0.00  0.00    +0.000 S 
ATOM      8  O   UNL     1       3.184   2.511  21.503  0.00  0.00    +0.000 OA
ATOM      9  O   UNL     1       2.690   1.776  19.133  0.00  0.00    +0.000 OA
BRANCH   7  10
ATOM     10  N   UNL     1       4.983   2.614  19.755  0.00  0.00    +0.000 NA
ATOM     11  H   UNL     1       5.351   1.696  20.016  0.00  0.00    +0.000 HD
ATOM     12  H   UNL     1       5.525   3.380  20.153  0.00  0.00    +0.000 HD
ENDBRANCH   7  10
ENDBRANCH   6   7
BRANCH   1  13
ATOM     13  N   UNL     1       3.719   4.105  17.352  0.00  0.00    +0.000 N 
ATOM     14  H   UNL     1       3.527   3.113  17.477  0.00  0.00    +0.000 HD
BRANCH  13  18
ATOM     15  C   UNL     1       7.108   5.169  15.046  0.00  0.00    +0.000 A 
ATOM     16  C   UNL     1       6.112   4.355  14.504  0.00  0.00    +0.000 A 
ATOM     17  C   UNL     1       4.996   3.987  15.270  0.00  0.00    +0.000 A 
ATOM     18  C   UNL     1       4.879   4.396  16.602  0.00  0.00    +0.000 A 
ATOM     19  C   UNL     1       5.915   5.173  17.143  0.00  0.00    +0.000 A 
ATOM     20  C   UNL     1       7.021   5.554  16.379  0.00  0.00    +0.000 A 
BRANCH  15  22
ATOM     21  C   UNL     1       7.872   5.287  12.823  0.00  0.00    +0.000 C 
ATOM     22  O   UNL     1       8.136   5.507  14.208  0.00  0.00    +0.000 OA
ENDBRANCH  15  22
ENDBRANCH  13  18
ENDBRANCH   1  13
TORSDOF 5
ENDMDL
MODEL 5
REMARK VINA RESULT:      -6.7      3.508      6.064
REMARK  Name = 
REMARK  6 active torsions:
REMARK  status: ('A' for Active; 'I' for Inactive)
REMARK    1  A    between atoms: C_1  and  O_2
REMARK    2  A    between atoms: O_2  and  C_3
REMARK    3  A    between atoms: C_6  and  N_7
REMARK    4  A    between atoms: N_7  and  C_8
REMARK    5  A    between atoms: C_13  and  S_14
REMARK    6  A    between atoms: S_14  and  N_15
REMARK                            x       y       z     vdW  Elec       q    Type
REMARK                         _______ _______ _______ _____ _____    ______ ____
ROOT
ATOM      1  C   UNL     1       3.304   4.754  18.740  0.00  0.00    +0.000 A 
ATOM      2  N   UNL     1       3.129   6.074  18.468  0.00  0.00    +0.000 NA
ATOM      3  C   UNL     1       2.467   6.852  19.348  0.00  0.00    +0.000 A 
ATOM      4  C   UNL     1       1.900   6.370  20.507  0.00  0.00    +0.000 A 
ATOM      5  C   UNL     1       2.067   5.023  20.798  0.00  0.00    +0.000 A 
ATOM      6  C   UNL     1       2.800   4.212  19.921  0.00  0.00    +0.000 A 
ENDROOT
BRANCH   6   7
ATOM      7  S   UNL     1       3.143   2.552  20.395  0.00  0.00    +0.000 S 
ATOM      8  O   UNL     1       2.984   2.441  21.829  0.00  0.00    +0.000 OA
ATOM      9  O   UNL     1       2.444   1.668  19.480  0.00  0.00    +0.000 OA
BRANCH   7  10
ATOM     10  N   UNL     1       4.787   2.371  20.083  0.00  0.00    +0.000 NA
ATOM     11  H   UNL     1       5.053   1.389  20.187  0.00  0.00    +0.000 HD
ATOM     12  H   UNL     1       5.395   2.997  20.610  0.00  0.00    +0.000 HD
ENDBRANCH   7  10
ENDBRANCH   6   7
BRANCH   1  13
ATOM     13  N   UNL     1       3.949   3.973  17.763  0.00  0.00    +0.000 N 
ATOM     14  H   UNL     1       4.020   2.998  18.047  0.00  0.00    +0.000 HD
BRANCH  13  18
ATOM     15  C   UNL     1       7.023   5.068  15.063  0.00  0.00    +0.000 A 
ATOM     16  C   UNL     1       7.276   5.007  16.434  0.00  0.00    +0.000 A 
ATOM     17  C   UNL     1       6.257   4.660  17.333  0.00  0.00    +0.000 A 
ATOM     18  C   UNL     1       4.959   4.408  16.877  0.00  0.00    +0.000 A 
ATOM     19  C   UNL     1       4.714   4.522  15.500  0.00  0.00    +0.000 A 
ATOM     20  C   UNL     1       5.730   4.852  14.599  0.00  0.00    +0.000 A 
BRANCH  15  22
ATOM     21  C   UNL     1       7.868   5.170  12.868  0.00  0.00    +0.000 C 
ATOM     22  O   UNL     1       8.091   5.373  14.263  0.00  0.00    +0.000 OA
ENDBRANCH  15  22
ENDBRANCH  13  18
ENDBRANCH   1  13
TORSDOF 5
ENDMDL
MODEL 6
REMARK VINA RESULT:      -6.7      3.518      6.128
REMARK  Name = 
REMARK  6 active torsions:
REMARK  status: ('A' for Active; 'I' for Inactive)
REMARK    1  A    between atoms: C_1  and  O_2
REMARK    2  A    between atoms: O_2  and  C_3
REMARK    3  A    between atoms: C_6  and  N_7
REMARK    4  A    between atoms: N_7  and  C_8
REMARK    5  A    between atoms: C_13  and  S_14
REMARK    6  A    between atoms: S_14  and  N_15
REMARK                            x       y       z     vdW  Elec       q    Type
REMARK                         _______ _______ _______ _____ _____    ______ ____
ROOT
ATOM      1  C   UNL     1       3.347   4.771  19.409  0.00  0.00    +0.000 A 
ATOM      2  N   UNL     1       3.480   6.086  19.099  0.00  0.00    +0.000 NA
ATOM      3  C   UNL     1       2.630   6.985  19.635  0.00  0.00    +0.000 A 
ATOM      4  C   UNL     1       1.580   6.637  20.457  0.00  0.00    +0.000 A 
ATOM      5  C   UNL     1       1.428   5.296  20.781  0.00  0.00    +0.000 A 
ATOM      6  C   UNL     1       2.337   4.356  20.275  0.00  0.00    +0.000 A 
ENDROOT
BRANCH   6   7
ATOM      7  S   UNL     1       2.227   2.691  20.836  0.00  0.00    +0.000 S 
ATOM      8  O   UNL     1       1.491   2.673  22.083  0.00  0.00    +0.000 OA
ATOM      9  O   UNL     1       1.840   1.861  19.711  0.00  0.00    +0.000 OA
BRANCH   7  10
ATOM     10  N   UNL     1       3.815   2.284  21.216  0.00  0.00    +0.000 NA
ATOM     11  H   UNL     1       3.896   2.105  22.220  0.00  0.00    +0.000 HD
ATOM     12  H   UNL     1       4.519   2.941  20.880  0.00  0.00    +0.000 HD
ENDBRANCH   7  10
ENDBRANCH   6   7
BRANCH   1  13
ATOM     13  N   UNL     1       4.221   3.866  18.777  0.00  0.00    +0.000 N 
ATOM     14  H   UNL     1       4.531   3.135  19.414  0.00  0.00    +0.000 HD
BRANCH  13  18
ATOM     15  C   UNL     1       6.879   4.977  15.672  0.00  0.00    +0.000 A 
ATOM     16  C   UNL     1       5.582   4.556  15.375  0.00  0.00    +0.000 A 
ATOM     17  C   UNL     1       4.704   4.172  16.399  0.00  0.00    +0.000 A 
ATOM     18  C   UNL     1       5.123   4.166  17.733  0.00  0.00    +0.000 A 
ATOM     19  C   UNL     1       6.446   4.546  18.006  0.00  0.00    +0.000 A 
ATOM     20  C   UNL     1       7.319   4.944  16.991  0.00  0.00    +0.000 A 
BRANCH  15  22
ATOM     21  C   UNL     1       7.255   4.818  13.354  0.00  0.00    +0.000 C 
ATOM     22  O   UNL     1       7.646   5.372  14.609  0.00  0.00    +0.000 OA
ENDBRANCH  15  22
ENDBRANCH  13  18
ENDBRANCH   1  13
TORSDOF 5
ENDMDL
MODEL 7
REMARK VINA RESULT:      -6.7      0.891      1.026
REMARK  Name = 
REMARK  6 active torsions:
REMARK  status: ('A' for Active; 'I' for Inactive)
REMARK    1  A    between atoms: C_1  and  O_2
REMARK    2  A    between atoms: O_2  and  C_3
REMARK    3  A    between atoms: C_6  and  N_7
REMARK    4  A    between atoms: N_7  and  C_8
REMARK    5  A    between atoms: C_13  and  S_14
REMARK    6  A    between atoms: S_14  and  N_15
REMARK                            x       y       z     vdW  Elec       q    Type
REMARK                         _______ _______ _______ _____ _____    ______ ____
ROOT
ATOM      1  C   UNL     1       2.474   4.797  19.666  0.00  0.00    +0.000 A 
ATOM      2  N   UNL     1       1.318   4.374  20.240  0.00  0.00    +0.000 NA
ATOM      3  C   UNL     1       0.838   3.149  19.943  0.00  0.00    +0.000 A 
ATOM      4  C   UNL     1       1.435   2.302  19.035  0.00  0.00    +0.000 A 
ATOM      5  C   UNL     1       2.616   2.722  18.437  0.00  0.00    +0.000 A 
ATOM      6  C   UNL     1       3.157   3.970  18.777  0.00  0.00    +0.000 A 
ENDROOT
BRANCH   6   7
ATOM      7  S   UNL     1       4.739   4.405  18.138  0.00  0.00    +0.000 S 
ATOM      8  O   UNL     1       4.599   5.607  17.345  0.00  0.00    +0.000 OA
ATOM      9  O   UNL     1       5.701   4.314  19.220  0.00  0.00    +0.000 OA
BRANCH   7  10
ATOM     10  N   UNL     1       5.098   3.163  17.061  0.00  0.00    +0.000 NA
ATOM     11  H   UNL     1       4.354   2.461  17.082  0.00  0.00    +0.000 HD
ATOM     12  H   UNL     1       6.024   2.752  17.174  0.00  0.00    +0.000 HD
ENDBRANCH   7  10
ENDBRANCH   6   7
BRANCH   1  13
ATOM     13  N   UNL     1       2.902   6.105  19.963  0.00  0.00    +0.000 N 
ATOM     14  H   UNL     1       3.429   6.141  20.833  0.00  0.00    +0.000 HD
BRANCH  13  18
ATOM     15  C   UNL     1       1.073   9.801  18.992  0.00  0.00    +0.000 A 
ATOM     16  C   UNL     1       0.943   9.263  20.274  0.00  0.00    +0.000 A 
ATOM     17  C   UNL     1       1.533   8.031  20.595  0.00  0.00    +0.000 A 
ATOM     18  C   UNL     1       2.230   7.301  19.627  0.00  0.00    +0.000 A 
ATOM     19  C   UNL     1       2.308   7.836  18.332  0.00  0.00    +0.000 A 
ATOM     20  C   UNL     1       1.735   9.069  18.012  0.00  0.00    +0.000 A 
BRANCH  15  22
ATOM     21  C   UNL     1      -0.928  11.022  18.790  0.00  0.00    +0.000 C 
ATOM     22  O   UNL     1       0.499  11.026  18.789  0.00  0.00    +0.000 OA
ENDBRANCH  15  22
ENDBRANCH  13  18
ENDBRANCH   1  13
TORSDOF 5
ENDMDL
MODEL 8
REMARK VINA RESULT:      -6.7      0.858      1.020
REMARK  Name = 
REMARK  6 active torsions:
REMARK  status: ('A' for Active; 'I' for Inactive)
REMARK    1  A    between atoms: C_1  and  O_2
REMARK    2  A    between atoms: O_2  and  C_3
REMARK    3  A    between atoms: C_6  and  N_7
REMARK    4  A    between atoms: N_7  and  C_8
REMARK    5  A    between atoms: C_13  and  S_14
REMARK    6  A    between atoms: S_14  and  N_15
REMARK                            x       y       z     vdW  Elec       q    Type
REMARK                         _______ _______ _______ _____ _____    ______ ____
ROOT
ATOM      1  C   UNL     1       3.001   4.970  18.977  0.00  0.00    +0.000 A 
ATOM      2  N   UNL     1       1.827   4.304  19.139  0.00  0.00    +0.000 NA
ATOM      3  C   UNL     1       1.626   3.143  18.485  0.00  0.00    +0.000 A 
ATOM      4  C   UNL     1       2.537   2.603  17.603  0.00  0.00    +0.000 A 
ATOM      5  C   UNL     1       3.739   3.273  17.423  0.00  0.00    +0.000 A 
ATOM      6  C   UNL     1       3.987   4.454  18.138  0.00  0.00    +0.000 A 
ENDROOT
BRANCH   6   7
ATOM      7  S   UNL     1       5.581   5.190  18.024  0.00  0.00    +0.000 S 
ATOM      8  O   UNL     1       6.443   4.306  17.268  0.00  0.00    +0.000 OA
ATOM      9  O   UNL     1       5.409   6.583  17.658  0.00  0.00    +0.000 OA
BRANCH   7  10
ATOM     10  N   UNL     1       6.152   5.171  19.607  0.00  0.00    +0.000 NA
ATOM     11  H   UNL     1       6.697   4.320  19.768  0.00  0.00    +0.000 HD
ATOM     12  H   UNL     1       5.440   5.319  20.322  0.00  0.00    +0.000 HD
ENDBRANCH   7  10
ENDBRANCH   6   7
BRANCH   1  13
ATOM     13  N   UNL     1       3.138   6.207  19.634  0.00  0.00    +0.000 N 
ATOM     14  H   UNL     1       3.490   6.092  20.583  0.00  0.00    +0.000 HD
BRANCH  13  18
ATOM     15  C   UNL     1       0.927   9.773  19.061  0.00  0.00    +0.000 A 
ATOM     16  C   UNL     1       0.937   9.141  20.305  0.00  0.00    +0.000 A 
ATOM     17  C   UNL     1       1.655   7.951  20.495  0.00  0.00    +0.000 A 
ATOM     18  C   UNL     1       2.341   7.355  19.432  0.00  0.00    +0.000 A 
ATOM     19  C   UNL     1       2.278   7.980  18.177  0.00  0.00    +0.000 A 
ATOM     20  C   UNL     1       1.577   9.174  17.988  0.00  0.00    +0.000 A 
BRANCH  15  22
ATOM     21  C   UNL     1      -1.180  10.820  19.136  0.00  0.00    +0.000 C 
ATOM     22  O   UNL     1       0.233  10.951  18.986  0.00  0.00    +0.000 OA
ENDBRANCH  15  22
ENDBRANCH  13  18
ENDBRANCH   1  13
TORSDOF 5
ENDMDL
MODEL 9
REMARK VINA RESULT:      -6.6      0.881      1.512
REMARK  Name = 
REMARK  6 active torsions:
REMARK  status: ('A' for Active; 'I' for Inactive)
REMARK    1  A    between atoms: C_1  and  O_2
REMARK    2  A    between atoms: O_2  and  C_3
REMARK    3  A    between atoms: C_6  and  N_7
REMARK    4  A    between atoms: N_7  and  C_8
REMARK    5  A    between atoms: C_13  and  S_14
REMARK    6  A    between atoms: S_14  and  N_15
REMARK                            x       y       z     vdW  Elec       q    Type
REMARK                         _______ _______ _______ _____ _____    ______ ____
ROOT
ATOM      1  C   UNL     1       2.949   5.014  18.976  0.00  0.00    +0.000 A 
ATOM      2  N   UNL     1       1.763   4.370  19.131  0.00  0.00    +0.000 NA
ATOM      3  C   UNL     1       1.530   3.233  18.443  0.00  0.00    +0.000 A 
ATOM      4  C   UNL     1       2.419   2.702  17.535  0.00  0.00    +0.000 A 
ATOM      5  C   UNL     1       3.634   3.351  17.363  0.00  0.00    +0.000 A 
ATOM      6  C   UNL     1       3.915   4.503  18.111  0.00  0.00    +0.000 A 
ENDROOT
BRANCH   6   7
ATOM      7  S   UNL     1       5.524   5.208  18.003  0.00  0.00    +0.000 S 
ATOM      8  O   UNL     1       6.366   4.315  17.235  0.00  0.00    +0.000 OA
ATOM      9  O   UNL     1       5.380   6.608  17.652  0.00  0.00    +0.000 OA
BRANCH   7  10
ATOM     10  N   UNL     1       6.096   5.160  19.584  0.00  0.00    +0.000 NA
ATOM     11  H   UNL     1       7.119   5.198  19.583  0.00  0.00    +0.000 HD
ATOM     12  H   UNL     1       5.736   4.390  20.147  0.00  0.00    +0.000 HD
ENDBRANCH   7  10
ENDBRANCH   6   7
BRANCH   1  13
ATOM     13  N   UNL     1       3.120   6.227  19.670  0.00  0.00    +0.000 N 
ATOM     14  H   UNL     1       3.431   6.072  20.627  0.00  0.00    +0.000 HD
BRANCH  13  18
ATOM     15  C   UNL     1       0.741   9.673  19.035  0.00  0.00    +0.000 A 
ATOM     16  C   UNL     1       1.491   9.130  17.991  0.00  0.00    +0.000 A 
ATOM     17  C   UNL     1       2.293   7.999  18.201  0.00  0.00    +0.000 A 
ATOM     18  C   UNL     1       2.387   7.417  19.469  0.00  0.00    +0.000 A 
ATOM     19  C   UNL     1       1.663   8.006  20.517  0.00  0.00    +0.000 A 
ATOM     20  C   UNL     1       0.851   9.124  20.308  0.00  0.00    +0.000 A 
BRANCH  15  22
ATOM     21  C   UNL     1      -1.228  10.433  17.992  0.00  0.00    +0.000 C 
ATOM     22  O   UNL     1      -0.043  10.750  18.722  0.00  0.00    +0.000 OA
ENDBRANCH  15  22
ENDBRANCH  13  18
ENDBRANCH   1  13
TORSDOF 5
ENDMDL
