MODEL 1
REMARK VINA RESULT:      -6.9      0.000      0.000
REMARK  Name = 
REMARK  3 active torsions:
REMARK  status: ('A' for Active; 'I' for Inactive)
REMARK    1  A    between atoms: N_2  and  C_3
REMARK    2  A    between atoms: C_4  and  O_5
REMARK    3  A    between atoms: C_14  and  O_15
REMARK                            x       y       z     vdW  Elec       q    Type
REMARK                         _______ _______ _______ _____ _____    ______ ____
ROOT
ATOM      1  C   UNL     1       6.485   5.123  16.255  0.00  0.00    +0.000 A 
ATOM      2  C   UNL     1       6.162   6.365  16.807  0.00  0.00    +0.000 A 
ATOM      3  N   UNL     1       5.035   6.621  17.506  0.00  0.00    +0.000 NA
ATOM      4  C   UNL     1       4.155   5.633  17.693  0.00  0.00    +0.000 A 
ATOM      5  C   UNL     1       3.002   5.927  18.409  0.00  0.00    +0.000 A 
ATOM      6  C   UNL     1       2.017   4.968  18.649  0.00  0.00    +0.000 A 
ATOM      7  C   UNL     1       2.194   3.680  18.170  0.00  0.00    +0.000 A 
ATOM      8 CL   UNL     1       0.991   2.485  18.451  0.00  0.00    +0.000 Cl
ATOM      9  C   UNL     1       3.347   3.352  17.455  0.00  0.00    +0.000 A 
ATOM     10  C   UNL     1       4.345   4.326  17.193  0.00  0.00    +0.000 A 
ATOM     11  C   UNL     1       5.540   4.100  16.459  0.00  0.00    +0.000 A 
ENDROOT
BRANCH   1  13
ATOM     12  O   UNL     1       7.736   5.585  14.498  0.00  0.00    +0.000 OA
ATOM     13  N   UNL     1       7.617   4.866  15.497  0.00  0.00    +0.000 NA
ENDBRANCH   1  13
BRANCH   2  14
ATOM     14  O   UNL     1       6.955   7.474  16.673  0.00  0.00    +0.000 OA
ATOM     15  H   UNL     1       7.742   7.214  16.162  0.00  0.00    +0.000 HD
ENDBRANCH   2  14
BRANCH  11  16
ATOM     16  O   UNL     1       5.820   2.862  15.916  0.00  0.00    +0.000 OA
ATOM     17  H   UNL     1       6.263   2.283  16.553  0.00  0.00    +0.000 HD
ENDBRANCH  11  16
TORSDOF 3
ENDMDL
MODEL 2
REMARK VINA RESULT:      -6.8      2.110      2.639
REMARK  Name = 
REMARK  3 active torsions:
REMARK  status: ('A' for Active; 'I' for Inactive)
REMARK    1  A    between atoms: N_2  and  C_3
REMARK    2  A    between atoms: C_4  and  O_5
REMARK    3  A    between atoms: C_14  and  O_15
REMARK                            x       y       z     vdW  Elec       q    Type
REMARK                         _______ _______ _______ _____ _____    ______ ____
ROOT
ATOM      1  C   UNL     1       6.435   4.601  17.342  0.00  0.00    +0.000 A 
ATOM      2  C   UNL     1       5.775   4.184  16.183  0.00  0.00    +0.000 A 
ATOM      3  N   UNL     1       4.482   3.795  16.138  0.00  0.00    +0.000 NA
ATOM      4  C   UNL     1       3.769   3.799  17.268  0.00  0.00    +0.000 A 
ATOM      5  C   UNL     1       2.444   3.387  17.194  0.00  0.00    +0.000 A 
ATOM      6  C   UNL     1       1.619   3.346  18.318  0.00  0.00    +0.000 A 
ATOM      7  C   UNL     1       2.128   3.737  19.546  0.00  0.00    +0.000 A 
ATOM      8 CL   UNL     1       1.129   3.689  20.944  0.00  0.00    +0.000 Cl
ATOM      9  C   UNL     1       3.451   4.165  19.651  0.00  0.00    +0.000 A 
ATOM     10  C   UNL     1       4.302   4.194  18.516  0.00  0.00    +0.000 A 
ATOM     11  C   UNL     1       5.665   4.591  18.521  0.00  0.00    +0.000 A 
ENDROOT
BRANCH   1  13
ATOM     12  O   UNL     1       8.517   4.072  17.843  0.00  0.00    +0.000 OA
ATOM     13  N   UNL     1       7.774   4.957  17.403  0.00  0.00    +0.000 NA
ENDBRANCH   1  13
BRANCH   2  14
ATOM     14  O   UNL     1       6.386   4.102  14.960  0.00  0.00    +0.000 OA
ATOM     15  H   UNL     1       6.909   4.914  14.837  0.00  0.00    +0.000 HD
ENDBRANCH   2  14
BRANCH  11  16
ATOM     16  O   UNL     1       6.289   4.984  19.688  0.00  0.00    +0.000 OA
ATOM     17  H   UNL     1       6.572   4.224  20.215  0.00  0.00    +0.000 HD
ENDBRANCH  11  16
TORSDOF 3
ENDMDL
MODEL 3
REMARK VINA RESULT:      -6.6      3.712      4.945
REMARK  Name = 
REMARK  3 active torsions:
REMARK  status: ('A' for Active; 'I' for Inactive)
REMARK    1  A    between atoms: N_2  and  C_3
REMARK    2  A    between atoms: C_4  and  O_5
REMARK    3  A    between atoms: C_14  and  O_15
REMARK                            x       y       z     vdW  Elec       q    Type
REMARK                         _______ _______ _______ _____ _____    ______ ____
ROOT
ATOM      1  C   UNL     1       2.870   3.516  19.923  0.00  0.00    +0.000 A 
ATOM      2  C   UNL     1       2.870   4.892  20.167  0.00  0.00    +0.000 A 
ATOM      3  N   UNL     1       3.411   5.815  19.341  0.00  0.00    +0.000 NA
ATOM      4  C   UNL     1       3.993   5.404  18.210  0.00  0.00    +0.000 A 
ATOM      5  C   UNL     1       4.547   6.373  17.384  0.00  0.00    +0.000 A 
ATOM      6  C   UNL     1       5.185   6.047  16.187  0.00  0.00    +0.000 A 
ATOM      7  C   UNL     1       5.262   4.718  15.801  0.00  0.00    +0.000 A 
ATOM      8 CL   UNL     1       6.049   4.294  14.333  0.00  0.00    +0.000 Cl
ATOM      9  C   UNL     1       4.707   3.723  16.605  0.00  0.00    +0.000 A 
ATOM     10  C   UNL     1       4.070   4.045  17.832  0.00  0.00    +0.000 A 
ATOM     11  C   UNL     1       3.494   3.107  18.729  0.00  0.00    +0.000 A 
ENDROOT
BRANCH   1  13
ATOM     12  O   UNL     1       2.719   2.693  21.964  0.00  0.00    +0.000 OA
ATOM     13  N   UNL     1       2.358   2.561  20.789  0.00  0.00    +0.000 NA
ENDBRANCH   1  13
BRANCH   2  14
ATOM     14  O   UNL     1       2.335   5.454  21.296  0.00  0.00    +0.000 OA
ATOM     15  H   UNL     1       3.070   5.815  21.822  0.00  0.00    +0.000 HD
ENDBRANCH   2  14
BRANCH  11  16
ATOM     16  O   UNL     1       3.525   1.753  18.463  0.00  0.00    +0.000 OA
ATOM     17  H   UNL     1       4.136   1.544  17.742  0.00  0.00    +0.000 HD
ENDBRANCH  11  16
TORSDOF 3
ENDMDL
MODEL 4
REMARK VINA RESULT:      -6.5      1.772      1.780
REMARK  Name = 
REMARK  3 active torsions:
REMARK  status: ('A' for Active; 'I' for Inactive)
REMARK    1  A    between atoms: N_2  and  C_3
REMARK    2  A    between atoms: C_4  and  O_5
REMARK    3  A    between atoms: C_14  and  O_15
REMARK                            x       y       z     vdW  Elec       q    Type
REMARK                         _______ _______ _______ _____ _____    ______ ____
ROOT
ATOM      1  C   UNL     1       6.241   5.580  16.771  0.00  0.00    +0.000 A 
ATOM      2  C   UNL     1       5.129   6.284  16.300  0.00  0.00    +0.000 A 
ATOM      3  N   UNL     1       3.889   6.196  16.829  0.00  0.00    +0.000 NA
ATOM      4  C   UNL     1       3.690   5.384  17.873  0.00  0.00    +0.000 A 
ATOM      5  C   UNL     1       2.404   5.308  18.391  0.00  0.00    +0.000 A 
ATOM      6  C   UNL     1       2.092   4.483  19.472  0.00  0.00    +0.000 A 
ATOM      7  C   UNL     1       3.092   3.723  20.056  0.00  0.00    +0.000 A 
ATOM      8 CL   UNL     1       2.726   2.696  21.385  0.00  0.00    +0.000 Cl
ATOM      9  C   UNL     1       4.396   3.785  19.564  0.00  0.00    +0.000 A 
ATOM     10  C   UNL     1       4.718   4.609  18.454  0.00  0.00    +0.000 A 
ATOM     11  C   UNL     1       6.006   4.727  17.866  0.00  0.00    +0.000 A 
ENDROOT
BRANCH   1  13
ATOM     12  O   UNL     1       7.520   5.481  14.976  0.00  0.00    +0.000 OA
ATOM     13  N   UNL     1       7.505   5.631  16.203  0.00  0.00    +0.000 NA
ENDBRANCH   1  13
BRANCH   2  14
ATOM     14  O   UNL     1       5.177   7.129  15.224  0.00  0.00    +0.000 OA
ATOM     15  H   UNL     1       5.254   6.582  14.422  0.00  0.00    +0.000 HD
ENDBRANCH   2  14
BRANCH  11  16
ATOM     16  O   UNL     1       7.080   4.005  18.348  0.00  0.00    +0.000 OA
ATOM     17  H   UNL     1       7.855   4.094  17.776  0.00  0.00    +0.000 HD
ENDBRANCH  11  16
TORSDOF 3
ENDMDL
MODEL 5
REMARK VINA RESULT:      -6.5      1.466      1.466
REMARK  Name = 
REMARK  3 active torsions:
REMARK  status: ('A' for Active; 'I' for Inactive)
REMARK    1  A    between atoms: N_2  and  C_3
REMARK    2  A    between atoms: C_4  and  O_5
REMARK    3  A    between atoms: C_14  and  O_15
REMARK                            x       y       z     vdW  Elec       q    Type
REMARK                         _______ _______ _______ _____ _____    ______ ____
ROOT
ATOM      1  C   UNL     1       6.760   4.714  17.404  0.00  0.00    +0.000 A 
ATOM      2  C   UNL     1       6.752   5.488  18.567  0.00  0.00    +0.000 A 
ATOM      3  N   UNL     1       5.720   5.549  19.437  0.00  0.00    +0.000 NA
ATOM      4  C   UNL     1       4.622   4.830  19.184  0.00  0.00    +0.000 A 
ATOM      5  C   UNL     1       3.573   4.918  20.091  0.00  0.00    +0.000 A 
ATOM      6  C   UNL     1       2.381   4.215  19.912  0.00  0.00    +0.000 A 
ATOM      7  C   UNL     1       2.237   3.396  18.804  0.00  0.00    +0.000 A 
ATOM      8 CL   UNL     1       0.775   2.526  18.563  0.00  0.00    +0.000 Cl
ATOM      9  C   UNL     1       3.276   3.279  17.880  0.00  0.00    +0.000 A 
ATOM     10  C   UNL     1       4.485   4.004  18.046  0.00  0.00    +0.000 A 
ATOM     11  C   UNL     1       5.591   3.971  17.155  0.00  0.00    +0.000 A 
ENDROOT
BRANCH   1  13
ATOM     12  O   UNL     1       7.594   5.350  15.463  0.00  0.00    +0.000 OA
ATOM     13  N   UNL     1       7.798   4.684  16.484  0.00  0.00    +0.000 NA
ENDBRANCH   1  13
BRANCH   2  14
ATOM     14  O   UNL     1       7.794   6.294  18.939  0.00  0.00    +0.000 OA
ATOM     15  H   UNL     1       8.392   6.376  18.175  0.00  0.00    +0.000 HD
ENDBRANCH   2  14
BRANCH  11  16
ATOM     16  O   UNL     1       5.559   3.206  16.006  0.00  0.00    +0.000 OA
ATOM     17  H   UNL     1       6.450   2.999  15.690  0.00  0.00    +0.000 HD
ENDBRANCH  11  16
TORSDOF 3
ENDMDL
MODEL 6
REMARK VINA RESULT:      -6.4      3.951      5.447
REMARK  Name = 
REMARK  3 active torsions:
REMARK  status: ('A' for Active; 'I' for Inactive)
REMARK    1  A    between atoms: N_2  and  C_3
REMARK    2  A    between atoms: C_4  and  O_5
REMARK    3  A    between atoms: C_14  and  O_15
REMARK                            x       y       z     vdW  Elec       q    Type
REMARK                         _______ _______ _______ _____ _____    ______ ____
ROOT
ATOM      1  C   UNL     1       2.933   3.235  20.278  0.00  0.00    +0.000 A 
ATOM      2  C   UNL     1       4.162   3.061  19.636  0.00  0.00    +0.000 A 
ATOM      3  N   UNL     1       4.733   3.972  18.819  0.00  0.00    +0.000 NA
ATOM      4  C   UNL     1       4.094   5.124  18.592  0.00  0.00    +0.000 A 
ATOM      5  C   UNL     1       4.701   6.038  17.741  0.00  0.00    +0.000 A 
ATOM      6  C   UNL     1       4.111   7.265  17.433  0.00  0.00    +0.000 A 
ATOM      7  C   UNL     1       2.888   7.589  17.997  0.00  0.00    +0.000 A 
ATOM      8 CL   UNL     1       2.142   9.092  17.626  0.00  0.00    +0.000 Cl
ATOM      9  C   UNL     1       2.258   6.695  18.863  0.00  0.00    +0.000 A 
ATOM     10  C   UNL     1       2.844   5.439  19.169  0.00  0.00    +0.000 A 
ATOM     11  C   UNL     1       2.276   4.453  20.019  0.00  0.00    +0.000 A 
ENDROOT
BRANCH   1  13
ATOM     12  O   UNL     1       2.095   2.662  22.236  0.00  0.00    +0.000 OA
ATOM     13  N   UNL     1       2.319   2.285  21.080  0.00  0.00    +0.000 NA
ENDBRANCH   1  13
BRANCH   2  14
ATOM     14  O   UNL     1       4.914   1.922  19.754  0.00  0.00    +0.000 OA
ATOM     15  H   UNL     1       5.511   2.039  20.514  0.00  0.00    +0.000 HD
ENDBRANCH   2  14
BRANCH  11  16
ATOM     16  O   UNL     1       1.051   4.653  20.625  0.00  0.00    +0.000 OA
ATOM     17  H   UNL     1       0.908   4.033  21.354  0.00  0.00    +0.000 HD
ENDBRANCH  11  16
TORSDOF 3
ENDMDL
MODEL 7
REMARK VINA RESULT:      -6.4      4.110      5.834
REMARK  Name = 
REMARK  3 active torsions:
REMARK  status: ('A' for Active; 'I' for Inactive)
REMARK    1  A    between atoms: N_2  and  C_3
REMARK    2  A    between atoms: C_4  and  O_5
REMARK    3  A    between atoms: C_14  and  O_15
REMARK                            x       y       z     vdW  Elec       q    Type
REMARK                         _______ _______ _______ _____ _____    ______ ____
ROOT
ATOM      1  C   UNL     1       1.982   3.376  19.872  0.00  0.00    +0.000 A 
ATOM      2  C   UNL     1       2.016   2.518  18.771  0.00  0.00    +0.000 A 
ATOM      3  N   UNL     1       2.813   2.688  17.693  0.00  0.00    +0.000 NA
ATOM      4  C   UNL     1       3.630   3.745  17.657  0.00  0.00    +0.000 A 
ATOM      5  C   UNL     1       4.432   3.899  16.534  0.00  0.00    +0.000 A 
ATOM      6  C   UNL     1       5.311   4.974  16.396  0.00  0.00    +0.000 A 
ATOM      7  C   UNL     1       5.398   5.913  17.412  0.00  0.00    +0.000 A 
ATOM      8 CL   UNL     1       6.471   7.247  17.259  0.00  0.00    +0.000 Cl
ATOM      9  C   UNL     1       4.612   5.780  18.556  0.00  0.00    +0.000 A 
ATOM     10  C   UNL     1       3.704   4.699  18.697  0.00  0.00    +0.000 A 
ATOM     11  C   UNL     1       2.847   4.485  19.809  0.00  0.00    +0.000 A 
ENDROOT
BRANCH   1  13
ATOM     12  O   UNL     1       1.684   2.816  21.985  0.00  0.00    +0.000 OA
ATOM     13  N   UNL     1       1.133   3.232  20.960  0.00  0.00    +0.000 NA
ENDBRANCH   1  13
BRANCH   2  14
ATOM     14  O   UNL     1       1.216   1.412  18.657  0.00  0.00    +0.000 OA
ATOM     15  H   UNL     1       1.759   0.632  18.868  0.00  0.00    +0.000 HD
ENDBRANCH   2  14
BRANCH  11  16
ATOM     16  O   UNL     1       2.829   5.363  20.875  0.00  0.00    +0.000 OA
ATOM     17  H   UNL     1       3.632   5.903  20.906  0.00  0.00    +0.000 HD
ENDBRANCH  11  16
TORSDOF 3
ENDMDL
MODEL 8
REMARK VINA RESULT:      -6.3      2.057      2.617
REMARK  Name = 
REMARK  3 active torsions:
REMARK  status: ('A' for Active; 'I' for Inactive)
REMARK    1  A    between atoms: N_2  and  C_3
REMARK    2  A    between atoms: C_4  and  O_5
REMARK    3  A    between atoms: C_14  and  O_15
REMARK                            x       y       z     vdW  Elec       q    Type
REMARK                         _______ _______ _______ _____ _____    ______ ____
ROOT
ATOM      1  C   UNL     1       7.003   6.564  17.676  0.00  0.00    +0.000 A 
ATOM      2  C   UNL     1       7.322   5.959  18.895  0.00  0.00    +0.000 A 
ATOM      3  N   UNL     1       6.498   5.135  19.578  0.00  0.00    +0.000 NA
ATOM      4  C   UNL     1       5.289   4.870  19.072  0.00  0.00    +0.000 A 
ATOM      5  C   UNL     1       4.459   4.026  19.799  0.00  0.00    +0.000 A 
ATOM      6  C   UNL     1       3.176   3.695  19.363  0.00  0.00    +0.000 A 
ATOM      7  C   UNL     1       2.714   4.213  18.164  0.00  0.00    +0.000 A 
ATOM      8 CL   UNL     1       1.134   3.822  17.611  0.00  0.00    +0.000 Cl
ATOM      9  C   UNL     1       3.527   5.056  17.406  0.00  0.00    +0.000 A 
ATOM     10  C   UNL     1       4.828   5.411  17.852  0.00  0.00    +0.000 A 
ATOM     11  C   UNL     1       5.723   6.275  17.167  0.00  0.00    +0.000 A 
ENDROOT
BRANCH   1  13
ATOM     12  O   UNL     1       8.059   8.499  17.600  0.00  0.00    +0.000 OA
ATOM     13  N   UNL     1       7.827   7.447  16.994  0.00  0.00    +0.000 NA
ENDBRANCH   1  13
BRANCH   2  14
ATOM     14  O   UNL     1       8.511   6.160  19.544  0.00  0.00    +0.000 OA
ATOM     15  H   UNL     1       9.168   5.559  19.150  0.00  0.00    +0.000 HD
ENDBRANCH   2  14
BRANCH  11  16
ATOM     16  O   UNL     1       5.368   6.868  15.971  0.00  0.00    +0.000 OA
ATOM     17  H   UNL     1       4.408   6.894  15.857  0.00  0.00    +0.000 HD
ENDBRANCH  11  16
TORSDOF 3
ENDMDL
MODEL 9
REMARK VINA RESULT:      -6.3      2.717      3.543
REMARK  Name = 
REMARK  3 active torsions:
REMARK  status: ('A' for Active; 'I' for Inactive)
REMARK    1  A    between atoms: N_2  and  C_3
REMARK    2  A    between atoms: C_4  and  O_5
REMARK    3  A    between atoms: C_14  and  O_15
REMARK                            x       y       z     vdW  Elec       q    Type
REMARK                         _______ _______ _______ _____ _____    ______ ____
ROOT
ATOM      1  C   UNL     1       5.511   4.822  17.346  0.00  0.00    +0.000 A 
ATOM      2  C   UNL     1       5.061   4.269  18.548  0.00  0.00    +0.000 A 
ATOM      3  N   UNL     1       4.107   4.818  19.332  0.00  0.00    +0.000 NA
ATOM      4  C   UNL     1       3.545   5.970  18.952  0.00  0.00    +0.000 A 
ATOM      5  C   UNL     1       2.574   6.515  19.781  0.00  0.00    +0.000 A 
ATOM      6  C   UNL     1       1.935   7.718  19.478  0.00  0.00    +0.000 A 
ATOM      7  C   UNL     1       2.269   8.388  18.312  0.00  0.00    +0.000 A 
ATOM      8 CL   UNL     1       1.497   9.873  17.924  0.00  0.00    +0.000 Cl
ATOM      9  C   UNL     1       3.234   7.860  17.454  0.00  0.00    +0.000 A 
ATOM     10  C   UNL     1       3.900   6.646  17.763  0.00  0.00    +0.000 A 
ATOM     11  C   UNL     1       4.909   6.038  16.970  0.00  0.00    +0.000 A 
ENDROOT
BRANCH   1  13
ATOM     12  O   UNL     1       7.622   4.833  16.705  0.00  0.00    +0.000 OA
ATOM     13  N   UNL     1       6.521   4.288  16.561  0.00  0.00    +0.000 NA
ENDBRANCH   1  13
BRANCH   2  14
ATOM     14  O   UNL     1       5.564   3.109  19.075  0.00  0.00    +0.000 OA
ATOM     15  H   UNL     1       5.250   2.373  18.521  0.00  0.00    +0.000 HD
ENDBRANCH   2  14
BRANCH  11  16
ATOM     16  O   UNL     1       5.340   6.620  15.794  0.00  0.00    +0.000 OA
ATOM     17  H   UNL     1       4.665   7.202  15.416  0.00  0.00    +0.000 HD
ENDBRANCH  11  16
TORSDOF 3
ENDMDL
