MODEL 1
REMARK VINA RESULT:      -9.0      0.000      0.000
REMARK  Name = 
REMARK  5 active torsions:
REMARK  status: ('A' for Active; 'I' for Inactive)
REMARK    1  A    between atoms: S_2  and  C_4
REMARK    2  A    between atoms: S_2  and  N_14
REMARK    3  A    between atoms: C_20  and  N_21
REMARK    4  A    between atoms: N_21  and  C_22
REMARK    5  A    between atoms: C_22  and  C_23
REMARK                            x       y       z     vdW  Elec       q    Type
REMARK                         _______ _______ _______ _____ _____    ______ ____
ROOT
ATOM      1  N   UNL     1       2.538   3.833  19.182  0.00  0.00    +0.000 N 
ATOM      2  N   UNL     1       2.273   3.092  20.303  0.00  0.00    +0.000 NA
ATOM      3  C   UNL     1       1.860   4.002  21.186  0.00  0.00    +0.000 A 
ATOM      4  C   UNL     1       1.883   5.314  20.677  0.00  0.00    +0.000 A 
ATOM      5  C   UNL     1       1.569   6.583  21.184  0.00  0.00    +0.000 A 
ATOM      6  C   UNL     1       1.694   7.700  20.350  0.00  0.00    +0.000 A 
ATOM      7  C   UNL     1       2.163   7.602  19.038  0.00  0.00    +0.000 A 
ATOM      8  C   UNL     1       2.472   6.324  18.529  0.00  0.00    +0.000 A 
ATOM      9  C   UNL     1       2.329   5.192  19.362  0.00  0.00    +0.000 A 
ENDROOT
BRANCH   1  11
ATOM     10  O   UNL     1       2.454   3.645  16.670  0.00  0.00    +0.000 OA
ATOM     11  S   UNL     1       3.300   3.198  17.767  0.00  0.00    +0.000 S 
ATOM     12  O   UNL     1       3.531   1.787  18.010  0.00  0.00    +0.000 OA
BRANCH  11  13
ATOM     13  C   UNL     1       4.881   4.013  17.661  0.00  0.00    +0.000 A 
ATOM     14  C   UNL     1       5.433   4.470  18.870  0.00  0.00    +0.000 A 
ATOM     15  C   UNL     1       6.650   5.137  18.874  0.00  0.00    +0.000 A 
ATOM     16  C   UNL     1       7.315   5.362  17.673  0.00  0.00    +0.000 A 
ATOM     17  C   UNL     1       6.782   4.923  16.452  0.00  0.00    +0.000 A 
ATOM     18  C   UNL     1       7.498   5.174  15.270  0.00  0.00    +0.000 A 
ATOM     19  C   UNL     1       7.020   4.751  14.035  0.00  0.00    +0.000 A 
ATOM     20  C   UNL     1       5.810   4.076  13.967  0.00  0.00    +0.000 A 
ATOM     21  C   UNL     1       5.079   3.824  15.133  0.00  0.00    +0.000 A 
ATOM     22  C   UNL     1       5.540   4.232  16.414  0.00  0.00    +0.000 A 
ENDBRANCH  11  13
ENDBRANCH   1  11
BRANCH   7  23
ATOM     23  N   UNL     1       2.207   8.700  18.175  0.00  0.00    +0.000 N 
ATOM     24  H   UNL     1       3.016   9.299  18.330  0.00  0.00    +0.000 HD
BRANCH  23  25
ATOM     25  C   UNL     1       0.995   9.453  17.844  0.00  0.00    +0.000 C 
BRANCH  25  26
ATOM     26  C   UNL     1       0.358  10.051  19.116  0.00  0.00    +0.000 C 
ATOM     27  C   UNL     1      -1.142  10.332  18.935  0.00  0.00    +0.000 C 
ATOM     28  C   UNL     1      -1.385  11.507  17.989  0.00  0.00    +0.000 C 
ATOM     29  N   UNL     1      -0.718  12.722  18.462  0.00  0.00    +0.000 NA
ATOM     30  C   UNL     1       0.725  12.526  18.601  0.00  0.00    +0.000 C 
ATOM     31  C   UNL     1       1.062  11.358  19.530  0.00  0.00    +0.000 C 
ATOM     32  H   UNL     1      -1.106  12.973  19.373  0.00  0.00    +0.000 HD
ENDBRANCH  25  26
ENDBRANCH  23  25
ENDBRANCH   7  23
TORSDOF 5
ENDMDL
MODEL 2
REMARK VINA RESULT:      -8.7      3.663      9.179
REMARK  Name = 
REMARK  5 active torsions:
REMARK  status: ('A' for Active; 'I' for Inactive)
REMARK    1  A    between atoms: S_2  and  C_4
REMARK    2  A    between atoms: S_2  and  N_14
REMARK    3  A    between atoms: C_20  and  N_21
REMARK    4  A    between atoms: N_21  and  C_22
REMARK    5  A    between atoms: C_22  and  C_23
REMARK                            x       y       z     vdW  Elec       q    Type
REMARK                         _______ _______ _______ _____ _____    ______ ____
ROOT
ATOM      1  N   UNL     1       0.603  10.024  20.354  0.00  0.00    +0.000 N 
ATOM      2  N   UNL     1       0.055   9.840  21.595  0.00  0.00    +0.000 NA
ATOM      3  C   UNL     1       0.428   8.601  21.919  0.00  0.00    +0.000 A 
ATOM      4  C   UNL     1       1.172   7.967  20.906  0.00  0.00    +0.000 A 
ATOM      5  C   UNL     1       1.767   6.708  20.751  0.00  0.00    +0.000 A 
ATOM      6  C   UNL     1       2.475   6.429  19.576  0.00  0.00    +0.000 A 
ATOM      7  C   UNL     1       2.576   7.349  18.530  0.00  0.00    +0.000 A 
ATOM      8  C   UNL     1       1.981   8.618  18.693  0.00  0.00    +0.000 A 
ATOM      9  C   UNL     1       1.282   8.908  19.884  0.00  0.00    +0.000 A 
ENDROOT
BRANCH   1  11
ATOM     10  O   UNL     1       1.351  11.384  18.367  0.00  0.00    +0.000 OA
ATOM     11  S   UNL     1       0.278  11.393  19.351  0.00  0.00    +0.000 S 
ATOM     12  O   UNL     1       0.079  12.525  20.235  0.00  0.00    +0.000 OA
BRANCH  11  13
ATOM     13  C   UNL     1      -1.269  11.041  18.537  0.00  0.00    +0.000 A 
ATOM     14  C   UNL     1      -1.212  10.175  17.431  0.00  0.00    +0.000 A 
ATOM     15  C   UNL     1      -2.367   9.867  16.726  0.00  0.00    +0.000 A 
ATOM     16  C   UNL     1      -3.579  10.430  17.112  0.00  0.00    +0.000 A 
ATOM     17  C   UNL     1      -3.661  11.303  18.206  0.00  0.00    +0.000 A 
ATOM     18  C   UNL     1      -4.912  11.839  18.554  0.00  0.00    +0.000 A 
ATOM     19  C   UNL     1      -5.050  12.700  19.637  0.00  0.00    +0.000 A 
ATOM     20  C   UNL     1      -3.932  13.042  20.384  0.00  0.00    +0.000 A 
ATOM     21  C   UNL     1      -2.677  12.524  20.047  0.00  0.00    +0.000 A 
ATOM     22  C   UNL     1      -2.498  11.634  18.954  0.00  0.00    +0.000 A 
ENDBRANCH  11  13
ENDBRANCH   1  11
BRANCH   7  23
ATOM     23  N   UNL     1       3.352   7.109  17.394  0.00  0.00    +0.000 N 
ATOM     24  H   UNL     1       2.815   7.130  16.530  0.00  0.00    +0.000 HD
BRANCH  23  25
ATOM     25  C   UNL     1       4.394   6.079  17.392  0.00  0.00    +0.000 C 
BRANCH  25  26
ATOM     26  C   UNL     1       5.578   6.501  16.497  0.00  0.00    +0.000 C 
ATOM     27  C   UNL     1       5.900   5.446  15.426  0.00  0.00    +0.000 C 
ATOM     28  C   UNL     1       6.518   4.191  16.041  0.00  0.00    +0.000 C 
ATOM     29  N   UNL     1       7.736   4.506  16.791  0.00  0.00    +0.000 NA
ATOM     30  C   UNL     1       7.476   5.469  17.861  0.00  0.00    +0.000 C 
ATOM     31  C   UNL     1       6.845   6.760  17.335  0.00  0.00    +0.000 C 
ATOM     32  H   UNL     1       8.421   4.906  16.147  0.00  0.00    +0.000 HD
ENDBRANCH  25  26
ENDBRANCH  23  25
ENDBRANCH   7  23
TORSDOF 5
ENDMDL
MODEL 3
REMARK VINA RESULT:      -8.7      0.691      1.181
REMARK  Name = 
REMARK  5 active torsions:
REMARK  status: ('A' for Active; 'I' for Inactive)
REMARK    1  A    between atoms: S_2  and  C_4
REMARK    2  A    between atoms: S_2  and  N_14
REMARK    3  A    between atoms: C_20  and  N_21
REMARK    4  A    between atoms: N_21  and  C_22
REMARK    5  A    between atoms: C_22  and  C_23
REMARK                            x       y       z     vdW  Elec       q    Type
REMARK                         _______ _______ _______ _____ _____    ______ ____
ROOT
ATOM      1  N   UNL     1       2.603   3.742  19.154  0.00  0.00    +0.000 N 
ATOM      2  N   UNL     1       2.391   3.008  20.289  0.00  0.00    +0.000 NA
ATOM      3  C   UNL     1       1.959   3.912  21.169  0.00  0.00    +0.000 A 
ATOM      4  C   UNL     1       1.919   5.217  20.642  0.00  0.00    +0.000 A 
ATOM      5  C   UNL     1       1.563   6.479  21.139  0.00  0.00    +0.000 A 
ATOM      6  C   UNL     1       1.626   7.588  20.288  0.00  0.00    +0.000 A 
ATOM      7  C   UNL     1       2.072   7.491  18.967  0.00  0.00    +0.000 A 
ATOM      8  C   UNL     1       2.422   6.219  18.469  0.00  0.00    +0.000 A 
ATOM      9  C   UNL     1       2.343   5.095  19.320  0.00  0.00    +0.000 A 
ENDROOT
BRANCH   1  11
ATOM     10  O   UNL     1       2.493   3.544  16.643  0.00  0.00    +0.000 OA
ATOM     11  S   UNL     1       3.361   3.119  17.732  0.00  0.00    +0.000 S 
ATOM     12  O   UNL     1       3.624   1.713  17.976  0.00  0.00    +0.000 OA
BRANCH  11  13
ATOM     13  C   UNL     1       4.924   3.967  17.604  0.00  0.00    +0.000 A 
ATOM     14  C   UNL     1       5.478   4.441  18.805  0.00  0.00    +0.000 A 
ATOM     15  C   UNL     1       6.681   5.134  18.792  0.00  0.00    +0.000 A 
ATOM     16  C   UNL     1       7.328   5.366  17.583  0.00  0.00    +0.000 A 
ATOM     17  C   UNL     1       6.792   4.910  16.370  0.00  0.00    +0.000 A 
ATOM     18  C   UNL     1       7.490   5.170  15.179  0.00  0.00    +0.000 A 
ATOM     19  C   UNL     1       7.007   4.729  13.952  0.00  0.00    +0.000 A 
ATOM     20  C   UNL     1       5.811   4.028  13.900  0.00  0.00    +0.000 A 
ATOM     21  C   UNL     1       5.098   3.768  15.075  0.00  0.00    +0.000 A 
ATOM     22  C   UNL     1       5.565   4.193  16.349  0.00  0.00    +0.000 A 
ENDBRANCH  11  13
ENDBRANCH   1  11
BRANCH   7  23
ATOM     23  N   UNL     1       2.054   8.578  18.090  0.00  0.00    +0.000 N 
ATOM     24  H   UNL     1       2.585   8.412  17.237  0.00  0.00    +0.000 HD
BRANCH  23  25
ATOM     25  C   UNL     1       2.179   9.952  18.582  0.00  0.00    +0.000 C 
BRANCH  25  26
ATOM     26  C   UNL     1       0.953  10.793  18.171  0.00  0.00    +0.000 C 
ATOM     27  C   UNL     1       1.090  12.263  18.599  0.00  0.00    +0.000 C 
ATOM     28  C   UNL     1       0.974  12.421  20.115  0.00  0.00    +0.000 C 
ATOM     29  N   UNL     1      -0.296  11.888  20.613  0.00  0.00    +0.000 NA
ATOM     30  C   UNL     1      -0.454  10.473  20.279  0.00  0.00    +0.000 C 
ATOM     31  C   UNL     1      -0.344  10.219  18.773  0.00  0.00    +0.000 C 
ATOM     32  H   UNL     1      -1.060  12.415  20.187  0.00  0.00    +0.000 HD
ENDBRANCH  25  26
ENDBRANCH  23  25
ENDBRANCH   7  23
TORSDOF 5
ENDMDL
MODEL 4
REMARK VINA RESULT:      -8.6      4.405      9.821
REMARK  Name = 
REMARK  5 active torsions:
REMARK  status: ('A' for Active; 'I' for Inactive)
REMARK    1  A    between atoms: S_2  and  C_4
REMARK    2  A    between atoms: S_2  and  N_14
REMARK    3  A    between atoms: C_20  and  N_21
REMARK    4  A    between atoms: N_21  and  C_22
REMARK    5  A    between atoms: C_22  and  C_23
REMARK                            x       y       z     vdW  Elec       q    Type
REMARK                         _______ _______ _______ _____ _____    ______ ____
ROOT
ATOM      1  N   UNL     1      -1.009  12.114  21.166  0.00  0.00    +0.000 N 
ATOM      2  N   UNL     1      -1.579  12.332  22.391  0.00  0.00    +0.000 NA
ATOM      3  C   UNL     1      -1.218  11.260  23.098  0.00  0.00    +0.000 A 
ATOM      4  C   UNL     1      -0.458  10.339  22.352  0.00  0.00    +0.000 A 
ATOM      5  C   UNL     1       0.135   9.097  22.614  0.00  0.00    +0.000 A 
ATOM      6  C   UNL     1       0.862   8.462  21.601  0.00  0.00    +0.000 A 
ATOM      7  C   UNL     1       0.985   9.003  20.319  0.00  0.00    +0.000 A 
ATOM      8  C   UNL     1       0.394  10.257  20.061  0.00  0.00    +0.000 A 
ATOM      9  C   UNL     1      -0.326  10.909  21.087  0.00  0.00    +0.000 A 
ENDROOT
BRANCH   1  11
ATOM     10  O   UNL     1      -0.012  13.212  19.127  0.00  0.00    +0.000 OA
ATOM     11  S   UNL     1      -1.310  13.095  19.776  0.00  0.00    +0.000 S 
ATOM     12  O   UNL     1      -2.028  14.269  20.235  0.00  0.00    +0.000 OA
BRANCH  11  13
ATOM     13  C   UNL     1      -2.403  12.142  18.739  0.00  0.00    +0.000 A 
ATOM     14  C   UNL     1      -1.843  11.605  17.567  0.00  0.00    +0.000 A 
ATOM     15  C   UNL     1      -2.631  10.870  16.691  0.00  0.00    +0.000 A 
ATOM     16  C   UNL     1      -3.979  10.679  16.974  0.00  0.00    +0.000 A 
ATOM     17  C   UNL     1      -4.563  11.211  18.132  0.00  0.00    +0.000 A 
ATOM     18  C   UNL     1      -5.929  10.984  18.369  0.00  0.00    +0.000 A 
ATOM     19  C   UNL     1      -6.554  11.480  19.508  0.00  0.00    +0.000 A 
ATOM     20  C   UNL     1      -5.819  12.219  20.423  0.00  0.00    +0.000 A 
ATOM     21  C   UNL     1      -4.459  12.463  20.199  0.00  0.00    +0.000 A 
ATOM     22  C   UNL     1      -3.784  11.964  19.052  0.00  0.00    +0.000 A 
ENDBRANCH  11  13
ENDBRANCH   1  11
BRANCH   7  23
ATOM     23  N   UNL     1       1.781   8.417  19.332  0.00  0.00    +0.000 N 
ATOM     24  H   UNL     1       1.409   8.539  18.393  0.00  0.00    +0.000 HD
BRANCH  23  25
ATOM     25  C   UNL     1       2.396   7.103  19.536  0.00  0.00    +0.000 C 
BRANCH  25  26
ATOM     26  C   UNL     1       2.725   6.438  18.183  0.00  0.00    +0.000 C 
ATOM     27  C   UNL     1       2.081   5.049  18.048  0.00  0.00    +0.000 C 
ATOM     28  C   UNL     1       2.747   4.028  18.969  0.00  0.00    +0.000 C 
ATOM     29  N   UNL     1       4.183   3.923  18.703  0.00  0.00    +0.000 NA
ATOM     30  C   UNL     1       4.858   5.210  18.870  0.00  0.00    +0.000 C 
ATOM     31  C   UNL     1       4.248   6.301  17.986  0.00  0.00    +0.000 C 
ATOM     32  H   UNL     1       4.314   3.605  17.741  0.00  0.00    +0.000 HD
ENDBRANCH  25  26
ENDBRANCH  23  25
ENDBRANCH   7  23
TORSDOF 5
ENDMDL
MODEL 5
REMARK VINA RESULT:      -8.5      2.767      8.244
REMARK  Name = 
REMARK  5 active torsions:
REMARK  status: ('A' for Active; 'I' for Inactive)
REMARK    1  A    between atoms: S_2  and  C_4
REMARK    2  A    between atoms: S_2  and  N_14
REMARK    3  A    between atoms: C_20  and  N_21
REMARK    4  A    between atoms: N_21  and  C_22
REMARK    5  A    between atoms: C_22  and  C_23
REMARK                            x       y       z     vdW  Elec       q    Type
REMARK                         _______ _______ _______ _____ _____    ______ ____
ROOT
ATOM      1  N   UNL     1       1.533   8.781  19.582  0.00  0.00    +0.000 N 
ATOM      2  N   UNL     1       1.144   9.082  20.860  0.00  0.00    +0.000 NA
ATOM      3  C   UNL     1       1.243   7.914  21.498  0.00  0.00    +0.000 A 
ATOM      4  C   UNL     1       1.651   6.861  20.658  0.00  0.00    +0.000 A 
ATOM      5  C   UNL     1       1.889   5.490  20.828  0.00  0.00    +0.000 A 
ATOM      6  C   UNL     1       2.326   4.734  19.734  0.00  0.00    +0.000 A 
ATOM      7  C   UNL     1       2.497   5.289  18.463  0.00  0.00    +0.000 A 
ATOM      8  C   UNL     1       2.264   6.671  18.299  0.00  0.00    +0.000 A 
ATOM      9  C   UNL     1       1.840   7.440  19.404  0.00  0.00    +0.000 A 
ENDROOT
BRANCH   1  11
ATOM     10  O   UNL     1       0.921   9.067  17.153  0.00  0.00    +0.000 OA
ATOM     11  S   UNL     1       1.412   9.881  18.255  0.00  0.00    +0.000 S 
ATOM     12  O   UNL     1       2.683  10.576  18.167  0.00  0.00    +0.000 OA
BRANCH  11  13
ATOM     13  C   UNL     1       0.160  11.063  18.718  0.00  0.00    +0.000 A 
ATOM     14  C   UNL     1       0.593  12.176  19.458  0.00  0.00    +0.000 A 
ATOM     15  C   UNL     1      -0.321  13.133  19.879  0.00  0.00    +0.000 A 
ATOM     16  C   UNL     1      -1.669  12.976  19.575  0.00  0.00    +0.000 A 
ATOM     17  C   UNL     1      -2.128  11.869  18.845  0.00  0.00    +0.000 A 
ATOM     18  C   UNL     1      -3.500  11.764  18.564  0.00  0.00    +0.000 A 
ATOM     19  C   UNL     1      -4.004  10.693  17.834  0.00  0.00    +0.000 A 
ATOM     20  C   UNL     1      -3.140   9.707  17.382  0.00  0.00    +0.000 A 
ATOM     21  C   UNL     1      -1.771   9.792  17.661  0.00  0.00    +0.000 A 
ATOM     22  C   UNL     1      -1.217  10.876  18.394  0.00  0.00    +0.000 A 
ENDBRANCH  11  13
ENDBRANCH   1  11
BRANCH   7  23
ATOM     23  N   UNL     1       3.015   4.560  17.391  0.00  0.00    +0.000 N 
ATOM     24  H   UNL     1       2.408   3.800  17.092  0.00  0.00    +0.000 HD
BRANCH  23  25
ATOM     25  C   UNL     1       4.437   4.211  17.329  0.00  0.00    +0.000 C 
BRANCH  25  26
ATOM     26  C   UNL     1       5.073   4.740  16.026  0.00  0.00    +0.000 C 
ATOM     27  C   UNL     1       6.500   4.208  15.820  0.00  0.00    +0.000 C 
ATOM     28  C   UNL     1       7.480   4.826  16.816  0.00  0.00    +0.000 C 
ATOM     29  N   UNL     1       7.490   6.287  16.722  0.00  0.00    +0.000 NA
ATOM     30  C   UNL     1       6.163   6.852  16.963  0.00  0.00    +0.000 C 
ATOM     31  C   UNL     1       5.110   6.281  16.010  0.00  0.00    +0.000 C 
ATOM     32  H   UNL     1       7.795   6.551  15.783  0.00  0.00    +0.000 HD
ENDBRANCH  25  26
ENDBRANCH  23  25
ENDBRANCH   7  23
TORSDOF 5
ENDMDL
MODEL 6
REMARK VINA RESULT:      -8.5      2.961      8.536
REMARK  Name = 
REMARK  5 active torsions:
REMARK  status: ('A' for Active; 'I' for Inactive)
REMARK    1  A    between atoms: S_2  and  C_4
REMARK    2  A    between atoms: S_2  and  N_14
REMARK    3  A    between atoms: C_20  and  N_21
REMARK    4  A    between atoms: N_21  and  C_22
REMARK    5  A    between atoms: C_22  and  C_23
REMARK                            x       y       z     vdW  Elec       q    Type
REMARK                         _______ _______ _______ _____ _____    ______ ____
ROOT
ATOM      1  N   UNL     1       1.451   8.944  19.705  0.00  0.00    +0.000 N 
ATOM      2  N   UNL     1       1.085   9.215  20.996  0.00  0.00    +0.000 NA
ATOM      3  C   UNL     1       1.221   8.039  21.611  0.00  0.00    +0.000 A 
ATOM      4  C   UNL     1       1.632   7.009  20.745  0.00  0.00    +0.000 A 
ATOM      5  C   UNL     1       1.901   5.640  20.885  0.00  0.00    +0.000 A 
ATOM      6  C   UNL     1       2.329   4.912  19.770  0.00  0.00    +0.000 A 
ATOM      7  C   UNL     1       2.461   5.492  18.505  0.00  0.00    +0.000 A 
ATOM      8  C   UNL     1       2.197   6.871  18.370  0.00  0.00    +0.000 A 
ATOM      9  C   UNL     1       1.781   7.612  19.497  0.00  0.00    +0.000 A 
ENDROOT
BRANCH   1  11
ATOM     10  O   UNL     1       1.722   9.324  17.227  0.00  0.00    +0.000 OA
ATOM     11  S   UNL     1       1.280  10.064  18.400  0.00  0.00    +0.000 S 
ATOM     12  O   UNL     1       1.941  11.289  18.807  0.00  0.00    +0.000 OA
BRANCH  11  13
ATOM     13  C   UNL     1      -0.468  10.388  18.266  0.00  0.00    +0.000 A 
ATOM     14  C   UNL     1      -1.159   9.690  17.261  0.00  0.00    +0.000 A 
ATOM     15  C   UNL     1      -2.518   9.902  17.073  0.00  0.00    +0.000 A 
ATOM     16  C   UNL     1      -3.189  10.817  17.877  0.00  0.00    +0.000 A 
ATOM     17  C   UNL     1      -2.521  11.532  18.882  0.00  0.00    +0.000 A 
ATOM     18  C   UNL     1      -3.249  12.441  19.666  0.00  0.00    +0.000 A 
ATOM     19  C   UNL     1      -2.637  13.166  20.683  0.00  0.00    +0.000 A 
ATOM     20  C   UNL     1      -1.281  12.995  20.922  0.00  0.00    +0.000 A 
ATOM     21  C   UNL     1      -0.538  12.100  20.144  0.00  0.00    +0.000 A 
ATOM     22  C   UNL     1      -1.131  11.334  19.104  0.00  0.00    +0.000 A 
ENDBRANCH  11  13
ENDBRANCH   1  11
BRANCH   7  23
ATOM     23  N   UNL     1       2.971   4.792  17.410  0.00  0.00    +0.000 N 
ATOM     24  H   UNL     1       2.317   4.110  17.031  0.00  0.00    +0.000 HD
BRANCH  23  25
ATOM     25  C   UNL     1       4.358   4.323  17.389  0.00  0.00    +0.000 C 
BRANCH  25  26
ATOM     26  C   UNL     1       5.070   4.779  16.098  0.00  0.00    +0.000 C 
ATOM     27  C   UNL     1       6.496   4.217  15.993  0.00  0.00    +0.000 C 
ATOM     28  C   UNL     1       7.434   4.868  17.008  0.00  0.00    +0.000 C 
ATOM     29  N   UNL     1       7.474   6.323  16.844  0.00  0.00    +0.000 NA
ATOM     30  C   UNL     1       6.146   6.918  16.988  0.00  0.00    +0.000 C 
ATOM     31  C   UNL     1       5.134   6.316  16.010  0.00  0.00    +0.000 C 
ATOM     32  H   UNL     1       7.831   6.536  15.911  0.00  0.00    +0.000 HD
ENDBRANCH  25  26
ENDBRANCH  23  25
ENDBRANCH   7  23
TORSDOF 5
ENDMDL
MODEL 7
REMARK VINA RESULT:      -8.4      3.673      8.797
REMARK  Name = 
REMARK  5 active torsions:
REMARK  status: ('A' for Active; 'I' for Inactive)
REMARK    1  A    between atoms: S_2  and  C_4
REMARK    2  A    between atoms: S_2  and  N_14
REMARK    3  A    between atoms: C_20  and  N_21
REMARK    4  A    between atoms: N_21  and  C_22
REMARK    5  A    between atoms: C_22  and  C_23
REMARK                            x       y       z     vdW  Elec       q    Type
REMARK                         _______ _______ _______ _____ _____    ______ ____
ROOT
ATOM      1  N   UNL     1       0.915  10.296  20.770  0.00  0.00    +0.000 N 
ATOM      2  N   UNL     1       0.394  10.117  22.023  0.00  0.00    +0.000 NA
ATOM      3  C   UNL     1       0.598   8.821  22.263  0.00  0.00    +0.000 A 
ATOM      4  C   UNL     1       1.207   8.151  21.185  0.00  0.00    +0.000 A 
ATOM      5  C   UNL     1       1.611   6.833  20.935  0.00  0.00    +0.000 A 
ATOM      6  C   UNL     1       2.228   6.529  19.716  0.00  0.00    +0.000 A 
ATOM      7  C   UNL     1       2.419   7.487  18.717  0.00  0.00    +0.000 A 
ATOM      8  C   UNL     1       2.017   8.814  18.975  0.00  0.00    +0.000 A 
ATOM      9  C   UNL     1       1.411   9.127  20.211  0.00  0.00    +0.000 A 
ENDROOT
BRANCH   1  11
ATOM     10  O   UNL     1       1.325  11.437  18.559  0.00  0.00    +0.000 OA
ATOM     11  S   UNL     1       0.750  11.755  19.858  0.00  0.00    +0.000 S 
ATOM     12  O   UNL     1       1.288  12.826  20.676  0.00  0.00    +0.000 OA
BRANCH  11  13
ATOM     13  C   UNL     1      -1.004  12.017  19.677  0.00  0.00    +0.000 A 
ATOM     14  C   UNL     1      -1.596  12.927  20.570  0.00  0.00    +0.000 A 
ATOM     15  C   UNL     1      -2.961  13.172  20.513  0.00  0.00    +0.000 A 
ATOM     16  C   UNL     1      -3.742  12.502  19.576  0.00  0.00    +0.000 A 
ATOM     17  C   UNL     1      -3.176  11.584  18.680  0.00  0.00    +0.000 A 
ATOM     18  C   UNL     1      -4.011  10.939  17.753  0.00  0.00    +0.000 A 
ATOM     19  C   UNL     1      -3.499  10.028  16.835  0.00  0.00    +0.000 A 
ATOM     20  C   UNL     1      -2.141   9.745  16.840  0.00  0.00    +0.000 A 
ATOM     21  C   UNL     1      -1.296  10.371  17.762  0.00  0.00    +0.000 A 
ATOM     22  C   UNL     1      -1.781  11.315  18.708  0.00  0.00    +0.000 A 
ENDBRANCH  11  13
ENDBRANCH   1  11
BRANCH   7  23
ATOM     23  N   UNL     1       3.110   7.209  17.536  0.00  0.00    +0.000 N 
ATOM     24  H   UNL     1       2.505   7.164  16.718  0.00  0.00    +0.000 HD
BRANCH  23  25
ATOM     25  C   UNL     1       4.186   6.215  17.503  0.00  0.00    +0.000 C 
BRANCH  25  26
ATOM     26  C   UNL     1       5.295   6.642  16.519  0.00  0.00    +0.000 C 
ATOM     27  C   UNL     1       5.566   5.571  15.451  0.00  0.00    +0.000 C 
ATOM     28  C   UNL     1       6.254   4.343  16.046  0.00  0.00    +0.000 C 
ATOM     29  N   UNL     1       7.513   4.701  16.703  0.00  0.00    +0.000 NA
ATOM     30  C   UNL     1       7.306   5.681  17.769  0.00  0.00    +0.000 C 
ATOM     31  C   UNL     1       6.611   6.947  17.261  0.00  0.00    +0.000 C 
ATOM     32  H   UNL     1       8.142   5.101  16.005  0.00  0.00    +0.000 HD
ENDBRANCH  25  26
ENDBRANCH  23  25
ENDBRANCH   7  23
TORSDOF 5
ENDMDL
MODEL 8
REMARK VINA RESULT:      -8.4      3.990      9.556
REMARK  Name = 
REMARK  5 active torsions:
REMARK  status: ('A' for Active; 'I' for Inactive)
REMARK    1  A    between atoms: S_2  and  C_4
REMARK    2  A    between atoms: S_2  and  N_14
REMARK    3  A    between atoms: C_20  and  N_21
REMARK    4  A    between atoms: N_21  and  C_22
REMARK    5  A    between atoms: C_22  and  C_23
REMARK                            x       y       z     vdW  Elec       q    Type
REMARK                         _______ _______ _______ _____ _____    ______ ____
ROOT
ATOM      1  N   UNL     1      -0.215  11.370  20.550  0.00  0.00    +0.000 N 
ATOM      2  N   UNL     1      -0.677  11.470  21.835  0.00  0.00    +0.000 NA
ATOM      3  C   UNL     1      -0.259  10.340  22.405  0.00  0.00    +0.000 A 
ATOM      4  C   UNL     1       0.431   9.496  21.515  0.00  0.00    +0.000 A 
ATOM      5  C   UNL     1       1.042   8.238  21.610  0.00  0.00    +0.000 A 
ATOM      6  C   UNL     1       1.678   7.703  20.484  0.00  0.00    +0.000 A 
ATOM      7  C   UNL     1       1.692   8.361  19.252  0.00  0.00    +0.000 A 
ATOM      8  C   UNL     1       1.084   9.630  19.162  0.00  0.00    +0.000 A 
ATOM      9  C   UNL     1       0.456  10.181  20.301  0.00  0.00    +0.000 A 
ENDROOT
BRANCH   1  11
ATOM     10  O   UNL     1       0.541  12.496  18.425  0.00  0.00    +0.000 OA
ATOM     11  S   UNL     1      -0.632  12.472  19.287  0.00  0.00    +0.000 S 
ATOM     12  O   UNL     1      -1.118  13.680  19.926  0.00  0.00    +0.000 OA
BRANCH  11  13
ATOM     13  C   UNL     1      -1.990  11.717  18.413  0.00  0.00    +0.000 A 
ATOM     14  C   UNL     1      -1.668  11.035  17.227  0.00  0.00    +0.000 A 
ATOM     15  C   UNL     1      -2.669  10.438  16.473  0.00  0.00    +0.000 A 
ATOM     16  C   UNL     1      -3.992  10.529  16.890  0.00  0.00    +0.000 A 
ATOM     17  C   UNL     1      -4.340  11.211  18.066  0.00  0.00    +0.000 A 
ATOM     18  C   UNL     1      -5.692  11.269  18.442  0.00  0.00    +0.000 A 
ATOM     19  C   UNL     1      -6.089  11.922  19.603  0.00  0.00    +0.000 A 
ATOM     20  C   UNL     1      -5.134  12.535  20.402  0.00  0.00    +0.000 A 
ATOM     21  C   UNL     1      -3.783  12.495  20.038  0.00  0.00    +0.000 A 
ATOM     22  C   UNL     1      -3.339  11.828  18.864  0.00  0.00    +0.000 A 
ENDBRANCH  11  13
ENDBRANCH   1  11
BRANCH   7  23
ATOM     23  N   UNL     1       2.400   7.873  18.151  0.00  0.00    +0.000 N 
ATOM     24  H   UNL     1       2.110   8.294  17.270  0.00  0.00    +0.000 HD
BRANCH  23  25
ATOM     25  C   UNL     1       2.717   6.449  18.024  0.00  0.00    +0.000 C 
BRANCH  25  26
ATOM     26  C   UNL     1       4.243   6.223  18.066  0.00  0.00    +0.000 C 
ATOM     27  C   UNL     1       4.757   5.507  16.807  0.00  0.00    +0.000 C 
ATOM     28  C   UNL     1       4.314   4.045  16.771  0.00  0.00    +0.000 C 
ATOM     29  N   UNL     1       4.766   3.319  17.960  0.00  0.00    +0.000 NA
ATOM     30  C   UNL     1       4.259   3.929  19.189  0.00  0.00    +0.000 C 
ATOM     31  C   UNL     1       4.651   5.403  19.306  0.00  0.00    +0.000 C 
ATOM     32  H   UNL     1       5.787   3.333  17.982  0.00  0.00    +0.000 HD
ENDBRANCH  25  26
ENDBRANCH  23  25
ENDBRANCH   7  23
TORSDOF 5
ENDMDL
MODEL 9
REMARK VINA RESULT:      -8.4      4.515     10.273
REMARK  Name = 
REMARK  5 active torsions:
REMARK  status: ('A' for Active; 'I' for Inactive)
REMARK    1  A    between atoms: S_2  and  C_4
REMARK    2  A    between atoms: S_2  and  N_14
REMARK    3  A    between atoms: C_20  and  N_21
REMARK    4  A    between atoms: N_21  and  C_22
REMARK    5  A    between atoms: C_22  and  C_23
REMARK                            x       y       z     vdW  Elec       q    Type
REMARK                         _______ _______ _______ _____ _____    ______ ____
ROOT
ATOM      1  N   UNL     1       0.561  11.090  19.894  0.00  0.00    +0.000 N 
ATOM      2  N   UNL     1       0.816  11.939  18.851  0.00  0.00    +0.000 NA
ATOM      3  C   UNL     1       1.528  11.191  18.007  0.00  0.00    +0.000 A 
ATOM      4  C   UNL     1       1.767   9.891  18.492  0.00  0.00    +0.000 A 
ATOM      5  C   UNL     1       2.446   8.761  18.014  0.00  0.00    +0.000 A 
ATOM      6  C   UNL     1       2.452   7.594  18.786  0.00  0.00    +0.000 A 
ATOM      7  C   UNL     1       1.840   7.525  20.040  0.00  0.00    +0.000 A 
ATOM      8  C   UNL     1       1.152   8.661  20.514  0.00  0.00    +0.000 A 
ATOM      9  C   UNL     1       1.129   9.835  19.730  0.00  0.00    +0.000 A 
ENDROOT
BRANCH   1  11
ATOM     10  O   UNL     1       0.543  12.802  21.745  0.00  0.00    +0.000 OA
ATOM     11  S   UNL     1      -0.166  11.584  21.382  0.00  0.00    +0.000 S 
ATOM     12  O   UNL     1      -0.166  10.426  22.255  0.00  0.00    +0.000 OA
BRANCH  11  13
ATOM     13  C   UNL     1      -1.858  11.985  20.985  0.00  0.00    +0.000 A 
ATOM     14  C   UNL     1      -2.214  11.918  19.627  0.00  0.00    +0.000 A 
ATOM     15  C   UNL     1      -3.505  12.237  19.228  0.00  0.00    +0.000 A 
ATOM     16  C   UNL     1      -4.440  12.636  20.179  0.00  0.00    +0.000 A 
ATOM     17  C   UNL     1      -4.106  12.718  21.538  0.00  0.00    +0.000 A 
ATOM     18  C   UNL     1      -5.091  13.123  22.455  0.00  0.00    +0.000 A 
ATOM     19  C   UNL     1      -4.815  13.210  23.815  0.00  0.00    +0.000 A 
ATOM     20  C   UNL     1      -3.544  12.900  24.275  0.00  0.00    +0.000 A 
ATOM     21  C   UNL     1      -2.548  12.503  23.376  0.00  0.00    +0.000 A 
ATOM     22  C   UNL     1      -2.795  12.392  21.980  0.00  0.00    +0.000 A 
ENDBRANCH  11  13
ENDBRANCH   1  11
BRANCH   7  23
ATOM     23  N   UNL     1       1.769   6.338  20.774  0.00  0.00    +0.000 N 
ATOM     24  H   UNL     1       1.759   6.490  21.780  0.00  0.00    +0.000 HD
BRANCH  23  25
ATOM     25  C   UNL     1       2.543   5.158  20.383  0.00  0.00    +0.000 C 
BRANCH  25  26
ATOM     26  C   UNL     1       1.880   3.869  20.912  0.00  0.00    +0.000 C 
ATOM     27  C   UNL     1       2.878   2.704  21.016  0.00  0.00    +0.000 C 
ATOM     28  C   UNL     1       3.292   2.194  19.636  0.00  0.00    +0.000 C 
ATOM     29  N   UNL     1       2.131   1.768  18.852  0.00  0.00    +0.000 NA
ATOM     30  C   UNL     1       1.171   2.858  18.676  0.00  0.00    +0.000 C 
ATOM     31  C   UNL     1       0.705   3.438  20.013  0.00  0.00    +0.000 C 
ATOM     32  H   UNL     1       1.671   0.999  19.342  0.00  0.00    +0.000 HD
ENDBRANCH  25  26
ENDBRANCH  23  25
ENDBRANCH   7  23
TORSDOF 5
ENDMDL
