MODEL 1
REMARK VINA RESULT:      -8.1      0.000      0.000
REMARK  Name = 
REMARK  3 active torsions:
REMARK  status: ('A' for Active; 'I' for Inactive)
REMARK    1  A    between atoms: C_2  and  C_15
REMARK    2  A    between atoms: N_3  and  N_4
REMARK    3  A    between atoms: C_8  and  C_9
REMARK                            x       y       z     vdW  Elec       q    Type
REMARK                         _______ _______ _______ _____ _____    ______ ____
ROOT
ATOM      1  N   UNL     1       6.435   4.560  17.943  0.00  0.00    +0.000 N 
ATOM      2  C   UNL     1       6.390   4.343  16.543  0.00  0.00    +0.000 A 
ATOM      3  C   UNL     1       7.413   4.885  15.768  0.00  0.00    +0.000 A 
ATOM      4  C   UNL     1       7.394   4.715  14.384  0.00  0.00    +0.000 A 
ATOM      5  C   UNL     1       6.348   4.006  13.794  0.00  0.00    +0.000 A 
ATOM      6  C   UNL     1       5.355   3.525  14.633  0.00  0.00    +0.000 A 
ATOM      7  N   UNL     1       5.346   3.689  15.978  0.00  0.00    +0.000 NA
ATOM      8  H   UNL     1       7.341   4.263  18.320  0.00  0.00    +0.000 HD
ENDROOT
BRANCH   1  11
ATOM      9  O   UNL     1       4.272   5.893  18.877  0.00  0.00    +0.000 OA
ATOM     10  C   UNL     1       4.296   4.669  18.995  0.00  0.00    +0.000 C 
ATOM     11  N   UNL     1       5.390   3.917  18.624  0.00  0.00    +0.000 N 
ATOM     12  H   UNL     1       5.485   2.909  18.743  0.00  0.00    +0.000 HD
BRANCH  10  13
ATOM     13  C   UNL     1       3.141   3.949  19.603  0.00  0.00    +0.000 A 
ATOM     14  C   UNL     1       3.344   3.434  20.898  0.00  0.00    +0.000 A 
ATOM     15  C   UNL     1       2.322   2.763  21.575  0.00  0.00    +0.000 A 
ATOM     16  C   UNL     1       1.079   2.607  20.973  0.00  0.00    +0.000 A 
ATOM     17  C   UNL     1       0.859   3.119  19.695  0.00  0.00    +0.000 A 
ATOM     18  C   UNL     1       1.881   3.789  19.006  0.00  0.00    +0.000 A 
ATOM     19 CL   UNL     1       1.461   4.419  17.451  0.00  0.00    +0.000 Cl
ENDBRANCH  10  13
ENDBRANCH   1  11
BRANCH   5  20
ATOM     20  C   UNL     1       6.273   3.748  12.321  0.00  0.00    +0.000 C 
ATOM     21  F   UNL     1       6.636   2.483  11.972  0.00  0.00    +0.000 F 
ATOM     22  F   UNL     1       5.016   3.923  11.827  0.00  0.00    +0.000 F 
ATOM     23  F   UNL     1       7.075   4.579  11.601  0.00  0.00    +0.000 F 
ENDBRANCH   5  20
TORSDOF 3
ENDMDL
MODEL 2
REMARK VINA RESULT:      -8.0      0.960      1.272
REMARK  Name = 
REMARK  3 active torsions:
REMARK  status: ('A' for Active; 'I' for Inactive)
REMARK    1  A    between atoms: C_2  and  C_15
REMARK    2  A    between atoms: N_3  and  N_4
REMARK    3  A    between atoms: C_8  and  C_9
REMARK                            x       y       z     vdW  Elec       q    Type
REMARK                         _______ _______ _______ _____ _____    ______ ____
ROOT
ATOM      1  N   UNL     1       6.602   4.740  17.823  0.00  0.00    +0.000 N 
ATOM      2  C   UNL     1       6.515   4.455  16.437  0.00  0.00    +0.000 A 
ATOM      3  C   UNL     1       7.479   5.012  15.598  0.00  0.00    +0.000 A 
ATOM      4  C   UNL     1       7.416   4.777  14.226  0.00  0.00    +0.000 A 
ATOM      5  C   UNL     1       6.388   3.988  13.710  0.00  0.00    +0.000 A 
ATOM      6  C   UNL     1       5.453   3.497  14.609  0.00  0.00    +0.000 A 
ATOM      7  N   UNL     1       5.487   3.724  15.945  0.00  0.00    +0.000 NA
ATOM      8  H   UNL     1       7.535   4.508  18.177  0.00  0.00    +0.000 HD
ENDROOT
BRANCH   1  11
ATOM      9  O   UNL     1       4.290   5.937  18.569  0.00  0.00    +0.000 OA
ATOM     10  C   UNL     1       4.443   4.746  18.841  0.00  0.00    +0.000 C 
ATOM     11  N   UNL     1       5.618   4.077  18.573  0.00  0.00    +0.000 N 
ATOM     12  H   UNL     1       5.817   3.108  18.820  0.00  0.00    +0.000 HD
BRANCH  10  13
ATOM     13  C   UNL     1       3.360   3.987  19.528  0.00  0.00    +0.000 A 
ATOM     14  C   UNL     1       2.735   4.639  20.609  0.00  0.00    +0.000 A 
ATOM     15  C   UNL     1       1.690   4.032  21.310  0.00  0.00    +0.000 A 
ATOM     16  C   UNL     1       1.246   2.770  20.935  0.00  0.00    +0.000 A 
ATOM     17  C   UNL     1       1.848   2.114  19.861  0.00  0.00    +0.000 A 
ATOM     18  C   UNL     1       2.901   2.714  19.155  0.00  0.00    +0.000 A 
ATOM     19 CL   UNL     1       3.523   1.816  17.814  0.00  0.00    +0.000 Cl
ENDBRANCH  10  13
ENDBRANCH   1  11
BRANCH   5  20
ATOM     20  C   UNL     1       6.271   3.658  12.255  0.00  0.00    +0.000 C 
ATOM     21  F   UNL     1       5.002   3.771  11.772  0.00  0.00    +0.000 F 
ATOM     22  F   UNL     1       7.038   4.469  11.475  0.00  0.00    +0.000 F 
ATOM     23  F   UNL     1       6.665   2.386  11.972  0.00  0.00    +0.000 F 
ENDBRANCH   5  20
TORSDOF 3
ENDMDL
MODEL 3
REMARK VINA RESULT:      -7.8      1.410      1.448
REMARK  Name = 
REMARK  3 active torsions:
REMARK  status: ('A' for Active; 'I' for Inactive)
REMARK    1  A    between atoms: C_2  and  C_15
REMARK    2  A    between atoms: N_3  and  N_4
REMARK    3  A    between atoms: C_8  and  C_9
REMARK                            x       y       z     vdW  Elec       q    Type
REMARK                         _______ _______ _______ _____ _____    ______ ____
ROOT
ATOM      1  N   UNL     1       5.864   5.600  17.264  0.00  0.00    +0.000 N 
ATOM      2  C   UNL     1       6.052   5.112  15.946  0.00  0.00    +0.000 A 
ATOM      3  C   UNL     1       7.235   5.449  15.291  0.00  0.00    +0.000 A 
ATOM      4  C   UNL     1       7.448   5.009  13.986  0.00  0.00    +0.000 A 
ATOM      5  C   UNL     1       6.473   4.240  13.351  0.00  0.00    +0.000 A 
ATOM      6  C   UNL     1       5.312   3.975  14.062  0.00  0.00    +0.000 A 
ATOM      7  N   UNL     1       5.078   4.403  15.327  0.00  0.00    +0.000 NA
ATOM      8  H   UNL     1       6.663   5.348  17.855  0.00  0.00    +0.000 HD
ENDROOT
BRANCH   1  11
ATOM      9  O   UNL     1       5.818   3.767  19.256  0.00  0.00    +0.000 OA
ATOM     10  C   UNL     1       4.751   4.268  18.902  0.00  0.00    +0.000 C 
ATOM     11  N   UNL     1       4.669   5.147  17.843  0.00  0.00    +0.000 N 
ATOM     12  H   UNL     1       3.809   5.554  17.477  0.00  0.00    +0.000 HD
BRANCH  10  13
ATOM     13  C   UNL     1       3.481   3.895  19.588  0.00  0.00    +0.000 A 
ATOM     14  C   UNL     1       2.860   4.913  20.336  0.00  0.00    +0.000 A 
ATOM     15  C   UNL     1       1.652   4.685  21.001  0.00  0.00    +0.000 A 
ATOM     16  C   UNL     1       1.042   3.438  20.917  0.00  0.00    +0.000 A 
ATOM     17  C   UNL     1       1.640   2.422  20.173  0.00  0.00    +0.000 A 
ATOM     18  C   UNL     1       2.856   2.642  19.507  0.00  0.00    +0.000 A 
ATOM     19 CL   UNL     1       3.462   1.315  18.579  0.00  0.00    +0.000 Cl
ENDBRANCH  10  13
ENDBRANCH   1  11
BRANCH   5  20
ATOM     20  C   UNL     1       6.640   3.699  11.966  0.00  0.00    +0.000 C 
ATOM     21  F   UNL     1       7.333   2.527  11.920  0.00  0.00    +0.000 F 
ATOM     22  F   UNL     1       5.448   3.450  11.358  0.00  0.00    +0.000 F 
ATOM     23  F   UNL     1       7.305   4.557  11.145  0.00  0.00    +0.000 F 
ENDBRANCH   5  20
TORSDOF 3
ENDMDL
MODEL 4
REMARK VINA RESULT:      -7.7      0.881      1.193
REMARK  Name = 
REMARK  3 active torsions:
REMARK  status: ('A' for Active; 'I' for Inactive)
REMARK    1  A    between atoms: C_2  and  C_15
REMARK    2  A    between atoms: N_3  and  N_4
REMARK    3  A    between atoms: C_8  and  C_9
REMARK                            x       y       z     vdW  Elec       q    Type
REMARK                         _______ _______ _______ _____ _____    ______ ____
ROOT
ATOM      1  N   UNL     1       5.754   5.424  17.645  0.00  0.00    +0.000 N 
ATOM      2  C   UNL     1       5.916   4.982  16.309  0.00  0.00    +0.000 A 
ATOM      3  C   UNL     1       7.119   5.275  15.669  0.00  0.00    +0.000 A 
ATOM      4  C   UNL     1       7.310   4.880  14.346  0.00  0.00    +0.000 A 
ATOM      5  C   UNL     1       6.293   4.197  13.679  0.00  0.00    +0.000 A 
ATOM      6  C   UNL     1       5.117   3.971  14.378  0.00  0.00    +0.000 A 
ATOM      7  N   UNL     1       4.904   4.358  15.660  0.00  0.00    +0.000 NA
ATOM      8  H   UNL     1       6.534   5.101  18.226  0.00  0.00    +0.000 HD
ENDROOT
BRANCH   1  11
ATOM      9  O   UNL     1       5.528   3.218  19.200  0.00  0.00    +0.000 OA
ATOM     10  C   UNL     1       4.532   3.924  19.043  0.00  0.00    +0.000 C 
ATOM     11  N   UNL     1       4.532   5.018  18.204  0.00  0.00    +0.000 N 
ATOM     12  H   UNL     1       3.726   5.608  18.000  0.00  0.00    +0.000 HD
BRANCH  10  13
ATOM     13  C   UNL     1       3.252   3.582  19.728  0.00  0.00    +0.000 A 
ATOM     14  C   UNL     1       3.370   3.026  21.016  0.00  0.00    +0.000 A 
ATOM     15  C   UNL     1       2.237   2.690  21.762  0.00  0.00    +0.000 A 
ATOM     16  C   UNL     1       0.970   2.917  21.236  0.00  0.00    +0.000 A 
ATOM     17  C   UNL     1       0.837   3.475  19.965  0.00  0.00    +0.000 A 
ATOM     18  C   UNL     1       1.969   3.810  19.208  0.00  0.00    +0.000 A 
ATOM     19 CL   UNL     1       1.664   4.543  17.671  0.00  0.00    +0.000 Cl
ENDBRANCH  10  13
ENDBRANCH   1  11
BRANCH   5  20
ATOM     20  C   UNL     1       6.433   3.706  12.273  0.00  0.00    +0.000 C 
ATOM     21  F   UNL     1       5.257   3.682  11.586  0.00  0.00    +0.000 F 
ATOM     22  F   UNL     1       7.277   4.478  11.535  0.00  0.00    +0.000 F 
ATOM     23  F   UNL     1       6.931   2.441  12.205  0.00  0.00    +0.000 F 
ENDBRANCH   5  20
TORSDOF 3
ENDMDL
MODEL 5
REMARK VINA RESULT:      -7.7      1.305      1.557
REMARK  Name = 
REMARK  3 active torsions:
REMARK  status: ('A' for Active; 'I' for Inactive)
REMARK    1  A    between atoms: C_2  and  C_15
REMARK    2  A    between atoms: N_3  and  N_4
REMARK    3  A    between atoms: C_8  and  C_9
REMARK                            x       y       z     vdW  Elec       q    Type
REMARK                         _______ _______ _______ _____ _____    ______ ____
ROOT
ATOM      1  N   UNL     1       6.329   4.651  17.636  0.00  0.00    +0.000 N 
ATOM      2  C   UNL     1       6.355   4.401  16.242  0.00  0.00    +0.000 A 
ATOM      3  C   UNL     1       7.413   4.932  15.507  0.00  0.00    +0.000 A 
ATOM      4  C   UNL     1       7.464   4.729  14.128  0.00  0.00    +0.000 A 
ATOM      5  C   UNL     1       6.454   3.998  13.503  0.00  0.00    +0.000 A 
ATOM      6  C   UNL     1       5.423   3.530  14.302  0.00  0.00    +0.000 A 
ATOM      7  N   UNL     1       5.346   3.726  15.642  0.00  0.00    +0.000 NA
ATOM      8  H   UNL     1       7.216   4.371  18.066  0.00  0.00    +0.000 HD
ENDROOT
BRANCH   1  11
ATOM      9  O   UNL     1       5.033   5.760  19.740  0.00  0.00    +0.000 OA
ATOM     10  C   UNL     1       4.611   4.693  19.293  0.00  0.00    +0.000 C 
ATOM     11  N   UNL     1       5.255   4.016  18.279  0.00  0.00    +0.000 N 
ATOM     12  H   UNL     1       4.979   3.109  17.905  0.00  0.00    +0.000 HD
BRANCH  10  13
ATOM     13  C   UNL     1       3.395   4.061  19.880  0.00  0.00    +0.000 A 
ATOM     14  C   UNL     1       2.198   4.793  19.760  0.00  0.00    +0.000 A 
ATOM     15  C   UNL     1       0.992   4.286  20.251  0.00  0.00    +0.000 A 
ATOM     16  C   UNL     1       0.962   3.036  20.858  0.00  0.00    +0.000 A 
ATOM     17  C   UNL     1       2.138   2.295  20.977  0.00  0.00    +0.000 A 
ATOM     18  C   UNL     1       3.354   2.799  20.491  0.00  0.00    +0.000 A 
ATOM     19 CL   UNL     1       4.725   1.758  20.655  0.00  0.00    +0.000 Cl
ENDBRANCH  10  13
ENDBRANCH   1  11
BRANCH   5  20
ATOM     20  C   UNL     1       6.455   3.705  12.035  0.00  0.00    +0.000 C 
ATOM     21  F   UNL     1       6.950   2.474  11.727  0.00  0.00    +0.000 F 
ATOM     22  F   UNL     1       5.206   3.748  11.496  0.00  0.00    +0.000 F 
ATOM     23  F   UNL     1       7.199   4.595  11.323  0.00  0.00    +0.000 F 
ENDBRANCH   5  20
TORSDOF 3
ENDMDL
MODEL 6
REMARK VINA RESULT:      -7.6      1.146      1.219
REMARK  Name = 
REMARK  3 active torsions:
REMARK  status: ('A' for Active; 'I' for Inactive)
REMARK    1  A    between atoms: C_2  and  C_15
REMARK    2  A    between atoms: N_3  and  N_4
REMARK    3  A    between atoms: C_8  and  C_9
REMARK                            x       y       z     vdW  Elec       q    Type
REMARK                         _______ _______ _______ _____ _____    ______ ____
ROOT
ATOM      1  N   UNL     1       6.332   5.067  17.667  0.00  0.00    +0.000 N 
ATOM      2  C   UNL     1       6.344   4.694  16.299  0.00  0.00    +0.000 A 
ATOM      3  C   UNL     1       7.370   5.194  15.499  0.00  0.00    +0.000 A 
ATOM      4  C   UNL     1       7.405   4.872  14.143  0.00  0.00    +0.000 A 
ATOM      5  C   UNL     1       6.412   4.054  13.605  0.00  0.00    +0.000 A 
ATOM      6  C   UNL     1       5.412   3.623  14.463  0.00  0.00    +0.000 A 
ATOM      7  N   UNL     1       5.350   3.934  15.781  0.00  0.00    +0.000 NA
ATOM      8  H   UNL     1       7.236   4.856  18.102  0.00  0.00    +0.000 HD
ENDROOT
BRANCH   1  11
ATOM      9  O   UNL     1       3.961   6.294  18.121  0.00  0.00    +0.000 OA
ATOM     10  C   UNL     1       4.096   5.131  18.499  0.00  0.00    +0.000 C 
ATOM     11  N   UNL     1       5.292   4.455  18.384  0.00  0.00    +0.000 N 
ATOM     12  H   UNL     1       5.474   3.511  18.723  0.00  0.00    +0.000 HD
BRANCH  10  13
ATOM     13  C   UNL     1       2.962   4.417  19.153  0.00  0.00    +0.000 A 
ATOM     14  C   UNL     1       2.903   3.025  18.944  0.00  0.00    +0.000 A 
ATOM     15  C   UNL     1       1.899   2.250  19.529  0.00  0.00    +0.000 A 
ATOM     16  C   UNL     1       0.945   2.853  20.342  0.00  0.00    +0.000 A 
ATOM     17  C   UNL     1       0.995   4.228  20.566  0.00  0.00    +0.000 A 
ATOM     18  C   UNL     1       1.997   5.014  19.978  0.00  0.00    +0.000 A 
ATOM     19 CL   UNL     1       1.975   6.696  20.380  0.00  0.00    +0.000 Cl
ENDBRANCH  10  13
ENDBRANCH   1  11
BRANCH   5  20
ATOM     20  C   UNL     1       6.399   3.631  12.170  0.00  0.00    +0.000 C 
ATOM     21  F   UNL     1       6.876   2.371  11.969  0.00  0.00    +0.000 F 
ATOM     22  F   UNL     1       5.146   3.642  11.636  0.00  0.00    +0.000 F 
ATOM     23  F   UNL     1       7.149   4.445  11.376  0.00  0.00    +0.000 F 
ENDBRANCH   5  20
TORSDOF 3
ENDMDL
MODEL 7
REMARK VINA RESULT:      -7.6      4.321      7.456
REMARK  Name = 
REMARK  3 active torsions:
REMARK  status: ('A' for Active; 'I' for Inactive)
REMARK    1  A    between atoms: C_2  and  C_15
REMARK    2  A    between atoms: N_3  and  N_4
REMARK    3  A    between atoms: C_8  and  C_9
REMARK                            x       y       z     vdW  Elec       q    Type
REMARK                         _______ _______ _______ _____ _____    ______ ____
ROOT
ATOM      1  N   UNL     1       5.414   6.068  17.171  0.00  0.00    +0.000 N 
ATOM      2  C   UNL     1       4.355   5.416  17.849  0.00  0.00    +0.000 A 
ATOM      3  C   UNL     1       4.142   5.740  19.188  0.00  0.00    +0.000 A 
ATOM      4  C   UNL     1       3.126   5.103  19.898  0.00  0.00    +0.000 A 
ATOM      5  C   UNL     1       2.335   4.148  19.259  0.00  0.00    +0.000 A 
ATOM      6  C   UNL     1       2.631   3.863  17.935  0.00  0.00    +0.000 A 
ATOM      7  N   UNL     1       3.622   4.460  17.229  0.00  0.00    +0.000 NA
ATOM      8  H   UNL     1       5.325   7.085  17.264  0.00  0.00    +0.000 HD
ENDROOT
BRANCH   1  11
ATOM      9  O   UNL     1       7.556   4.779  16.131  0.00  0.00    +0.000 OA
ATOM     10  C   UNL     1       6.591   4.989  15.397  0.00  0.00    +0.000 C 
ATOM     11  N   UNL     1       5.492   5.709  15.817  0.00  0.00    +0.000 N 
ATOM     12  H   UNL     1       4.689   5.954  15.240  0.00  0.00    +0.000 HD
BRANCH  10  13
ATOM     13  C   UNL     1       6.599   4.506  13.986  0.00  0.00    +0.000 A 
ATOM     14  C   UNL     1       5.548   3.642  13.622  0.00  0.00    +0.000 A 
ATOM     15  C   UNL     1       5.441   3.147  12.320  0.00  0.00    +0.000 A 
ATOM     16  C   UNL     1       6.376   3.518  11.359  0.00  0.00    +0.000 A 
ATOM     17  C   UNL     1       7.417   4.380  11.703  0.00  0.00    +0.000 A 
ATOM     18  C   UNL     1       7.535   4.877  13.009  0.00  0.00    +0.000 A 
ATOM     19 CL   UNL     1       8.840   5.976  13.287  0.00  0.00    +0.000 Cl
ENDBRANCH  10  13
ENDBRANCH   1  11
BRANCH   5  20
ATOM     20  C   UNL     1       1.201   3.447  19.940  0.00  0.00    +0.000 C 
ATOM     21  F   UNL     1       0.303   4.296  20.512  0.00  0.00    +0.000 F 
ATOM     22  F   UNL     1       0.483   2.670  19.084  0.00  0.00    +0.000 F 
ATOM     23  F   UNL     1       1.619   2.619  20.935  0.00  0.00    +0.000 F 
ENDBRANCH   5  20
TORSDOF 3
ENDMDL
MODEL 8
REMARK VINA RESULT:      -7.4      4.306      7.480
REMARK  Name = 
REMARK  3 active torsions:
REMARK  status: ('A' for Active; 'I' for Inactive)
REMARK    1  A    between atoms: C_2  and  C_15
REMARK    2  A    between atoms: N_3  and  N_4
REMARK    3  A    between atoms: C_8  and  C_9
REMARK                            x       y       z     vdW  Elec       q    Type
REMARK                         _______ _______ _______ _____ _____    ______ ____
ROOT
ATOM      1  N   UNL     1       5.926   4.640  17.486  0.00  0.00    +0.000 N 
ATOM      2  C   UNL     1       4.704   4.303  18.119  0.00  0.00    +0.000 A 
ATOM      3  C   UNL     1       4.458   4.836  19.383  0.00  0.00    +0.000 A 
ATOM      4  C   UNL     1       3.278   4.511  20.050  0.00  0.00    +0.000 A 
ATOM      5  C   UNL     1       2.359   3.654  19.444  0.00  0.00    +0.000 A 
ATOM      6  C   UNL     1       2.694   3.144  18.199  0.00  0.00    +0.000 A 
ATOM      7  N   UNL     1       3.840   3.436  17.537  0.00  0.00    +0.000 NA
ATOM      8  H   UNL     1       6.043   5.657  17.454  0.00  0.00    +0.000 HD
ENDROOT
BRANCH   1  11
ATOM      9  O   UNL     1       5.819   6.167  15.253  0.00  0.00    +0.000 OA
ATOM     10  C   UNL     1       6.043   4.964  15.124  0.00  0.00    +0.000 C 
ATOM     11  N   UNL     1       6.035   4.097  16.197  0.00  0.00    +0.000 N 
ATOM     12  H   UNL     1       6.166   3.088  16.143  0.00  0.00    +0.000 HD
BRANCH  10  13
ATOM     13  C   UNL     1       6.287   4.385  13.772  0.00  0.00    +0.000 A 
ATOM     14  C   UNL     1       5.328   3.462  13.312  0.00  0.00    +0.000 A 
ATOM     15  C   UNL     1       5.441   2.875  12.049  0.00  0.00    +0.000 A 
ATOM     16  C   UNL     1       6.507   3.210  11.223  0.00  0.00    +0.000 A 
ATOM     17  C   UNL     1       7.461   4.129  11.661  0.00  0.00    +0.000 A 
ATOM     18  C   UNL     1       7.358   4.719  12.929  0.00  0.00    +0.000 A 
ATOM     19 CL   UNL     1       8.577   5.879  13.327  0.00  0.00    +0.000 Cl
ENDBRANCH  10  13
ENDBRANCH   1  11
BRANCH   5  20
ATOM     20  C   UNL     1       1.055   3.285  20.077  0.00  0.00    +0.000 C 
ATOM     21  F   UNL     1       1.190   2.517  21.194  0.00  0.00    +0.000 F 
ATOM     22  F   UNL     1       0.338   4.376  20.463  0.00  0.00    +0.000 F 
ATOM     23  F   UNL     1       0.244   2.584  19.238  0.00  0.00    +0.000 F 
ENDBRANCH   5  20
TORSDOF 3
ENDMDL
MODEL 9
REMARK VINA RESULT:      -7.3      5.962      8.202
REMARK  Name = 
REMARK  3 active torsions:
REMARK  status: ('A' for Active; 'I' for Inactive)
REMARK    1  A    between atoms: C_2  and  C_15
REMARK    2  A    between atoms: N_3  and  N_4
REMARK    3  A    between atoms: C_8  and  C_9
REMARK                            x       y       z     vdW  Elec       q    Type
REMARK                         _______ _______ _______ _____ _____    ______ ____
ROOT
ATOM      1  N   UNL     1       2.939   6.224  19.801  0.00  0.00    +0.000 N 
ATOM      2  C   UNL     1       2.176   7.418  19.794  0.00  0.00    +0.000 A 
ATOM      3  C   UNL     1       1.490   7.757  20.959  0.00  0.00    +0.000 A 
ATOM      4  C   UNL     1       0.708   8.911  20.987  0.00  0.00    +0.000 A 
ATOM      5  C   UNL     1       0.623   9.711  19.847  0.00  0.00    +0.000 A 
ATOM      6  C   UNL     1       1.312   9.287  18.722  0.00  0.00    +0.000 A 
ATOM      7  N   UNL     1       2.068   8.163  18.668  0.00  0.00    +0.000 NA
ATOM      8  H   UNL     1       3.591   6.221  20.592  0.00  0.00    +0.000 HD
ENDROOT
BRANCH   1  11
ATOM      9  O   UNL     1       5.476   5.279  19.731  0.00  0.00    +0.000 OA
ATOM     10  C   UNL     1       4.895   5.465  18.662  0.00  0.00    +0.000 C 
ATOM     11  N   UNL     1       3.634   6.020  18.599  0.00  0.00    +0.000 N 
ATOM     12  H   UNL     1       3.127   6.240  17.743  0.00  0.00    +0.000 HD
BRANCH  10  13
ATOM     13  C   UNL     1       5.568   5.137  17.373  0.00  0.00    +0.000 A 
ATOM     14  C   UNL     1       4.938   4.161  16.577  0.00  0.00    +0.000 A 
ATOM     15  C   UNL     1       5.467   3.792  15.337  0.00  0.00    +0.000 A 
ATOM     16  C   UNL     1       6.626   4.402  14.869  0.00  0.00    +0.000 A 
ATOM     17  C   UNL     1       7.256   5.376  15.643  0.00  0.00    +0.000 A 
ATOM     18  C   UNL     1       6.735   5.748  16.891  0.00  0.00    +0.000 A 
ATOM     19 CL   UNL     1       7.585   7.004  17.723  0.00  0.00    +0.000 Cl
ENDBRANCH  10  13
ENDBRANCH   1  11
BRANCH   5  20
ATOM     20  C   UNL     1      -0.164  10.983  19.807  0.00  0.00    +0.000 C 
ATOM     21  F   UNL     1      -0.853  11.233  20.955  0.00  0.00    +0.000 F 
ATOM     22  F   UNL     1       0.623  12.075  19.603  0.00  0.00    +0.000 F 
ATOM     23  F   UNL     1      -1.088  10.997  18.808  0.00  0.00    +0.000 F 
ENDBRANCH   5  20
TORSDOF 3
ENDMDL
