MODEL 1
REMARK VINA RESULT:      -8.5      0.000      0.000
REMARK  Name = 
REMARK  5 active torsions:
REMARK  status: ('A' for Active; 'I' for Inactive)
REMARK    1  A    between atoms: C_1  and  C_2
REMARK    2  A    between atoms: C_2  and  O_4
REMARK    3  A    between atoms: O_4  and  C_5
REMARK    4  A    between atoms: C_11  and  C_12
REMARK    5  A    between atoms: C_24  and  C_25
REMARK                            x       y       z     vdW  Elec       q    Type
REMARK                         _______ _______ _______ _____ _____    ______ ____
ROOT
ATOM      1  C   UNL     1       0.466  10.549  21.357  0.00  0.00    +0.000 A 
ATOM      2  C   UNL     1       0.787   9.460  22.178  0.00  0.00    +0.000 A 
ATOM      3  C   UNL     1       1.322   8.310  21.622  0.00  0.00    +0.000 A 
ATOM      4  C   UNL     1       1.584   8.282  20.255  0.00  0.00    +0.000 A 
ATOM      5  C   UNL     1       2.210   7.090  19.674  0.00  0.00    +0.000 A 
ATOM      6  O   UNL     1       2.297   6.043  20.308  0.00  0.00    +0.000 OA
ATOM      7  C   UNL     1       2.759   7.256  18.310  0.00  0.00    +0.000 A 
ATOM      8  C   UNL     1       2.425   8.354  17.631  0.00  0.00    +0.000 A 
ATOM      9  O   UNL     1       1.626   9.374  18.092  0.00  0.00    +0.000 OA
ATOM     10  C   UNL     1       1.313   9.382  19.433  0.00  0.00    +0.000 A 
ATOM     11  C   UNL     1       0.734  10.540  19.975  0.00  0.00    +0.000 A 
ATOM     12  C   UNL     1       0.401  11.729  19.118  0.00  0.00    +0.000 C 
ENDROOT
BRANCH   7  13
ATOM     13  C   UNL     1       3.668   6.250  17.767  0.00  0.00    +0.000 A 
ATOM     14  C   UNL     1       3.211   4.919  17.636  0.00  0.00    +0.000 A 
ATOM     15  C   UNL     1       3.972   3.969  16.950  0.00  0.00    +0.000 A 
ATOM     16  C   UNL     1       5.157   4.398  16.398  0.00  0.00    +0.000 A 
ATOM     17  C   UNL     1       5.623   5.685  16.568  0.00  0.00    +0.000 A 
ATOM     18  C   UNL     1       4.915   6.633  17.267  0.00  0.00    +0.000 A 
ATOM     19  O   UNL     1       6.791   5.899  15.903  0.00  0.00    +0.000 OA
ATOM     20  C   UNL     1       6.813   4.721  15.074  0.00  0.00    +0.000 C 
ATOM     21  O   UNL     1       5.968   3.667  15.583  0.00  0.00    +0.000 OA
ENDBRANCH   7  13
BRANCH   1  22
ATOM     22  O   UNL     1      -0.013  11.733  21.948  0.00  0.00    +0.000 OA
BRANCH  22  24
ATOM     23  C   UNL     1      -2.152  12.594  21.500  0.00  0.00    +0.000 C 
ATOM     24  C   UNL     1      -1.334  11.712  22.390  0.00  0.00    +0.000 C 
ATOM     25  O   UNL     1      -1.774  11.120  23.367  0.00  0.00    +0.000 OA
ENDBRANCH  22  24
ENDBRANCH   1  22
TORSDOF 3
ENDMDL
MODEL 2
REMARK VINA RESULT:      -8.3      1.432      8.517
REMARK  Name = 
REMARK  5 active torsions:
REMARK  status: ('A' for Active; 'I' for Inactive)
REMARK    1  A    between atoms: C_1  and  C_2
REMARK    2  A    between atoms: C_2  and  O_4
REMARK    3  A    between atoms: O_4  and  C_5
REMARK    4  A    between atoms: C_11  and  C_12
REMARK    5  A    between atoms: C_24  and  C_25
REMARK                            x       y       z     vdW  Elec       q    Type
REMARK                         _______ _______ _______ _____ _____    ______ ____
ROOT
ATOM      1  C   UNL     1       4.984   5.184  17.773  0.00  0.00    +0.000 A 
ATOM      2  C   UNL     1       4.998   6.301  16.927  0.00  0.00    +0.000 A 
ATOM      3  C   UNL     1       4.055   7.301  17.088  0.00  0.00    +0.000 A 
ATOM      4  C   UNL     1       3.140   7.202  18.133  0.00  0.00    +0.000 A 
ATOM      5  C   UNL     1       2.181   8.291  18.346  0.00  0.00    +0.000 A 
ATOM      6  O   UNL     1       2.014   9.166  17.502  0.00  0.00    +0.000 OA
ATOM      7  C   UNL     1       1.481   8.281  19.649  0.00  0.00    +0.000 A 
ATOM      8  C   UNL     1       1.570   7.181  20.398  0.00  0.00    +0.000 A 
ATOM      9  O   UNL     1       2.281   6.047  20.082  0.00  0.00    +0.000 OA
ATOM     10  C   UNL     1       3.149   6.115  19.015  0.00  0.00    +0.000 A 
ATOM     11  C   UNL     1       4.072   5.073  18.839  0.00  0.00    +0.000 A 
ATOM     12  C   UNL     1       4.091   3.877  19.748  0.00  0.00    +0.000 C 
ENDROOT
BRANCH   7  13
ATOM     13  C   UNL     1       0.755   9.468  20.091  0.00  0.00    +0.000 A 
ATOM     14  C   UNL     1      -0.081  10.138  19.170  0.00  0.00    +0.000 A 
ATOM     15  C   UNL     1      -0.937  11.157  19.594  0.00  0.00    +0.000 A 
ATOM     16  C   UNL     1      -0.941  11.451  20.938  0.00  0.00    +0.000 A 
ATOM     17  C   UNL     1      -0.089  10.829  21.828  0.00  0.00    +0.000 A 
ATOM     18  C   UNL     1       0.789   9.847  21.436  0.00  0.00    +0.000 A 
ATOM     19  O   UNL     1      -0.293  11.243  23.108  0.00  0.00    +0.000 OA
ATOM     20  C   UNL     1      -1.546  11.935  22.938  0.00  0.00    +0.000 C 
ATOM     21  O   UNL     1      -1.793  12.308  21.566  0.00  0.00    +0.000 OA
ENDBRANCH   7  13
BRANCH   1  22
ATOM     22  O   UNL     1       5.991   4.210  17.637  0.00  0.00    +0.000 OA
BRANCH  22  24
ATOM     23  C   UNL     1       7.784   5.388  18.595  0.00  0.00    +0.000 C 
ATOM     24  C   UNL     1       7.276   4.682  17.377  0.00  0.00    +0.000 C 
ATOM     25  O   UNL     1       7.895   4.590  16.324  0.00  0.00    +0.000 OA
ENDBRANCH  22  24
ENDBRANCH   1  22
TORSDOF 3
ENDMDL
MODEL 3
REMARK VINA RESULT:      -8.3      1.168      8.632
REMARK  Name = 
REMARK  5 active torsions:
REMARK  status: ('A' for Active; 'I' for Inactive)
REMARK    1  A    between atoms: C_1  and  C_2
REMARK    2  A    between atoms: C_2  and  O_4
REMARK    3  A    between atoms: O_4  and  C_5
REMARK    4  A    between atoms: C_11  and  C_12
REMARK    5  A    between atoms: C_24  and  C_25
REMARK                            x       y       z     vdW  Elec       q    Type
REMARK                         _______ _______ _______ _____ _____    ______ ____
ROOT
ATOM      1  C   UNL     1       5.365   5.422  16.950  0.00  0.00    +0.000 A 
ATOM      2  C   UNL     1       5.200   6.608  16.222  0.00  0.00    +0.000 A 
ATOM      3  C   UNL     1       4.209   7.506  16.581  0.00  0.00    +0.000 A 
ATOM      4  C   UNL     1       3.428   7.235  17.702  0.00  0.00    +0.000 A 
ATOM      5  C   UNL     1       2.421   8.215  18.122  0.00  0.00    +0.000 A 
ATOM      6  O   UNL     1       2.094   9.145  17.392  0.00  0.00    +0.000 OA
ATOM      7  C   UNL     1       1.875   8.026  19.484  0.00  0.00    +0.000 A 
ATOM      8  C   UNL     1       2.130   6.875  20.107  0.00  0.00    +0.000 A 
ATOM      9  O   UNL     1       2.884   5.839  19.606  0.00  0.00    +0.000 OA
ATOM     10  C   UNL     1       3.618   6.077  18.465  0.00  0.00    +0.000 A 
ATOM     11  C   UNL     1       4.591   5.138  18.091  0.00  0.00    +0.000 A 
ATOM     12  C   UNL     1       4.802   3.870  18.869  0.00  0.00    +0.000 C 
ENDROOT
BRANCH   7  13
ATOM     13  C   UNL     1       1.117   9.102  20.116  0.00  0.00    +0.000 A 
ATOM     14  C   UNL     1       0.317   9.940  19.306  0.00  0.00    +0.000 A 
ATOM     15  C   UNL     1      -0.568  10.854  19.882  0.00  0.00    +0.000 A 
ATOM     16  C   UNL     1      -0.637  10.877  21.255  0.00  0.00    +0.000 A 
ATOM     17  C   UNL     1       0.179  10.093  22.045  0.00  0.00    +0.000 A 
ATOM     18  C   UNL     1       1.085   9.209  21.509  0.00  0.00    +0.000 A 
ATOM     19  O   UNL     1      -0.087  10.248  23.370  0.00  0.00    +0.000 OA
ATOM     20  C   UNL     1      -1.338  10.957  23.281  0.00  0.00    +0.000 C 
ATOM     21  O   UNL     1      -1.526  11.593  21.999  0.00  0.00    +0.000 OA
ENDBRANCH   7  13
BRANCH   1  22
ATOM     22  O   UNL     1       6.421   4.555  16.613  0.00  0.00    +0.000 OA
BRANCH  22  24
ATOM     23  C   UNL     1       6.050   3.695  14.458  0.00  0.00    +0.000 C 
ATOM     24  C   UNL     1       6.877   4.618  15.298  0.00  0.00    +0.000 C 
ATOM     25  O   UNL     1       7.822   5.273  14.877  0.00  0.00    +0.000 OA
ENDBRANCH  22  24
ENDBRANCH   1  22
TORSDOF 3
ENDMDL
MODEL 4
REMARK VINA RESULT:      -8.0      1.977      8.158
REMARK  Name = 
REMARK  5 active torsions:
REMARK  status: ('A' for Active; 'I' for Inactive)
REMARK    1  A    between atoms: C_1  and  C_2
REMARK    2  A    between atoms: C_2  and  O_4
REMARK    3  A    between atoms: O_4  and  C_5
REMARK    4  A    between atoms: C_11  and  C_12
REMARK    5  A    between atoms: C_24  and  C_25
REMARK                            x       y       z     vdW  Elec       q    Type
REMARK                         _______ _______ _______ _____ _____    ______ ____
ROOT
ATOM      1  C   UNL     1       3.510   4.851  18.800  0.00  0.00    +0.000 A 
ATOM      2  C   UNL     1       2.695   4.816  19.940  0.00  0.00    +0.000 A 
ATOM      3  C   UNL     1       2.040   5.962  20.356  0.00  0.00    +0.000 A 
ATOM      4  C   UNL     1       2.161   7.121  19.595  0.00  0.00    +0.000 A 
ATOM      5  C   UNL     1       1.417   8.319  19.997  0.00  0.00    +0.000 A 
ATOM      6  O   UNL     1       0.880   8.395  21.098  0.00  0.00    +0.000 OA
ATOM      7  C   UNL     1       1.324   9.387  18.978  0.00  0.00    +0.000 A 
ATOM      8  C   UNL     1       2.115   9.300  17.907  0.00  0.00    +0.000 A 
ATOM      9  O   UNL     1       3.005   8.286  17.644  0.00  0.00    +0.000 OA
ATOM     10  C   UNL     1       2.933   7.155  18.427  0.00  0.00    +0.000 A 
ATOM     11  C   UNL     1       3.635   6.012  18.014  0.00  0.00    +0.000 A 
ATOM     12  C   UNL     1       4.497   6.020  16.784  0.00  0.00    +0.000 C 
ENDROOT
BRANCH   7  13
ATOM     13  C   UNL     1       0.360  10.470  19.148  0.00  0.00    +0.000 A 
ATOM     14  C   UNL     1      -0.911  10.352  18.542  0.00  0.00    +0.000 A 
ATOM     15  C   UNL     1      -1.927  11.266  18.832  0.00  0.00    +0.000 A 
ATOM     16  C   UNL     1      -1.636  12.255  19.742  0.00  0.00    +0.000 A 
ATOM     17  C   UNL     1      -0.381  12.397  20.296  0.00  0.00    +0.000 A 
ATOM     18  C   UNL     1       0.649  11.535  20.004  0.00  0.00    +0.000 A 
ATOM     19  O   UNL     1      -0.331  13.414  21.199  0.00  0.00    +0.000 OA
ATOM     20  C   UNL     1      -1.741  13.661  21.358  0.00  0.00    +0.000 C 
ATOM     21  O   UNL     1      -2.523  13.153  20.256  0.00  0.00    +0.000 OA
ENDBRANCH   7  13
BRANCH   1  22
ATOM     22  O   UNL     1       4.114   3.661  18.354  0.00  0.00    +0.000 OA
BRANCH  22  24
ATOM     23  C   UNL     1       3.612   1.372  18.514  0.00  0.00    +0.000 C 
ATOM     24  C   UNL     1       3.256   2.675  17.872  0.00  0.00    +0.000 C 
ATOM     25  O   UNL     1       2.377   2.812  17.029  0.00  0.00    +0.000 OA
ENDBRANCH  22  24
ENDBRANCH   1  22
TORSDOF 3
ENDMDL
MODEL 5
REMARK VINA RESULT:      -7.9      1.852      8.394
REMARK  Name = 
REMARK  5 active torsions:
REMARK  status: ('A' for Active; 'I' for Inactive)
REMARK    1  A    between atoms: C_1  and  C_2
REMARK    2  A    between atoms: C_2  and  O_4
REMARK    3  A    between atoms: O_4  and  C_5
REMARK    4  A    between atoms: C_11  and  C_12
REMARK    5  A    between atoms: C_24  and  C_25
REMARK                            x       y       z     vdW  Elec       q    Type
REMARK                         _______ _______ _______ _____ _____    ______ ____
ROOT
ATOM      1  C   UNL     1       4.277   5.651  18.274  0.00  0.00    +0.000 A 
ATOM      2  C   UNL     1       4.407   6.659  17.310  0.00  0.00    +0.000 A 
ATOM      3  C   UNL     1       3.562   7.755  17.339  0.00  0.00    +0.000 A 
ATOM      4  C   UNL     1       2.629   7.860  18.368  0.00  0.00    +0.000 A 
ATOM      5  C   UNL     1       1.776   9.050  18.438  0.00  0.00    +0.000 A 
ATOM      6  O   UNL     1       1.702   9.837  17.499  0.00  0.00    +0.000 OA
ATOM      7  C   UNL     1       1.063   9.252  19.718  0.00  0.00    +0.000 A 
ATOM      8  C   UNL     1       1.038   8.239  20.586  0.00  0.00    +0.000 A 
ATOM      9  O   UNL     1       1.642   7.016  20.414  0.00  0.00    +0.000 OA
ATOM     10  C   UNL     1       2.524   6.882  19.364  0.00  0.00    +0.000 A 
ATOM     11  C   UNL     1       3.347   5.746  19.326  0.00  0.00    +0.000 A 
ATOM     12  C   UNL     1       3.241   4.662  20.362  0.00  0.00    +0.000 C 
ENDROOT
BRANCH   7  13
ATOM     13  C   UNL     1       0.448  10.543  20.010  0.00  0.00    +0.000 A 
ATOM     14  C   UNL     1      -0.936  10.708  19.772  0.00  0.00    +0.000 A 
ATOM     15  C   UNL     1      -1.602  11.855  20.211  0.00  0.00    +0.000 A 
ATOM     16  C   UNL     1      -0.858  12.786  20.897  0.00  0.00    +0.000 A 
ATOM     17  C   UNL     1       0.501  12.645  21.086  0.00  0.00    +0.000 A 
ATOM     18  C   UNL     1       1.192  11.546  20.636  0.00  0.00    +0.000 A 
ATOM     19  O   UNL     1       1.025  13.662  21.824  0.00  0.00    +0.000 OA
ATOM     20  C   UNL     1      -0.195  14.251  22.316  0.00  0.00    +0.000 C 
ATOM     21  O   UNL     1      -1.345  13.896  21.520  0.00  0.00    +0.000 OA
ENDBRANCH   7  13
BRANCH   1  22
ATOM     22  O   UNL     1       5.189   4.579  18.269  0.00  0.00    +0.000 OA
BRANCH  22  24
ATOM     23  C   UNL     1       7.428   4.631  17.561  0.00  0.00    +0.000 C 
ATOM     24  C   UNL     1       6.483   4.865  18.697  0.00  0.00    +0.000 C 
ATOM     25  O   UNL     1       6.827   5.209  19.821  0.00  0.00    +0.000 OA
ENDBRANCH  22  24
ENDBRANCH   1  22
TORSDOF 3
ENDMDL
MODEL 6
REMARK VINA RESULT:      -7.9      0.939      1.145
REMARK  Name = 
REMARK  5 active torsions:
REMARK  status: ('A' for Active; 'I' for Inactive)
REMARK    1  A    between atoms: C_1  and  C_2
REMARK    2  A    between atoms: C_2  and  O_4
REMARK    3  A    between atoms: O_4  and  C_5
REMARK    4  A    between atoms: C_11  and  C_12
REMARK    5  A    between atoms: C_24  and  C_25
REMARK                            x       y       z     vdW  Elec       q    Type
REMARK                         _______ _______ _______ _____ _____    ______ ____
ROOT
ATOM      1  C   UNL     1      -0.219  10.791  20.941  0.00  0.00    +0.000 A 
ATOM      2  C   UNL     1       0.254   9.884  21.900  0.00  0.00    +0.000 A 
ATOM      3  C   UNL     1       0.942   8.752  21.499  0.00  0.00    +0.000 A 
ATOM      4  C   UNL     1       1.201   8.565  20.144  0.00  0.00    +0.000 A 
ATOM      5  C   UNL     1       1.985   7.400  19.722  0.00  0.00    +0.000 A 
ATOM      6  O   UNL     1       2.220   6.477  20.495  0.00  0.00    +0.000 OA
ATOM      7  C   UNL     1       2.502   7.445  18.336  0.00  0.00    +0.000 A 
ATOM      8  C   UNL     1       2.016   8.378  17.517  0.00  0.00    +0.000 A 
ATOM      9  O   UNL     1       1.084   9.334  17.848  0.00  0.00    +0.000 OA
ATOM     10  C   UNL     1       0.776   9.490  19.182  0.00  0.00    +0.000 A 
ATOM     11  C   UNL     1       0.043  10.622  19.569  0.00  0.00    +0.000 A 
ATOM     12  C   UNL     1      -0.454  11.620  18.561  0.00  0.00    +0.000 C 
ENDROOT
BRANCH   7  13
ATOM     13  C   UNL     1       3.540   6.507  17.919  0.00  0.00    +0.000 A 
ATOM     14  C   UNL     1       3.232   5.128  17.865  0.00  0.00    +0.000 A 
ATOM     15  C   UNL     1       4.126   4.220  17.294  0.00  0.00    +0.000 A 
ATOM     16  C   UNL     1       5.291   4.733  16.774  0.00  0.00    +0.000 A 
ATOM     17  C   UNL     1       5.611   6.072  16.871  0.00  0.00    +0.000 A 
ATOM     18  C   UNL     1       4.769   6.985  17.457  0.00  0.00    +0.000 A 
ATOM     19  O   UNL     1       6.788   6.363  16.253  0.00  0.00    +0.000 OA
ATOM     20  C   UNL     1       6.981   5.139  15.517  0.00  0.00    +0.000 C 
ATOM     21  O   UNL     1       6.221   4.039  16.060  0.00  0.00    +0.000 OA
ENDBRANCH   7  13
BRANCH   1  22
ATOM     22  O   UNL     1      -0.856  11.969  21.371  0.00  0.00    +0.000 OA
BRANCH  22  24
ATOM     23  C   UNL     1      -0.807  13.690  22.970  0.00  0.00    +0.000 C 
ATOM     24  C   UNL     1      -0.036  12.951  21.922  0.00  0.00    +0.000 C 
ATOM     25  O   UNL     1       1.113  13.220  21.593  0.00  0.00    +0.000 OA
ENDBRANCH  22  24
ENDBRANCH   1  22
TORSDOF 3
ENDMDL
MODEL 7
REMARK VINA RESULT:      -7.8      1.123      8.513
REMARK  Name = 
REMARK  5 active torsions:
REMARK  status: ('A' for Active; 'I' for Inactive)
REMARK    1  A    between atoms: C_1  and  C_2
REMARK    2  A    between atoms: C_2  and  O_4
REMARK    3  A    between atoms: O_4  and  C_5
REMARK    4  A    between atoms: C_11  and  C_12
REMARK    5  A    between atoms: C_24  and  C_25
REMARK                            x       y       z     vdW  Elec       q    Type
REMARK                         _______ _______ _______ _____ _____    ______ ____
ROOT
ATOM      1  C   UNL     1       5.104   5.298  17.151  0.00  0.00    +0.000 A 
ATOM      2  C   UNL     1       4.989   6.580  16.598  0.00  0.00    +0.000 A 
ATOM      3  C   UNL     1       4.021   7.451  17.068  0.00  0.00    +0.000 A 
ATOM      4  C   UNL     1       3.213   7.050  18.129  0.00  0.00    +0.000 A 
ATOM      5  C   UNL     1       2.230   7.994  18.672  0.00  0.00    +0.000 A 
ATOM      6  O   UNL     1       1.945   9.029  18.078  0.00  0.00    +0.000 OA
ATOM      7  C   UNL     1       1.655   7.633  19.987  0.00  0.00    +0.000 A 
ATOM      8  C   UNL     1       1.864   6.397  20.442  0.00  0.00    +0.000 A 
ATOM      9  O   UNL     1       2.592   5.417  19.809  0.00  0.00    +0.000 OA
ATOM     10  C   UNL     1       3.353   5.790  18.722  0.00  0.00    +0.000 A 
ATOM     11  C   UNL     1       4.302   4.882  18.230  0.00  0.00    +0.000 A 
ATOM     12  C   UNL     1       4.459   3.509  18.823  0.00  0.00    +0.000 C 
ENDROOT
BRANCH   7  13
ATOM     13  C   UNL     1       0.921   8.633  20.756  0.00  0.00    +0.000 A 
ATOM     14  C   UNL     1       0.918   8.541  22.166  0.00  0.00    +0.000 A 
ATOM     15  C   UNL     1       0.394   9.574  22.946  0.00  0.00    +0.000 A 
ATOM     16  C   UNL     1      -0.088  10.677  22.281  0.00  0.00    +0.000 A 
ATOM     17  C   UNL     1      -0.129  10.744  20.904  0.00  0.00    +0.000 A 
ATOM     18  C   UNL     1       0.347   9.730  20.108  0.00  0.00    +0.000 A 
ATOM     19  O   UNL     1      -0.605  11.940  20.462  0.00  0.00    +0.000 OA
ATOM     20  C   UNL     1      -0.552  12.687  21.693  0.00  0.00    +0.000 C 
ATOM     21  O   UNL     1      -0.512  11.836  22.858  0.00  0.00    +0.000 OA
ENDBRANCH   7  13
BRANCH   1  22
ATOM     22  O   UNL     1       6.137   4.452  16.706  0.00  0.00    +0.000 OA
BRANCH  22  24
ATOM     23  C   UNL     1       5.960   3.991  14.410  0.00  0.00    +0.000 C 
ATOM     24  C   UNL     1       6.694   4.756  15.466  0.00  0.00    +0.000 C 
ATOM     25  O   UNL     1       7.653   5.486  15.249  0.00  0.00    +0.000 OA
ENDBRANCH  22  24
ENDBRANCH   1  22
TORSDOF 3
ENDMDL
MODEL 8
REMARK VINA RESULT:      -7.8      1.346      8.441
REMARK  Name = 
REMARK  5 active torsions:
REMARK  status: ('A' for Active; 'I' for Inactive)
REMARK    1  A    between atoms: C_1  and  C_2
REMARK    2  A    between atoms: C_2  and  O_4
REMARK    3  A    between atoms: O_4  and  C_5
REMARK    4  A    between atoms: C_11  and  C_12
REMARK    5  A    between atoms: C_24  and  C_25
REMARK                            x       y       z     vdW  Elec       q    Type
REMARK                         _______ _______ _______ _____ _____    ______ ____
ROOT
ATOM      1  C   UNL     1       4.629   5.743  17.705  0.00  0.00    +0.000 A 
ATOM      2  C   UNL     1       4.453   6.959  17.032  0.00  0.00    +0.000 A 
ATOM      3  C   UNL     1       3.464   7.837  17.440  0.00  0.00    +0.000 A 
ATOM      4  C   UNL     1       2.696   7.515  18.556  0.00  0.00    +0.000 A 
ATOM      5  C   UNL     1       1.691   8.472  19.030  0.00  0.00    +0.000 A 
ATOM      6  O   UNL     1       1.354   9.433  18.346  0.00  0.00    +0.000 OA
ATOM      7  C   UNL     1       1.161   8.223  20.389  0.00  0.00    +0.000 A 
ATOM      8  C   UNL     1       1.426   7.046  20.957  0.00  0.00    +0.000 A 
ATOM      9  O   UNL     1       2.177   6.035  20.404  0.00  0.00    +0.000 OA
ATOM     10  C   UNL     1       2.897   6.325  19.266  0.00  0.00    +0.000 A 
ATOM     11  C   UNL     1       3.869   5.407  18.840  0.00  0.00    +0.000 A 
ATOM     12  C   UNL     1       4.091   4.106  19.559  0.00  0.00    +0.000 C 
ENDROOT
BRANCH   7  13
ATOM     13  C   UNL     1       0.407   9.267  21.076  0.00  0.00    +0.000 A 
ATOM     14  C   UNL     1      -0.135   8.990  22.351  0.00  0.00    +0.000 A 
ATOM     15  C   UNL     1      -0.695  10.009  23.124  0.00  0.00    +0.000 A 
ATOM     16  C   UNL     1      -0.670  11.280  22.597  0.00  0.00    +0.000 A 
ATOM     17  C   UNL     1      -0.184  11.540  21.332  0.00  0.00    +0.000 A 
ATOM     18  C   UNL     1       0.342  10.553  20.533  0.00  0.00    +0.000 A 
ATOM     19  O   UNL     1      -0.217  12.867  21.033  0.00  0.00    +0.000 OA
ATOM     20  C   UNL     1      -0.476  13.401  22.347  0.00  0.00    +0.000 C 
ATOM     21  O   UNL     1      -1.039  12.420  23.244  0.00  0.00    +0.000 OA
ENDBRANCH   7  13
BRANCH   1  22
ATOM     22  O   UNL     1       5.683   4.894  17.318  0.00  0.00    +0.000 OA
BRANCH  22  24
ATOM     23  C   UNL     1       7.555   5.721  18.472  0.00  0.00    +0.000 C 
ATOM     24  C   UNL     1       6.926   5.496  17.133  0.00  0.00    +0.000 C 
ATOM     25  O   UNL     1       7.427   5.837  16.069  0.00  0.00    +0.000 OA
ENDBRANCH  22  24
ENDBRANCH   1  22
TORSDOF 3
ENDMDL
MODEL 9
REMARK VINA RESULT:      -7.8      1.465      2.394
REMARK  Name = 
REMARK  5 active torsions:
REMARK  status: ('A' for Active; 'I' for Inactive)
REMARK    1  A    between atoms: C_1  and  C_2
REMARK    2  A    between atoms: C_2  and  O_4
REMARK    3  A    between atoms: O_4  and  C_5
REMARK    4  A    between atoms: C_11  and  C_12
REMARK    5  A    between atoms: C_24  and  C_25
REMARK                            x       y       z     vdW  Elec       q    Type
REMARK                         _______ _______ _______ _____ _____    ______ ____
ROOT
ATOM      1  C   UNL     1      -0.765  11.037  20.485  0.00  0.00    +0.000 A 
ATOM      2  C   UNL     1      -0.491  11.187  19.119  0.00  0.00    +0.000 A 
ATOM      3  C   UNL     1       0.437  10.362  18.506  0.00  0.00    +0.000 A 
ATOM      4  C   UNL     1       1.042   9.356  19.254  0.00  0.00    +0.000 A 
ATOM      5  C   UNL     1       1.977   8.441  18.593  0.00  0.00    +0.000 A 
ATOM      6  O   UNL     1       2.410   8.675  17.469  0.00  0.00    +0.000 OA
ATOM      7  C   UNL     1       2.314   7.214  19.349  0.00  0.00    +0.000 A 
ATOM      8  C   UNL     1       1.967   7.157  20.636  0.00  0.00    +0.000 A 
ATOM      9  O   UNL     1       1.295   8.134  21.332  0.00  0.00    +0.000 OA
ATOM     10  C   UNL     1       0.739   9.166  20.608  0.00  0.00    +0.000 A 
ATOM     11  C   UNL     1      -0.169  10.019  21.253  0.00  0.00    +0.000 A 
ATOM     12  C   UNL     1      -0.495   9.864  22.712  0.00  0.00    +0.000 C 
ENDROOT
BRANCH   7  13
ATOM     13  C   UNL     1       2.971   6.102  18.670  0.00  0.00    +0.000 A 
ATOM     14  C   UNL     1       2.173   5.097  18.077  0.00  0.00    +0.000 A 
ATOM     15  C   UNL     1       2.747   4.122  17.259  0.00  0.00    +0.000 A 
ATOM     16  C   UNL     1       4.103   4.205  17.043  0.00  0.00    +0.000 A 
ATOM     17  C   UNL     1       4.887   5.157  17.661  0.00  0.00    +0.000 A 
ATOM     18  C   UNL     1       4.358   6.109  18.499  0.00  0.00    +0.000 A 
ATOM     19  O   UNL     1       6.189   5.079  17.273  0.00  0.00    +0.000 OA
ATOM     20  C   UNL     1       6.048   4.200  16.140  0.00  0.00    +0.000 C 
ATOM     21  O   UNL     1       4.822   3.438  16.177  0.00  0.00    +0.000 OA
ENDBRANCH   7  13
BRANCH   1  22
ATOM     22  O   UNL     1      -1.759  11.839  21.075  0.00  0.00    +0.000 OA
BRANCH  22  24
ATOM     23  C   UNL     1      -0.482  13.509  22.123  0.00  0.00    +0.000 C 
ATOM     24  C   UNL     1      -1.520  13.212  21.087  0.00  0.00    +0.000 C 
ATOM     25  O   UNL     1      -2.082  14.063  20.410  0.00  0.00    +0.000 OA
ENDBRANCH  22  24
ENDBRANCH   1  22
TORSDOF 3
ENDMDL
