MODEL 1
REMARK VINA RESULT:      -9.0      0.000      0.000
REMARK  Name = 
REMARK  3 active torsions:
REMARK  status: ('A' for Active; 'I' for Inactive)
REMARK    1  A    between atoms: C_1  and  C_2
REMARK    2  A    between atoms: C_7  and  C_8
REMARK    3  A    between atoms: N_16  and  C_17
REMARK                            x       y       z     vdW  Elec       q    Type
REMARK                         _______ _______ _______ _____ _____    ______ ____
ROOT
ATOM      1  C   UNL     1       4.123   4.752  17.376  0.00  0.00    +0.000 A 
ATOM      2  C   UNL     1       3.483   3.600  17.923  0.00  0.00    +0.000 A 
ATOM      3  C   UNL     1       2.640   3.794  19.010  0.00  0.00    +0.000 A 
ATOM      4  C   UNL     1       2.630   4.985  19.763  0.00  0.00    +0.000 A 
ATOM      5  C   UNL     1       2.939   6.106  19.055  0.00  0.00    +0.000 A 
ATOM      6  C   UNL     1       3.645   6.025  17.851  0.00  0.00    +0.000 A 
ATOM      7  C   UNL     1       3.628   7.354  17.322  0.00  0.00    +0.000 A 
ATOM      8  C   UNL     1       2.867   8.147  18.153  0.00  0.00    +0.000 A 
ATOM      9  N   UNL     1       2.475   7.387  19.226  0.00  0.00    +0.000 N 
ATOM     10  C   UNL     1       1.532   7.839  20.219  0.00  0.00    +0.000 C 
ATOM     11  C   UNL     1       1.793   4.729  20.981  0.00  0.00    +0.000 C 
ATOM     12  C   UNL     1       2.393   3.476  21.734  0.00  0.00    +0.000 C 
ATOM     13  C   UNL     1       1.962   2.261  20.861  0.00  0.00    +0.000 C 
ATOM     14  C   UNL     1       1.506   2.943  19.574  0.00  0.00    +0.000 C 
ATOM     15  C   UNL     1       0.617   4.067  20.249  0.00  0.00    +0.000 C 
ENDROOT
BRANCH   1  22
ATOM     16  C   UNL     1       7.155   5.562  17.791  0.00  0.00    +0.000 C 
ATOM     17  C   UNL     1       6.571   5.055  16.506  0.00  0.00    +0.000 A 
ATOM     18  C   UNL     1       7.478   4.960  15.417  0.00  0.00    +0.000 A 
ATOM     19  C   UNL     1       7.080   4.525  14.153  0.00  0.00    +0.000 A 
ATOM     20  C   UNL     1       5.750   4.228  13.944  0.00  0.00    +0.000 A 
ATOM     21  C   UNL     1       4.836   4.344  15.000  0.00  0.00    +0.000 A 
ATOM     22  C   UNL     1       5.201   4.715  16.322  0.00  0.00    +0.000 A 
ENDBRANCH   1  22
TORSDOF 1
ENDMDL
MODEL 2
REMARK VINA RESULT:      -8.4      1.644      6.186
REMARK  Name = 
REMARK  3 active torsions:
REMARK  status: ('A' for Active; 'I' for Inactive)
REMARK    1  A    between atoms: C_1  and  C_2
REMARK    2  A    between atoms: C_7  and  C_8
REMARK    3  A    between atoms: N_16  and  C_17
REMARK                            x       y       z     vdW  Elec       q    Type
REMARK                         _______ _______ _______ _____ _____    ______ ____
ROOT
ATOM      1  C   UNL     1       2.793   6.711  18.658  0.00  0.00    +0.000 A 
ATOM      2  C   UNL     1       3.802   7.037  17.704  0.00  0.00    +0.000 A 
ATOM      3  C   UNL     1       4.550   5.989  17.182  0.00  0.00    +0.000 A 
ATOM      4  C   UNL     1       4.565   4.704  17.759  0.00  0.00    +0.000 A 
ATOM      5  C   UNL     1       3.406   4.345  18.376  0.00  0.00    +0.000 A 
ATOM      6  C   UNL     1       2.489   5.311  18.802  0.00  0.00    +0.000 A 
ATOM      7  C   UNL     1       1.345   4.568  19.233  0.00  0.00    +0.000 A 
ATOM      8  C   UNL     1       1.569   3.232  18.984  0.00  0.00    +0.000 A 
ATOM      9  N   UNL     1       2.842   3.098  18.490  0.00  0.00    +0.000 N 
ATOM     10  C   UNL     1       3.366   1.862  17.965  0.00  0.00    +0.000 C 
ATOM     11  C   UNL     1       5.660   3.931  17.083  0.00  0.00    +0.000 C 
ATOM     12  C   UNL     1       7.005   4.744  17.244  0.00  0.00    +0.000 C 
ATOM     13  C   UNL     1       6.861   5.925  16.241  0.00  0.00    +0.000 C 
ATOM     14  C   UNL     1       5.374   5.875  15.904  0.00  0.00    +0.000 C 
ATOM     15  C   UNL     1       5.282   4.314  15.645  0.00  0.00    +0.000 C 
ENDROOT
BRANCH   1  22
ATOM     16  C   UNL     1       1.780   9.525  17.621  0.00  0.00    +0.000 C 
ATOM     17  C   UNL     1       1.533   8.978  18.996  0.00  0.00    +0.000 A 
ATOM     18  C   UNL     1       0.797   9.824  19.868  0.00  0.00    +0.000 A 
ATOM     19  C   UNL     1       0.506   9.464  21.183  0.00  0.00    +0.000 A 
ATOM     20  C   UNL     1       0.994   8.268  21.665  0.00  0.00    +0.000 A 
ATOM     21  C   UNL     1       1.746   7.434  20.826  0.00  0.00    +0.000 A 
ATOM     22  C   UNL     1       2.012   7.721  19.461  0.00  0.00    +0.000 A 
ENDBRANCH   1  22
TORSDOF 1
ENDMDL
MODEL 3
REMARK VINA RESULT:      -8.4      1.718      6.347
REMARK  Name = 
REMARK  3 active torsions:
REMARK  status: ('A' for Active; 'I' for Inactive)
REMARK    1  A    between atoms: C_1  and  C_2
REMARK    2  A    between atoms: C_7  and  C_8
REMARK    3  A    between atoms: N_16  and  C_17
REMARK                            x       y       z     vdW  Elec       q    Type
REMARK                         _______ _______ _______ _____ _____    ______ ____
ROOT
ATOM      1  C   UNL     1       2.493   7.105  19.342  0.00  0.00    +0.000 A 
ATOM      2  C   UNL     1       3.320   7.295  18.195  0.00  0.00    +0.000 A 
ATOM      3  C   UNL     1       4.181   6.260  17.851  0.00  0.00    +0.000 A 
ATOM      4  C   UNL     1       4.486   5.200  18.728  0.00  0.00    +0.000 A 
ATOM      5  C   UNL     1       3.482   4.866  19.584  0.00  0.00    +0.000 A 
ATOM      6  C   UNL     1       2.460   5.771  19.883  0.00  0.00    +0.000 A 
ATOM      7  C   UNL     1       1.519   5.022  20.658  0.00  0.00    +0.000 A 
ATOM      8  C   UNL     1       1.948   3.715  20.726  0.00  0.00    +0.000 A 
ATOM      9  N   UNL     1       3.163   3.632  20.096  0.00  0.00    +0.000 N 
ATOM     10  C   UNL     1       3.839   2.386  19.831  0.00  0.00    +0.000 C 
ATOM     11  C   UNL     1       5.621   4.434  18.113  0.00  0.00    +0.000 C 
ATOM     12  C   UNL     1       6.810   5.442  17.856  0.00  0.00    +0.000 C 
ATOM     13  C   UNL     1       6.352   6.267  16.618  0.00  0.00    +0.000 C 
ATOM     14  C   UNL     1       4.869   5.915  16.534  0.00  0.00    +0.000 C 
ATOM     15  C   UNL     1       5.028   4.347  16.700  0.00  0.00    +0.000 C 
ENDROOT
BRANCH   1  22
ATOM     16  C   UNL     1       1.076   9.484  17.808  0.00  0.00    +0.000 C 
ATOM     17  C   UNL     1       0.977   9.235  19.285  0.00  0.00    +0.000 A 
ATOM     18  C   UNL     1       0.190  10.169  20.011  0.00  0.00    +0.000 A 
ATOM     19  C   UNL     1       0.021  10.083  21.393  0.00  0.00    +0.000 A 
ATOM     20  C   UNL     1       0.683   9.088  22.080  0.00  0.00    +0.000 A 
ATOM     21  C   UNL     1       1.487   8.176  21.382  0.00  0.00    +0.000 A 
ATOM     22  C   UNL     1       1.637   8.177  19.969  0.00  0.00    +0.000 A 
ENDBRANCH   1  22
TORSDOF 1
ENDMDL
MODEL 4
REMARK VINA RESULT:      -8.0      1.899      6.042
REMARK  Name = 
REMARK  3 active torsions:
REMARK  status: ('A' for Active; 'I' for Inactive)
REMARK    1  A    between atoms: C_1  and  C_2
REMARK    2  A    between atoms: C_7  and  C_8
REMARK    3  A    between atoms: N_16  and  C_17
REMARK                            x       y       z     vdW  Elec       q    Type
REMARK                         _______ _______ _______ _____ _____    ______ ____
ROOT
ATOM      1  C   UNL     1       2.873   7.090  18.149  0.00  0.00    +0.000 A 
ATOM      2  C   UNL     1       4.113   7.379  17.507  0.00  0.00    +0.000 A 
ATOM      3  C   UNL     1       4.969   6.312  17.264  0.00  0.00    +0.000 A 
ATOM      4  C   UNL     1       4.811   5.054  17.877  0.00  0.00    +0.000 A 
ATOM      5  C   UNL     1       3.521   4.717  18.156  0.00  0.00    +0.000 A 
ATOM      6  C   UNL     1       2.529   5.696  18.262  0.00  0.00    +0.000 A 
ATOM      7  C   UNL     1       1.304   4.968  18.384  0.00  0.00    +0.000 A 
ATOM      8  C   UNL     1       1.579   3.624  18.266  0.00  0.00    +0.000 A 
ATOM      9  N   UNL     1       2.938   3.474  18.159  0.00  0.00    +0.000 N 
ATOM     10  C   UNL     1       3.579   2.218  17.859  0.00  0.00    +0.000 C 
ATOM     11  C   UNL     1       6.046   4.257  17.573  0.00  0.00    +0.000 C 
ATOM     12  C   UNL     1       7.297   5.082  18.073  0.00  0.00    +0.000 C 
ATOM     13  C   UNL     1       7.453   6.218  17.019  0.00  0.00    +0.000 C 
ATOM     14  C   UNL     1       6.121   6.145  16.277  0.00  0.00    +0.000 C 
ATOM     15  C   UNL     1       6.093   4.575  16.072  0.00  0.00    +0.000 C 
ENDROOT
BRANCH   1  22
ATOM     16  C   UNL     1       1.853   7.390  21.131  0.00  0.00    +0.000 C 
ATOM     17  C   UNL     1       1.460   8.289  19.995  0.00  0.00    +0.000 A 
ATOM     18  C   UNL     1       0.550   9.329  20.325  0.00  0.00    +0.000 A 
ATOM     19  C   UNL     1       0.075  10.231  19.373  0.00  0.00    +0.000 A 
ATOM     20  C   UNL     1       0.465  10.072  18.060  0.00  0.00    +0.000 A 
ATOM     21  C   UNL     1       1.339   9.034  17.713  0.00  0.00    +0.000 A 
ATOM     22  C   UNL     1       1.905   8.132  18.653  0.00  0.00    +0.000 A 
ENDBRANCH   1  22
TORSDOF 1
ENDMDL
MODEL 5
REMARK VINA RESULT:      -8.0      1.868      5.426
REMARK  Name = 
REMARK  3 active torsions:
REMARK  status: ('A' for Active; 'I' for Inactive)
REMARK    1  A    between atoms: C_1  and  C_2
REMARK    2  A    between atoms: C_7  and  C_8
REMARK    3  A    between atoms: N_16  and  C_17
REMARK                            x       y       z     vdW  Elec       q    Type
REMARK                         _______ _______ _______ _____ _____    ______ ____
ROOT
ATOM      1  C   UNL     1       1.986   7.248  19.562  0.00  0.00    +0.000 A 
ATOM      2  C   UNL     1       1.685   6.263  20.549  0.00  0.00    +0.000 A 
ATOM      3  C   UNL     1       2.066   4.954  20.280  0.00  0.00    +0.000 A 
ATOM      4  C   UNL     1       2.443   4.519  18.994  0.00  0.00    +0.000 A 
ATOM      5  C   UNL     1       3.041   5.471  18.227  0.00  0.00    +0.000 A 
ATOM      6  C   UNL     1       2.865   6.831  18.500  0.00  0.00    +0.000 A 
ATOM      7  C   UNL     1       3.764   7.505  17.615  0.00  0.00    +0.000 A 
ATOM      8  C   UNL     1       4.487   6.560  16.920  0.00  0.00    +0.000 A 
ATOM      9  N   UNL     1       4.019   5.320  17.275  0.00  0.00    +0.000 N 
ATOM     10  C   UNL     1       4.646   4.087  16.869  0.00  0.00    +0.000 C 
ATOM     11  C   UNL     1       2.537   3.022  19.046  0.00  0.00    +0.000 C 
ATOM     12  C   UNL     1       1.149   2.462  19.552  0.00  0.00    +0.000 C 
ATOM     13  C   UNL     1       1.142   2.775  21.077  0.00  0.00    +0.000 C 
ATOM     14  C   UNL     1       2.301   3.762  21.202  0.00  0.00    +0.000 C 
ATOM     15  C   UNL     1       3.352   2.943  20.345  0.00  0.00    +0.000 C 
ENDROOT
BRANCH   1  22
ATOM     16  C   UNL     1       1.236   8.895  22.159  0.00  0.00    +0.000 C 
ATOM     17  C   UNL     1       1.177   9.429  20.758  0.00  0.00    +0.000 A 
ATOM     18  C   UNL     1       0.734  10.773  20.633  0.00  0.00    +0.000 A 
ATOM     19  C   UNL     1       0.606  11.402  19.395  0.00  0.00    +0.000 A 
ATOM     20  C   UNL     1       0.871  10.675  18.254  0.00  0.00    +0.000 A 
ATOM     21  C   UNL     1       1.282   9.340  18.358  0.00  0.00    +0.000 A 
ATOM     22  C   UNL     1       1.494   8.674  19.594  0.00  0.00    +0.000 A 
ENDBRANCH   1  22
TORSDOF 1
ENDMDL
MODEL 6
REMARK VINA RESULT:      -8.0      1.782      6.079
REMARK  Name = 
REMARK  3 active torsions:
REMARK  status: ('A' for Active; 'I' for Inactive)
REMARK    1  A    between atoms: C_1  and  C_2
REMARK    2  A    between atoms: C_7  and  C_8
REMARK    3  A    between atoms: N_16  and  C_17
REMARK                            x       y       z     vdW  Elec       q    Type
REMARK                         _______ _______ _______ _____ _____    ______ ____
ROOT
ATOM      1  C   UNL     1       2.721   7.279  18.621  0.00  0.00    +0.000 A 
ATOM      2  C   UNL     1       3.816   7.453  17.723  0.00  0.00    +0.000 A 
ATOM      3  C   UNL     1       4.791   6.464  17.708  0.00  0.00    +0.000 A 
ATOM      4  C   UNL     1       4.905   5.491  18.720  0.00  0.00    +0.000 A 
ATOM      5  C   UNL     1       3.726   5.140  19.304  0.00  0.00    +0.000 A 
ATOM      6  C   UNL     1       2.614   5.985  19.244  0.00  0.00    +0.000 A 
ATOM      7  C   UNL     1       1.539   5.221  19.800  0.00  0.00    +0.000 A 
ATOM      8  C   UNL     1       2.004   3.957  20.090  0.00  0.00    +0.000 A 
ATOM      9  N   UNL     1       3.347   3.923  19.815  0.00  0.00    +0.000 N 
ATOM     10  C   UNL     1       4.135   2.715  19.844  0.00  0.00    +0.000 C 
ATOM     11  C   UNL     1       6.203   4.772  18.496  0.00  0.00    +0.000 C 
ATOM     12  C   UNL     1       7.361   5.846  18.480  0.00  0.00    +0.000 C 
ATOM     13  C   UNL     1       7.212   6.551  17.100  0.00  0.00    +0.000 C 
ATOM     14  C   UNL     1       5.828   6.084  16.656  0.00  0.00    +0.000 C 
ATOM     15  C   UNL     1       6.020   4.548  16.988  0.00  0.00    +0.000 C 
ENDROOT
BRANCH   1  22
ATOM     16  C   UNL     1       1.713   8.168  21.488  0.00  0.00    +0.000 C 
ATOM     17  C   UNL     1       1.229   8.746  20.191  0.00  0.00    +0.000 A 
ATOM     18  C   UNL     1       0.234   9.754  20.304  0.00  0.00    +0.000 A 
ATOM     19  C   UNL     1      -0.329  10.371  19.188  0.00  0.00    +0.000 A 
ATOM     20  C   UNL     1       0.057   9.949  17.933  0.00  0.00    +0.000 A 
ATOM     21  C   UNL     1       1.016   8.936  17.804  0.00  0.00    +0.000 A 
ATOM     22  C   UNL     1       1.670   8.324  18.906  0.00  0.00    +0.000 A 
ENDBRANCH   1  22
TORSDOF 1
ENDMDL
MODEL 7
REMARK VINA RESULT:      -7.5      1.746      5.573
REMARK  Name = 
REMARK  3 active torsions:
REMARK  status: ('A' for Active; 'I' for Inactive)
REMARK    1  A    between atoms: C_1  and  C_2
REMARK    2  A    between atoms: C_7  and  C_8
REMARK    3  A    between atoms: N_16  and  C_17
REMARK                            x       y       z     vdW  Elec       q    Type
REMARK                         _______ _______ _______ _____ _____    ______ ____
ROOT
ATOM      1  C   UNL     1       2.034   6.905  19.777  0.00  0.00    +0.000 A 
ATOM      2  C   UNL     1       1.724   5.727  20.519  0.00  0.00    +0.000 A 
ATOM      3  C   UNL     1       2.112   4.509  19.975  0.00  0.00    +0.000 A 
ATOM      4  C   UNL     1       2.507   4.367  18.630  0.00  0.00    +0.000 A 
ATOM      5  C   UNL     1       3.112   5.465  18.098  0.00  0.00    +0.000 A 
ATOM      6  C   UNL     1       2.928   6.731  18.661  0.00  0.00    +0.000 A 
ATOM      7  C   UNL     1       3.836   7.583  17.957  0.00  0.00    +0.000 A 
ATOM      8  C   UNL     1       4.570   6.814  17.081  0.00  0.00    +0.000 A 
ATOM      9  N   UNL     1       4.102   5.526  17.149  0.00  0.00    +0.000 N 
ATOM     10  C   UNL     1       4.738   4.412  16.490  0.00  0.00    +0.000 C 
ATOM     11  C   UNL     1       2.605   2.896  18.353  0.00  0.00    +0.000 C 
ATOM     12  C   UNL     1       1.212   2.237  18.705  0.00  0.00    +0.000 C 
ATOM     13  C   UNL     1       1.185   2.208  20.262  0.00  0.00    +0.000 C 
ATOM     14  C   UNL     1       2.339   3.143  20.615  0.00  0.00    +0.000 C 
ATOM     15  C   UNL     1       3.403   2.533  19.613  0.00  0.00    +0.000 C 
ENDROOT
BRANCH   1  22
ATOM     16  C   UNL     1       1.195   9.138  17.696  0.00  0.00    +0.000 C 
ATOM     17  C   UNL     1       1.136   9.290  19.188  0.00  0.00    +0.000 A 
ATOM     18  C   UNL     1       0.676  10.549  19.657  0.00  0.00    +0.000 A 
ATOM     19  C   UNL     1       0.586  10.848  21.016  0.00  0.00    +0.000 A 
ATOM     20  C   UNL     1       1.007   9.906  21.930  0.00  0.00    +0.000 A 
ATOM     21  C   UNL     1       1.490   8.669  21.483  0.00  0.00    +0.000 A 
ATOM     22  C   UNL     1       1.537   8.288  20.115  0.00  0.00    +0.000 A 
ENDBRANCH   1  22
TORSDOF 1
ENDMDL
MODEL 8
REMARK VINA RESULT:      -6.6      9.220     11.739
REMARK  Name = 
REMARK  3 active torsions:
REMARK  status: ('A' for Active; 'I' for Inactive)
REMARK    1  A    between atoms: C_1  and  C_2
REMARK    2  A    between atoms: C_7  and  C_8
REMARK    3  A    between atoms: N_16  and  C_17
REMARK                            x       y       z     vdW  Elec       q    Type
REMARK                         _______ _______ _______ _____ _____    ______ ____
ROOT
ATOM      1  C   UNL     1       8.738  13.206  22.039  0.00  0.00    +0.000 A 
ATOM      2  C   UNL     1      10.002  12.733  21.577  0.00  0.00    +0.000 A 
ATOM      3  C   UNL     1      10.293  12.902  20.229  0.00  0.00    +0.000 A 
ATOM      4  C   UNL     1       9.310  13.225  19.273  0.00  0.00    +0.000 A 
ATOM      5  C   UNL     1       8.283  13.981  19.749  0.00  0.00    +0.000 A 
ATOM      6  C   UNL     1       7.994  14.024  21.116  0.00  0.00    +0.000 A 
ATOM      7  C   UNL     1       6.990  15.034  21.250  0.00  0.00    +0.000 A 
ATOM      8  C   UNL     1       6.775  15.605  20.015  0.00  0.00    +0.000 A 
ATOM      9  N   UNL     1       7.544  14.937  19.096  0.00  0.00    +0.000 N 
ATOM     10  C   UNL     1       7.698  15.363  17.727  0.00  0.00    +0.000 C 
ATOM     11  C   UNL     1       9.944  13.074  17.921  0.00  0.00    +0.000 C 
ATOM     12  C   UNL     1      10.517  11.606  17.810  0.00  0.00    +0.000 C 
ATOM     13  C   UNL     1      11.795  11.624  18.698  0.00  0.00    +0.000 C 
ATOM     14  C   UNL     1      11.620  12.925  19.477  0.00  0.00    +0.000 C 
ATOM     15  C   UNL     1      11.232  13.843  18.246  0.00  0.00    +0.000 C 
ENDROOT
BRANCH   1  22
ATOM     16  C   UNL     1       9.071  15.093  24.559  0.00  0.00    +0.000 C 
ATOM     17  C   UNL     1       8.302  13.804  24.547  0.00  0.00    +0.000 A 
ATOM     18  C   UNL     1       7.707  13.436  25.784  0.00  0.00    +0.000 A 
ATOM     19  C   UNL     1       6.979  12.256  25.936  0.00  0.00    +0.000 A 
ATOM     20  C   UNL     1       6.879  11.397  24.862  0.00  0.00    +0.000 A 
ATOM     21  C   UNL     1       7.485  11.732  23.644  0.00  0.00    +0.000 A 
ATOM     22  C   UNL     1       8.177  12.951  23.416  0.00  0.00    +0.000 A 
ENDBRANCH   1  22
TORSDOF 1
ENDMDL
MODEL 9
REMARK VINA RESULT:      -6.5      8.818     11.807
REMARK  Name = 
REMARK  3 active torsions:
REMARK  status: ('A' for Active; 'I' for Inactive)
REMARK    1  A    between atoms: C_1  and  C_2
REMARK    2  A    between atoms: C_7  and  C_8
REMARK    3  A    between atoms: N_16  and  C_17
REMARK                            x       y       z     vdW  Elec       q    Type
REMARK                         _______ _______ _______ _____ _____    ______ ____
ROOT
ATOM      1  C   UNL     1       8.555  12.856  22.598  0.00  0.00    +0.000 A 
ATOM      2  C   UNL     1       8.691  11.666  21.824  0.00  0.00    +0.000 A 
ATOM      3  C   UNL     1       9.335  11.772  20.597  0.00  0.00    +0.000 A 
ATOM      4  C   UNL     1       9.576  13.010  19.969  0.00  0.00    +0.000 A 
ATOM      5  C   UNL     1       9.770  14.051  20.823  0.00  0.00    +0.000 A 
ATOM      6  C   UNL     1       9.310  13.995  22.142  0.00  0.00    +0.000 A 
ATOM      7  C   UNL     1       9.839  15.168  22.768  0.00  0.00    +0.000 A 
ATOM      8  C   UNL     1      10.642  15.825  21.862  0.00  0.00    +0.000 A 
ATOM      9  N   UNL     1      10.571  15.156  20.666  0.00  0.00    +0.000 N 
ATOM     10  C   UNL     1      11.406  15.463  19.532  0.00  0.00    +0.000 C 
ATOM     11  C   UNL     1      10.050  12.712  18.577  0.00  0.00    +0.000 C 
ATOM     12  C   UNL     1       8.960  11.813  17.869  0.00  0.00    +0.000 C 
ATOM     13  C   UNL     1       9.144  10.408  18.514  0.00  0.00    +0.000 C 
ATOM     14  C   UNL     1      10.021  10.728  19.723  0.00  0.00    +0.000 C 
ATOM     15  C   UNL     1      11.075  11.637  18.968  0.00  0.00    +0.000 C 
ENDROOT
BRANCH   1  22
ATOM     16  C   UNL     1       5.575  13.908  22.785  0.00  0.00    +0.000 C 
ATOM     17  C   UNL     1       6.388  13.420  23.948  0.00  0.00    +0.000 A 
ATOM     18  C   UNL     1       5.737  13.464  25.210  0.00  0.00    +0.000 A 
ATOM     19  C   UNL     1       6.369  13.064  26.387  0.00  0.00    +0.000 A 
ATOM     20  C   UNL     1       7.686  12.662  26.327  0.00  0.00    +0.000 A 
ATOM     21  C   UNL     1       8.352  12.641  25.094  0.00  0.00    +0.000 A 
ATOM     22  C   UNL     1       7.735  12.971  23.858  0.00  0.00    +0.000 A 
ENDBRANCH   1  22
TORSDOF 1
ENDMDL
