MODEL 1
REMARK VINA RESULT:      -6.1      0.000      0.000
REMARK  Name = 
REMARK  8 active torsions:
REMARK  status: ('A' for Active; 'I' for Inactive)
REMARK    1  A    between atoms: C_1  and  C_2
REMARK    2  A    between atoms: C_7  and  C_8
REMARK    3  A    between atoms: C_7  and  C_9
REMARK    4  A    between atoms: C_11  and  C_12
REMARK    5  A    between atoms: C_14  and  C_15
REMARK    6  A    between atoms: C_18  and  C_19
REMARK    7  A    between atoms: C_18  and  C_20
REMARK    8  A    between atoms: C_22  and  C_23
REMARK                            x       y       z     vdW  Elec       q    Type
REMARK                         _______ _______ _______ _____ _____    ______ ____
ROOT
ATOM      1  C   UNL     1       8.121  11.526  22.602  0.00  0.00    +0.000 C 
ATOM      2  C   UNL     1       8.840  12.848  22.688  0.00  0.00    +0.000 C 
ATOM      3  C   UNL     1       9.722  13.012  21.710  0.00  0.00    +0.000 C 
ATOM      4  C   UNL     1      10.194  14.291  21.285  0.00  0.00    +0.000 C 
ATOM      5  C   UNL     1      10.571  14.513  20.004  0.00  0.00    +0.000 C 
ATOM      6  C   UNL     1      11.100  15.796  19.420  0.00  0.00    +0.000 C 
ATOM      7  C   UNL     1      10.821  15.659  17.913  0.00  0.00    +0.000 C 
ATOM      8  C   UNL     1       9.521  16.365  17.507  0.00  0.00    +0.000 C 
ATOM      9  C   UNL     1      11.984  16.155  17.056  0.00  0.00    +0.000 C 
ATOM     10  N   UNL     1      10.655  14.222  17.638  0.00  0.00    +0.000 NA
ATOM     11  C   UNL     1      10.480  13.631  18.786  0.00  0.00    +0.000 C 
ATOM     12  C   UNL     1      10.167  12.162  18.767  0.00  0.00    +0.000 C 
ATOM     13  C   UNL     1      10.206  15.332  22.317  0.00  0.00    +0.000 C 
ATOM     14  C   UNL     1       9.400  15.248  23.410  0.00  0.00    +0.000 C 
ATOM     15  C   UNL     1       9.433  16.382  24.403  0.00  0.00    +0.000 C 
ATOM     16  C   UNL     1       8.426  14.036  23.640  0.00  0.00    +0.000 C 
ATOM     17  C   UNL     1       8.056  13.730  25.148  0.00  0.00    +0.000 C 
ATOM     18  C   UNL     1       6.652  13.054  25.091  0.00  0.00    +0.000 C 
ATOM     19  C   UNL     1       5.515  13.388  26.085  0.00  0.00    +0.000 C 
ATOM     20  C   UNL     1       6.804  11.529  25.194  0.00  0.00    +0.000 C 
ATOM     21  N   UNL     1       6.075  13.594  23.812  0.00  0.00    +0.000 NA
ATOM     22  C   UNL     1       6.995  14.305  23.229  0.00  0.00    +0.000 C 
ATOM     23  C   UNL     1       6.631  15.209  22.092  0.00  0.00    +0.000 C 
ENDROOT
TORSDOF 0
ENDMDL
MODEL 2
REMARK VINA RESULT:      -6.0      1.687      6.570
REMARK  Name = 
REMARK  8 active torsions:
REMARK  status: ('A' for Active; 'I' for Inactive)
REMARK    1  A    between atoms: C_1  and  C_2
REMARK    2  A    between atoms: C_7  and  C_8
REMARK    3  A    between atoms: C_7  and  C_9
REMARK    4  A    between atoms: C_11  and  C_12
REMARK    5  A    between atoms: C_14  and  C_15
REMARK    6  A    between atoms: C_18  and  C_19
REMARK    7  A    between atoms: C_18  and  C_20
REMARK    8  A    between atoms: C_22  and  C_23
REMARK                            x       y       z     vdW  Elec       q    Type
REMARK                         _______ _______ _______ _____ _____    ______ ____
ROOT
ATOM      1  C   UNL     1      10.255  11.528  20.569  0.00  0.00    +0.000 C 
ATOM      2  C   UNL     1       9.287  12.681  20.479  0.00  0.00    +0.000 C 
ATOM      3  C   UNL     1       8.487  12.756  21.535  0.00  0.00    +0.000 C 
ATOM      4  C   UNL     1       7.817  13.954  21.927  0.00  0.00    +0.000 C 
ATOM      5  C   UNL     1       7.527  14.206  23.226  0.00  0.00    +0.000 C 
ATOM      6  C   UNL     1       6.816  15.411  23.782  0.00  0.00    +0.000 C 
ATOM      7  C   UNL     1       7.257  15.453  25.256  0.00  0.00    +0.000 C 
ATOM      8  C   UNL     1       8.427  16.421  25.474  0.00  0.00    +0.000 C 
ATOM      9  C   UNL     1       6.106  15.791  26.202  0.00  0.00    +0.000 C 
ATOM     10  N   UNL     1       7.725  14.099  25.601  0.00  0.00    +0.000 NA
ATOM     11  C   UNL     1       7.902  13.459  24.480  0.00  0.00    +0.000 C 
ATOM     12  C   UNL     1       8.496  12.083  24.556  0.00  0.00    +0.000 C 
ATOM     13  C   UNL     1       7.506  14.886  20.840  0.00  0.00    +0.000 C 
ATOM     14  C   UNL     1       8.205  14.865  19.674  0.00  0.00    +0.000 C 
ATOM     15  C   UNL     1       7.858  15.887  18.621  0.00  0.00    +0.000 C 
ATOM     16  C   UNL     1       9.370  13.843  19.415  0.00  0.00    +0.000 C 
ATOM     17  C   UNL     1       9.648  13.489  17.898  0.00  0.00    +0.000 C 
ATOM     18  C   UNL     1      11.157  13.095  17.845  0.00  0.00    +0.000 C 
ATOM     19  C   UNL     1      12.108  13.552  16.715  0.00  0.00    +0.000 C 
ATOM     20  C   UNL     1      11.295  11.565  17.855  0.00  0.00    +0.000 C 
ATOM     21  N   UNL     1      11.735  13.837  19.018  0.00  0.00    +0.000 NA
ATOM     22  C   UNL     1      10.754  14.408  19.652  0.00  0.00    +0.000 C 
ATOM     23  C   UNL     1      11.041  15.454  20.683  0.00  0.00    +0.000 C 
ENDROOT
TORSDOF 0
ENDMDL
MODEL 3
REMARK VINA RESULT:      -5.9      1.322      1.506
REMARK  Name = 
REMARK  8 active torsions:
REMARK  status: ('A' for Active; 'I' for Inactive)
REMARK    1  A    between atoms: C_1  and  C_2
REMARK    2  A    between atoms: C_7  and  C_8
REMARK    3  A    between atoms: C_7  and  C_9
REMARK    4  A    between atoms: C_11  and  C_12
REMARK    5  A    between atoms: C_14  and  C_15
REMARK    6  A    between atoms: C_18  and  C_19
REMARK    7  A    between atoms: C_18  and  C_20
REMARK    8  A    between atoms: C_22  and  C_23
REMARK                            x       y       z     vdW  Elec       q    Type
REMARK                         _______ _______ _______ _____ _____    ______ ____
ROOT
ATOM      1  C   UNL     1       7.585  11.507  23.714  0.00  0.00    +0.000 C 
ATOM      2  C   UNL     1       8.455  12.665  23.293  0.00  0.00    +0.000 C 
ATOM      3  C   UNL     1       9.259  12.357  22.284  0.00  0.00    +0.000 C 
ATOM      4  C   UNL     1       9.834  13.331  21.413  0.00  0.00    +0.000 C 
ATOM      5  C   UNL     1      10.118  13.042  20.122  0.00  0.00    +0.000 C 
ATOM      6  C   UNL     1      10.735  13.957  19.098  0.00  0.00    +0.000 C 
ATOM      7  C   UNL     1      10.310  13.347  17.752  0.00  0.00    +0.000 C 
ATOM      8  C   UNL     1       9.068  14.040  17.178  0.00  0.00    +0.000 C 
ATOM      9  C   UNL     1      11.442  13.350  16.725  0.00  0.00    +0.000 C 
ATOM     10  N   UNL     1       9.958  11.940  18.012  0.00  0.00    +0.000 NA
ATOM     11  C   UNL     1       9.820  11.814  19.301  0.00  0.00    +0.000 C 
ATOM     12  C   UNL     1       9.341  10.488  19.818  0.00  0.00    +0.000 C 
ATOM     13  C   UNL     1      10.055  14.653  22.007  0.00  0.00    +0.000 C 
ATOM     14  C   UNL     1       9.345  15.065  23.092  0.00  0.00    +0.000 C 
ATOM     15  C   UNL     1       9.595  16.457  23.615  0.00  0.00    +0.000 C 
ATOM     16  C   UNL     1       8.264  14.155  23.779  0.00  0.00    +0.000 C 
ATOM     17  C   UNL     1       7.997  14.444  25.312  0.00  0.00    +0.000 C 
ATOM     18  C   UNL     1       6.526  13.990  25.559  0.00  0.00    +0.000 C 
ATOM     19  C   UNL     1       5.526  14.800  26.417  0.00  0.00    +0.000 C 
ATOM     20  C   UNL     1       6.513  12.589  26.190  0.00  0.00    +0.000 C 
ATOM     21  N   UNL     1       5.903  14.127  24.197  0.00  0.00    +0.000 NA
ATOM     22  C   UNL     1       6.842  14.458  23.361  0.00  0.00    +0.000 C 
ATOM     23  C   UNL     1       6.483  14.953  21.994  0.00  0.00    +0.000 C 
ENDROOT
TORSDOF 0
ENDMDL
MODEL 4
REMARK VINA RESULT:      -5.9      3.018      6.293
REMARK  Name = 
REMARK  8 active torsions:
REMARK  status: ('A' for Active; 'I' for Inactive)
REMARK    1  A    between atoms: C_1  and  C_2
REMARK    2  A    between atoms: C_7  and  C_8
REMARK    3  A    between atoms: C_7  and  C_9
REMARK    4  A    between atoms: C_11  and  C_12
REMARK    5  A    between atoms: C_14  and  C_15
REMARK    6  A    between atoms: C_18  and  C_19
REMARK    7  A    between atoms: C_18  and  C_20
REMARK    8  A    between atoms: C_22  and  C_23
REMARK                            x       y       z     vdW  Elec       q    Type
REMARK                         _______ _______ _______ _____ _____    ______ ____
ROOT
ATOM      1  C   UNL     1       8.092  12.839  17.461  0.00  0.00    +0.000 C 
ATOM      2  C   UNL     1       8.271  14.153  18.179  0.00  0.00    +0.000 C 
ATOM      3  C   UNL     1       7.201  14.932  18.088  0.00  0.00    +0.000 C 
ATOM      4  C   UNL     1       6.917  15.985  19.010  0.00  0.00    +0.000 C 
ATOM      5  C   UNL     1       5.644  16.351  19.292  0.00  0.00    +0.000 C 
ATOM      6  C   UNL     1       5.196  17.445  20.223  0.00  0.00    +0.000 C 
ATOM      7  C   UNL     1       3.754  17.053  20.588  0.00  0.00    +0.000 C 
ATOM      8  C   UNL     1       3.687  16.304  21.925  0.00  0.00    +0.000 C 
ATOM      9  C   UNL     1       2.808  18.253  20.605  0.00  0.00    +0.000 C 
ATOM     10  N   UNL     1       3.281  16.137  19.537  0.00  0.00    +0.000 NA
ATOM     11  C   UNL     1       4.331  15.740  18.875  0.00  0.00    +0.000 C 
ATOM     12  C   UNL     1       4.126  14.696  17.816  0.00  0.00    +0.000 C 
ATOM     13  C   UNL     1       8.087  16.603  19.640  0.00  0.00    +0.000 C 
ATOM     14  C   UNL     1       9.269  15.937  19.733  0.00  0.00    +0.000 C 
ATOM     15  C   UNL     1      10.414  16.620  20.438  0.00  0.00    +0.000 C 
ATOM     16  C   UNL     1       9.458  14.484  19.165  0.00  0.00    +0.000 C 
ATOM     17  C   UNL     1      10.937  14.092  18.759  0.00  0.00    +0.000 C 
ATOM     18  C   UNL     1      11.003  12.542  18.920  0.00  0.00    +0.000 C 
ATOM     19  C   UNL     1      12.212  11.811  19.550  0.00  0.00    +0.000 C 
ATOM     20  C   UNL     1      10.831  11.870  17.549  0.00  0.00    +0.000 C 
ATOM     21  N   UNL     1       9.941  12.269  19.948  0.00  0.00    +0.000 NA
ATOM     22  C   UNL     1       9.337  13.392  20.205  0.00  0.00    +0.000 C 
ATOM     23  C   UNL     1       8.438  13.499  21.397  0.00  0.00    +0.000 C 
ENDROOT
TORSDOF 0
ENDMDL
MODEL 5
REMARK VINA RESULT:      -5.8     10.644     13.884
REMARK  Name = 
REMARK  8 active torsions:
REMARK  status: ('A' for Active; 'I' for Inactive)
REMARK    1  A    between atoms: C_1  and  C_2
REMARK    2  A    between atoms: C_7  and  C_8
REMARK    3  A    between atoms: C_7  and  C_9
REMARK    4  A    between atoms: C_11  and  C_12
REMARK    5  A    between atoms: C_14  and  C_15
REMARK    6  A    between atoms: C_18  and  C_19
REMARK    7  A    between atoms: C_18  and  C_20
REMARK    8  A    between atoms: C_22  and  C_23
REMARK                            x       y       z     vdW  Elec       q    Type
REMARK                         _______ _______ _______ _____ _____    ______ ____
ROOT
ATOM      1  C   UNL     1      -3.148  12.607  19.871  0.00  0.00    +0.000 C 
ATOM      2  C   UNL     1      -3.783  12.750  21.232  0.00  0.00    +0.000 C 
ATOM      3  C   UNL     1      -2.892  12.981  22.187  0.00  0.00    +0.000 C 
ATOM      4  C   UNL     1      -3.221  13.590  23.436  0.00  0.00    +0.000 C 
ATOM      5  C   UNL     1      -2.322  14.343  24.112  0.00  0.00    +0.000 C 
ATOM      6  C   UNL     1      -2.521  15.030  25.437  0.00  0.00    +0.000 C 
ATOM      7  C   UNL     1      -1.461  16.144  25.439  0.00  0.00    +0.000 C 
ATOM      8  C   UNL     1      -2.048  17.491  24.998  0.00  0.00    +0.000 C 
ATOM      9  C   UNL     1      -0.766  16.287  26.793  0.00  0.00    +0.000 C 
ATOM     10  N   UNL     1      -0.433  15.759  24.457  0.00  0.00    +0.000 NA
ATOM     11  C   UNL     1      -0.942  14.809  23.724  0.00  0.00    +0.000 C 
ATOM     12  C   UNL     1      -0.127  14.322  22.562  0.00  0.00    +0.000 C 
ATOM     13  C   UNL     1      -4.593  13.369  23.902  0.00  0.00    +0.000 C 
ATOM     14  C   UNL     1      -5.589  13.053  23.031  0.00  0.00    +0.000 C 
ATOM     15  C   UNL     1      -6.984  12.888  23.579  0.00  0.00    +0.000 C 
ATOM     16  C   UNL     1      -5.333  12.894  21.489  0.00  0.00    +0.000 C 
ATOM     17  C   UNL     1      -6.340  11.945  20.720  0.00  0.00    +0.000 C 
ATOM     18  C   UNL     1      -6.355  12.475  19.253  0.00  0.00    +0.000 C 
ATOM     19  C   UNL     1      -7.651  12.610  18.420  0.00  0.00    +0.000 C 
ATOM     20  C   UNL     1      -5.434  11.611  18.378  0.00  0.00    +0.000 C 
ATOM     21  N   UNL     1      -5.976  13.921  19.419  0.00  0.00    +0.000 NA
ATOM     22  C   UNL     1      -5.690  14.117  20.672  0.00  0.00    +0.000 C 
ATOM     23  C   UNL     1      -5.565  15.513  21.199  0.00  0.00    +0.000 C 
ENDROOT
TORSDOF 0
ENDMDL
MODEL 6
REMARK VINA RESULT:      -5.8      9.437     13.097
REMARK  Name = 
REMARK  8 active torsions:
REMARK  status: ('A' for Active; 'I' for Inactive)
REMARK    1  A    between atoms: C_1  and  C_2
REMARK    2  A    between atoms: C_7  and  C_8
REMARK    3  A    between atoms: C_7  and  C_9
REMARK    4  A    between atoms: C_11  and  C_12
REMARK    5  A    between atoms: C_14  and  C_15
REMARK    6  A    between atoms: C_18  and  C_19
REMARK    7  A    between atoms: C_18  and  C_20
REMARK    8  A    between atoms: C_22  and  C_23
REMARK                            x       y       z     vdW  Elec       q    Type
REMARK                         _______ _______ _______ _____ _____    ______ ____
ROOT
ATOM      1  C   UNL     1      -0.642  15.372  20.254  0.00  0.00    +0.000 C 
ATOM      2  C   UNL     1      -1.010  14.234  21.173  0.00  0.00    +0.000 C 
ATOM      3  C   UNL     1      -2.030  14.530  21.967  0.00  0.00    +0.000 C 
ATOM      4  C   UNL     1      -2.856  13.543  22.585  0.00  0.00    +0.000 C 
ATOM      5  C   UNL     1      -4.158  13.787  22.862  0.00  0.00    +0.000 C 
ATOM      6  C   UNL     1      -5.140  12.854  23.520  0.00  0.00    +0.000 C 
ATOM      7  C   UNL     1      -6.513  13.387  23.074  0.00  0.00    +0.000 C 
ATOM      8  C   UNL     1      -7.058  12.618  21.864  0.00  0.00    +0.000 C 
ATOM      9  C   UNL     1      -7.537  13.386  24.209  0.00  0.00    +0.000 C 
ATOM     10  N   UNL     1      -6.315  14.788  22.664  0.00  0.00    +0.000 NA
ATOM     11  C   UNL     1      -5.033  14.965  22.516  0.00  0.00    +0.000 C 
ATOM     12  C   UNL     1      -4.576  16.291  21.981  0.00  0.00    +0.000 C 
ATOM     13  C   UNL     1      -2.205  12.259  22.858  0.00  0.00    +0.000 C 
ATOM     14  C   UNL     1      -1.104  11.866  22.163  0.00  0.00    +0.000 C 
ATOM     15  C   UNL     1      -0.519  10.511  22.467  0.00  0.00    +0.000 C 
ATOM     16  C   UNL     1      -0.460  12.760  21.042  0.00  0.00    +0.000 C 
ATOM     17  C   UNL     1       1.084  12.528  20.782  0.00  0.00    +0.000 C 
ATOM     18  C   UNL     1       1.309  12.931  19.292  0.00  0.00    +0.000 C 
ATOM     19  C   UNL     1       2.200  12.118  18.324  0.00  0.00    +0.000 C 
ATOM     20  C   UNL     1       1.877  14.356  19.219  0.00  0.00    +0.000 C 
ATOM     21  N   UNL     1      -0.047  12.708  18.680  0.00  0.00    +0.000 NA
ATOM     22  C   UNL     1      -0.866  12.380  19.635  0.00  0.00    +0.000 C 
ATOM     23  C   UNL     1      -2.210  11.811  19.302  0.00  0.00    +0.000 C 
ENDROOT
TORSDOF 0
ENDMDL
MODEL 7
REMARK VINA RESULT:      -5.7      8.845     11.880
REMARK  Name = 
REMARK  8 active torsions:
REMARK  status: ('A' for Active; 'I' for Inactive)
REMARK    1  A    between atoms: C_1  and  C_2
REMARK    2  A    between atoms: C_7  and  C_8
REMARK    3  A    between atoms: C_7  and  C_9
REMARK    4  A    between atoms: C_11  and  C_12
REMARK    5  A    between atoms: C_14  and  C_15
REMARK    6  A    between atoms: C_18  and  C_19
REMARK    7  A    between atoms: C_18  and  C_20
REMARK    8  A    between atoms: C_22  and  C_23
REMARK                            x       y       z     vdW  Elec       q    Type
REMARK                         _______ _______ _______ _____ _____    ______ ____
ROOT
ATOM      1  C   UNL     1       0.867  14.155  19.532  0.00  0.00    +0.000 C 
ATOM      2  C   UNL     1       0.255  13.566  20.779  0.00  0.00    +0.000 C 
ATOM      3  C   UNL     1      -0.162  14.495  21.628  0.00  0.00    +0.000 C 
ATOM      4  C   UNL     1      -1.151  14.255  22.630  0.00  0.00    +0.000 C 
ATOM      5  C   UNL     1      -1.977  15.239  23.055  0.00  0.00    +0.000 C 
ATOM      6  C   UNL     1      -3.049  15.138  24.107  0.00  0.00    +0.000 C 
ATOM      7  C   UNL     1      -3.998  16.305  23.782  0.00  0.00    +0.000 C 
ATOM      8  C   UNL     1      -5.200  15.847  22.947  0.00  0.00    +0.000 C 
ATOM      9  C   UNL     1      -4.472  17.039  25.036  0.00  0.00    +0.000 C 
ATOM     10  N   UNL     1      -3.231  17.268  22.974  0.00  0.00    +0.000 NA
ATOM     11  C   UNL     1      -2.161  16.651  22.559  0.00  0.00    +0.000 C 
ATOM     12  C   UNL     1      -1.264  17.388  21.607  0.00  0.00    +0.000 C 
ATOM     13  C   UNL     1      -1.222  12.878  23.127  0.00  0.00    +0.000 C 
ATOM     14  C   UNL     1      -0.761  11.837  22.382  0.00  0.00    +0.000 C 
ATOM     15  C   UNL     1      -0.913  10.445  22.940  0.00  0.00    +0.000 C 
ATOM     16  C   UNL     1      -0.118  12.043  20.964  0.00  0.00    +0.000 C 
ATOM     17  C   UNL     1       0.912  10.931  20.509  0.00  0.00    +0.000 C 
ATOM     18  C   UNL     1       0.852  10.937  18.950  0.00  0.00    +0.000 C 
ATOM     19  C   UNL     1       0.845   9.644  18.101  0.00  0.00    +0.000 C 
ATOM     20  C   UNL     1       2.030  11.749  18.388  0.00  0.00    +0.000 C 
ATOM     21  N   UNL     1      -0.529  11.464  18.673  0.00  0.00    +0.000 NA
ATOM     22  C   UNL     1      -1.065  11.794  19.811  0.00  0.00    +0.000 C 
ATOM     23  C   UNL     1      -2.535  12.070  19.891  0.00  0.00    +0.000 C 
ENDROOT
TORSDOF 0
ENDMDL
MODEL 8
REMARK VINA RESULT:      -5.7      9.485     11.887
REMARK  Name = 
REMARK  8 active torsions:
REMARK  status: ('A' for Active; 'I' for Inactive)
REMARK    1  A    between atoms: C_1  and  C_2
REMARK    2  A    between atoms: C_7  and  C_8
REMARK    3  A    between atoms: C_7  and  C_9
REMARK    4  A    between atoms: C_11  and  C_12
REMARK    5  A    between atoms: C_14  and  C_15
REMARK    6  A    between atoms: C_18  and  C_19
REMARK    7  A    between atoms: C_18  and  C_20
REMARK    8  A    between atoms: C_22  and  C_23
REMARK                            x       y       z     vdW  Elec       q    Type
REMARK                         _______ _______ _______ _____ _____    ______ ____
ROOT
ATOM      1  C   UNL     1      -1.711  15.824  21.683  0.00  0.00    +0.000 C 
ATOM      2  C   UNL     1      -2.360  14.667  20.966  0.00  0.00    +0.000 C 
ATOM      3  C   UNL     1      -1.538  14.072  20.111  0.00  0.00    +0.000 C 
ATOM      4  C   UNL     1      -1.717  12.731  19.655  0.00  0.00    +0.000 C 
ATOM      5  C   UNL     1      -0.661  11.956  19.314  0.00  0.00    +0.000 C 
ATOM      6  C   UNL     1      -0.698  10.539  18.806  0.00  0.00    +0.000 C 
ATOM      7  C   UNL     1       0.706   9.995  19.125  0.00  0.00    +0.000 C 
ATOM      8  C   UNL     1       0.725   9.202  20.438  0.00  0.00    +0.000 C 
ATOM      9  C   UNL     1       1.279   9.151  17.987  0.00  0.00    +0.000 C 
ATOM     10  N   UNL     1       1.589  11.162  19.293  0.00  0.00    +0.000 NA
ATOM     11  C   UNL     1       0.820  12.205  19.435  0.00  0.00    +0.000 C 
ATOM     12  C   UNL     1       1.485  13.515  19.743  0.00  0.00    +0.000 C 
ATOM     13  C   UNL     1      -3.104  12.258  19.620  0.00  0.00    +0.000 C 
ATOM     14  C   UNL     1      -4.063  12.832  20.395  0.00  0.00    +0.000 C 
ATOM     15  C   UNL     1      -5.456  12.258  20.339  0.00  0.00    +0.000 C 
ATOM     16  C   UNL     1      -3.751  14.034  21.359  0.00  0.00    +0.000 C 
ATOM     17  C   UNL     1      -4.973  14.985  21.686  0.00  0.00    +0.000 C 
ATOM     18  C   UNL     1      -4.653  15.586  23.089  0.00  0.00    +0.000 C 
ATOM     19  C   UNL     1      -5.716  15.747  24.200  0.00  0.00    +0.000 C 
ATOM     20  C   UNL     1      -4.061  16.995  22.928  0.00  0.00    +0.000 C 
ATOM     21  N   UNL     1      -3.761  14.542  23.702  0.00  0.00    +0.000 NA
ATOM     22  C   UNL     1      -3.535  13.632  22.801  0.00  0.00    +0.000 C 
ATOM     23  C   UNL     1      -2.929  12.322  23.199  0.00  0.00    +0.000 C 
ENDROOT
TORSDOF 0
ENDMDL
MODEL 9
REMARK VINA RESULT:      -5.7      3.541      7.016
REMARK  Name = 
REMARK  8 active torsions:
REMARK  status: ('A' for Active; 'I' for Inactive)
REMARK    1  A    between atoms: C_1  and  C_2
REMARK    2  A    between atoms: C_7  and  C_8
REMARK    3  A    between atoms: C_7  and  C_9
REMARK    4  A    between atoms: C_11  and  C_12
REMARK    5  A    between atoms: C_14  and  C_15
REMARK    6  A    between atoms: C_18  and  C_19
REMARK    7  A    between atoms: C_18  and  C_20
REMARK    8  A    between atoms: C_22  and  C_23
REMARK                            x       y       z     vdW  Elec       q    Type
REMARK                         _______ _______ _______ _____ _____    ______ ____
ROOT
ATOM      1  C   UNL     1       7.583  12.967  17.433  0.00  0.00    +0.000 C 
ATOM      2  C   UNL     1       7.342  14.395  17.853  0.00  0.00    +0.000 C 
ATOM      3  C   UNL     1       6.060  14.731  17.799  0.00  0.00    +0.000 C 
ATOM      4  C   UNL     1       5.501  15.815  18.542  0.00  0.00    +0.000 C 
ATOM      5  C   UNL     1       4.214  15.794  18.961  0.00  0.00    +0.000 C 
ATOM      6  C   UNL     1       3.490  16.864  19.734  0.00  0.00    +0.000 C 
ATOM      7  C   UNL     1       2.326  16.113  20.403  0.00  0.00    +0.000 C 
ATOM      8  C   UNL     1       2.657  15.719  21.848  0.00  0.00    +0.000 C 
ATOM      9  C   UNL     1       1.017  16.900  20.355  0.00  0.00    +0.000 C 
ATOM     10  N   UNL     1       2.120  14.872  19.637  0.00  0.00    +0.000 NA
ATOM     11  C   UNL     1       3.177  14.702  18.894  0.00  0.00    +0.000 C 
ATOM     12  C   UNL     1       3.265  13.432  18.098  0.00  0.00    +0.000 C 
ATOM     13  C   UNL     1       6.423  16.915  18.839  0.00  0.00    +0.000 C 
ATOM     14  C   UNL     1       7.769  16.721  18.854  0.00  0.00    +0.000 C 
ATOM     15  C   UNL     1       8.650  17.889  19.216  0.00  0.00    +0.000 C 
ATOM     16  C   UNL     1       8.415  15.322  18.545  0.00  0.00    +0.000 C 
ATOM     17  C   UNL     1       9.892  15.359  17.975  0.00  0.00    +0.000 C 
ATOM     18  C   UNL     1      10.527  14.002  18.409  0.00  0.00    +0.000 C 
ATOM     19  C   UNL     1      11.970  13.882  18.952  0.00  0.00    +0.000 C 
ATOM     20  C   UNL     1      10.483  13.009  17.237  0.00  0.00    +0.000 C 
ATOM     21  N   UNL     1       9.734  13.641  19.635  0.00  0.00    +0.000 NA
ATOM     22  C   UNL     1       8.792  14.527  19.776  0.00  0.00    +0.000 C 
ATOM     23  C   UNL     1       8.029  14.606  21.061  0.00  0.00    +0.000 C 
ENDROOT
TORSDOF 0
ENDMDL
