MODEL 1
REMARK VINA RESULT:      -8.1      0.000      0.000
REMARK  Name = 
REMARK  10 active torsions:
REMARK  status: ('A' for Active; 'I' for Inactive)
REMARK    1  A    between atoms: C_1  and  C_2
REMARK    2  A    between atoms: C_2  and  N_3
REMARK    3  A    between atoms: C_5  and  C_6
REMARK    4  A    between atoms: C_6  and  N_7
REMARK    5  A    between atoms: N_7  and  C_8
REMARK    6  A    between atoms: N_7  and  C_9
REMARK    7  A    between atoms: C_9  and  C_10
REMARK    8  A    between atoms: C_12  and  C_13
REMARK    9  A    between atoms: C_13  and  C_14
REMARK   10  A    between atoms: C_17  and  C_18
REMARK                            x       y       z     vdW  Elec       q    Type
REMARK                         _______ _______ _______ _____ _____    ______ ____
ROOT
ATOM      1  C   UNL     1       8.058   8.734  17.995  0.00  0.00    +0.000 A 
ATOM      2  N   UNL     1       7.132   8.218  17.216  0.00  0.00    +0.000 NA
ATOM      3  C   UNL     1       7.156   6.893  17.583  0.00  0.00    +0.000 A 
ATOM      4  N   UNL     1       7.996   6.607  18.591  0.00  0.00    +0.000 NA
ATOM      5  O   UNL     1       8.612   7.833  18.855  0.00  0.00    +0.000 OA
ENDROOT
BRANCH   3   6
ATOM      6  C   UNL     1       6.281   5.876  16.913  0.00  0.00    +0.000 C 
ATOM      7  C   UNL     1       5.935   6.248  15.452  0.00  0.00    +0.000 C 
ATOM      8  C   UNL     1       5.480   4.937  14.815  0.00  0.00    +0.000 C 
ATOM      9  C   UNL     1       6.230   3.838  15.563  0.00  0.00    +0.000 C 
ATOM     10  C   UNL     1       7.039   4.551  16.643  0.00  0.00    +0.000 C 
BRANCH   6  11
ATOM     11  C   UNL     1       5.079   5.723  17.864  0.00  0.00    +0.000 A 
ATOM     12  C   UNL     1       3.965   6.580  17.795  0.00  0.00    +0.000 A 
ATOM     13  C   UNL     1       2.861   6.418  18.643  0.00  0.00    +0.000 A 
ATOM     14  C   UNL     1       2.841   5.402  19.599  0.00  0.00    +0.000 A 
ATOM     15  C   UNL     1       1.662   5.213  20.507  0.00  0.00    +0.000 C 
ATOM     16  C   UNL     1       3.952   4.567  19.711  0.00  0.00    +0.000 A 
ATOM     17  C   UNL     1       5.056   4.733  18.867  0.00  0.00    +0.000 A 
ENDBRANCH   6  11
ENDBRANCH   3   6
BRANCH   1  18
ATOM     18  C   UNL     1       8.621  10.113  17.979  0.00  0.00    +0.000 C 
BRANCH  18  19
ATOM     19  N   UNL     1       9.716  10.315  18.961  0.00  0.00    +0.000 NA
ATOM     20  C   UNL     1       9.165  10.910  20.183  0.00  0.00    +0.000 C 
BRANCH  19  21
ATOM     21  C   UNL     1      10.813  11.130  18.397  0.00  0.00    +0.000 C 
BRANCH  21  24
ATOM     22  N   UNL     1      10.821  14.785  17.960  0.00  0.00    +0.000 N 
ATOM     23  C   UNL     1      10.321  13.494  17.557  0.00  0.00    +0.000 C 
ATOM     24  C   UNL     1      10.683  12.611  18.746  0.00  0.00    +0.000 C 
ATOM     25  C   UNL     1      11.986  13.235  19.256  0.00  0.00    +0.000 C 
ATOM     26  C   UNL     1      11.763  14.698  18.974  0.00  0.00    +0.000 C 
ATOM     27  O   UNL     1      12.329  15.623  19.530  0.00  0.00    +0.000 OA
BRANCH  22  29
ATOM     28  C   UNL     1       8.910  16.325  17.972  0.00  0.00    +0.000 C 
ATOM     29  C   UNL     1      10.305  16.036  17.444  0.00  0.00    +0.000 C 
ENDBRANCH  22  29
ENDBRANCH  21  24
ENDBRANCH  19  21
ENDBRANCH  18  19
ENDBRANCH   1  18
TORSDOF 7
ENDMDL
MODEL 2
REMARK VINA RESULT:      -7.9      6.535      9.666
REMARK  Name = 
REMARK  10 active torsions:
REMARK  status: ('A' for Active; 'I' for Inactive)
REMARK    1  A    between atoms: C_1  and  C_2
REMARK    2  A    between atoms: C_2  and  N_3
REMARK    3  A    between atoms: C_5  and  C_6
REMARK    4  A    between atoms: C_6  and  N_7
REMARK    5  A    between atoms: N_7  and  C_8
REMARK    6  A    between atoms: N_7  and  C_9
REMARK    7  A    between atoms: C_9  and  C_10
REMARK    8  A    between atoms: C_12  and  C_13
REMARK    9  A    between atoms: C_13  and  C_14
REMARK   10  A    between atoms: C_17  and  C_18
REMARK                            x       y       z     vdW  Elec       q    Type
REMARK                         _______ _______ _______ _____ _____    ______ ____
ROOT
ATOM      1  C   UNL     1       1.528   8.607  19.920  0.00  0.00    +0.000 A 
ATOM      2  N   UNL     1       1.720   7.432  20.478  0.00  0.00    +0.000 NA
ATOM      3  C   UNL     1       2.145   6.675  19.411  0.00  0.00    +0.000 A 
ATOM      4  N   UNL     1       2.286   7.357  18.263  0.00  0.00    +0.000 NA
ATOM      5  O   UNL     1       1.856   8.644  18.598  0.00  0.00    +0.000 OA
ENDROOT
BRANCH   3   6
ATOM      6  C   UNL     1       2.448   5.213  19.554  0.00  0.00    +0.000 C 
ATOM      7  C   UNL     1       2.406   4.731  21.023  0.00  0.00    +0.000 C 
ATOM      8  C   UNL     1       2.257   3.214  20.929  0.00  0.00    +0.000 C 
ATOM      9  C   UNL     1       1.506   2.958  19.625  0.00  0.00    +0.000 C 
ATOM     10  C   UNL     1       1.308   4.330  18.986  0.00  0.00    +0.000 C 
BRANCH   6  11
ATOM     11  C   UNL     1       3.796   5.031  18.831  0.00  0.00    +0.000 A 
ATOM     12  C   UNL     1       5.016   5.382  19.437  0.00  0.00    +0.000 A 
ATOM     13  C   UNL     1       6.242   5.187  18.786  0.00  0.00    +0.000 A 
ATOM     14  C   UNL     1       6.287   4.648  17.501  0.00  0.00    +0.000 A 
ATOM     15  C   UNL     1       7.592   4.426  16.796  0.00  0.00    +0.000 C 
ATOM     16  C   UNL     1       5.086   4.332  16.865  0.00  0.00    +0.000 A 
ATOM     17  C   UNL     1       3.862   4.532  17.515  0.00  0.00    +0.000 A 
ENDBRANCH   6  11
ENDBRANCH   3   6
BRANCH   1  18
ATOM     18  C   UNL     1       0.923   9.830  20.518  0.00  0.00    +0.000 C 
BRANCH  18  19
ATOM     19  N   UNL     1       0.190  10.666  19.535  0.00  0.00    +0.000 NA
ATOM     20  C   UNL     1       0.202  12.062  19.984  0.00  0.00    +0.000 C 
BRANCH  19  21
ATOM     21  C   UNL     1      -1.186  10.170  19.313  0.00  0.00    +0.000 C 
BRANCH  21  24
ATOM     22  N   UNL     1      -3.913  11.293  17.111  0.00  0.00    +0.000 N 
ATOM     23  C   UNL     1      -3.361  11.190  18.439  0.00  0.00    +0.000 C 
ATOM     24  C   UNL     1      -1.891  10.890  18.166  0.00  0.00    +0.000 C 
ATOM     25  C   UNL     1      -1.940  10.072  16.871  0.00  0.00    +0.000 C 
ATOM     26  C   UNL     1      -3.109  10.697  16.152  0.00  0.00    +0.000 C 
ATOM     27  O   UNL     1      -3.307  10.657  14.951  0.00  0.00    +0.000 OA
BRANCH  22  29
ATOM     28  C   UNL     1      -6.216  11.769  17.813  0.00  0.00    +0.000 C 
ATOM     29  C   UNL     1      -5.114  12.043  16.804  0.00  0.00    +0.000 C 
ENDBRANCH  22  29
ENDBRANCH  21  24
ENDBRANCH  19  21
ENDBRANCH  18  19
ENDBRANCH   1  18
TORSDOF 7
ENDMDL
MODEL 3
REMARK VINA RESULT:      -7.8      6.483      9.759
REMARK  Name = 
REMARK  10 active torsions:
REMARK  status: ('A' for Active; 'I' for Inactive)
REMARK    1  A    between atoms: C_1  and  C_2
REMARK    2  A    between atoms: C_2  and  N_3
REMARK    3  A    between atoms: C_5  and  C_6
REMARK    4  A    between atoms: C_6  and  N_7
REMARK    5  A    between atoms: N_7  and  C_8
REMARK    6  A    between atoms: N_7  and  C_9
REMARK    7  A    between atoms: C_9  and  C_10
REMARK    8  A    between atoms: C_12  and  C_13
REMARK    9  A    between atoms: C_13  and  C_14
REMARK   10  A    between atoms: C_17  and  C_18
REMARK                            x       y       z     vdW  Elec       q    Type
REMARK                         _______ _______ _______ _____ _____    ______ ____
ROOT
ATOM      1  C   UNL     1       1.645   8.865  19.326  0.00  0.00    +0.000 A 
ATOM      2  N   UNL     1       1.750   7.702  19.933  0.00  0.00    +0.000 NA
ATOM      3  C   UNL     1       2.110   6.871  18.898  0.00  0.00    +0.000 A 
ATOM      4  N   UNL     1       2.297   7.492  17.721  0.00  0.00    +0.000 NA
ATOM      5  O   UNL     1       1.969   8.821  18.003  0.00  0.00    +0.000 OA
ENDROOT
BRANCH   3   6
ATOM      6  C   UNL     1       2.301   5.398  19.102  0.00  0.00    +0.000 C 
ATOM      7  C   UNL     1       1.953   4.939  20.537  0.00  0.00    +0.000 C 
ATOM      8  C   UNL     1       1.743   3.431  20.422  0.00  0.00    +0.000 C 
ATOM      9  C   UNL     1       1.244   3.195  18.999  0.00  0.00    +0.000 C 
ATOM     10  C   UNL     1       1.245   4.567  18.328  0.00  0.00    +0.000 C 
BRANCH   6  11
ATOM     11  C   UNL     1       3.751   5.136  18.652  0.00  0.00    +0.000 A 
ATOM     12  C   UNL     1       4.048   4.547  17.410  0.00  0.00    +0.000 A 
ATOM     13  C   UNL     1       5.369   4.338  16.993  0.00  0.00    +0.000 A 
ATOM     14  C   UNL     1       6.439   4.698  17.813  0.00  0.00    +0.000 A 
ATOM     15  C   UNL     1       7.858   4.487  17.375  0.00  0.00    +0.000 C 
ATOM     16  C   UNL     1       6.167   5.245  19.066  0.00  0.00    +0.000 A 
ATOM     17  C   UNL     1       4.846   5.449  19.483  0.00  0.00    +0.000 A 
ENDBRANCH   6  11
ENDBRANCH   3   6
BRANCH   1  18
ATOM     18  C   UNL     1       1.137  10.154  19.873  0.00  0.00    +0.000 C 
BRANCH  18  19
ATOM     19  N   UNL     1       0.241  10.879  18.938  0.00  0.00    +0.000 NA
ATOM     20  C   UNL     1       0.236  12.304  19.282  0.00  0.00    +0.000 C 
BRANCH  19  21
ATOM     21  C   UNL     1      -1.123  10.307  18.935  0.00  0.00    +0.000 C 
BRANCH  21  24
ATOM     22  N   UNL     1      -4.203  11.369  17.223  0.00  0.00    +0.000 N 
ATOM     23  C   UNL     1      -3.385  11.376  18.411  0.00  0.00    +0.000 C 
ATOM     24  C   UNL     1      -2.024  10.943  17.878  0.00  0.00    +0.000 C 
ATOM     25  C   UNL     1      -2.386   9.991  16.733  0.00  0.00    +0.000 C 
ATOM     26  C   UNL     1      -3.652  10.613  16.200  0.00  0.00    +0.000 C 
ATOM     27  O   UNL     1      -4.103  10.454  15.080  0.00  0.00    +0.000 OA
BRANCH  22  29
ATOM     28  C   UNL     1      -6.562  11.574  17.869  0.00  0.00    +0.000 C 
ATOM     29  C   UNL     1      -5.406  12.164  17.080  0.00  0.00    +0.000 C 
ENDBRANCH  22  29
ENDBRANCH  21  24
ENDBRANCH  19  21
ENDBRANCH  18  19
ENDBRANCH   1  18
TORSDOF 7
ENDMDL
MODEL 4
REMARK VINA RESULT:      -7.8      5.590      8.089
REMARK  Name = 
REMARK  10 active torsions:
REMARK  status: ('A' for Active; 'I' for Inactive)
REMARK    1  A    between atoms: C_1  and  C_2
REMARK    2  A    between atoms: C_2  and  N_3
REMARK    3  A    between atoms: C_5  and  C_6
REMARK    4  A    between atoms: C_6  and  N_7
REMARK    5  A    between atoms: N_7  and  C_8
REMARK    6  A    between atoms: N_7  and  C_9
REMARK    7  A    between atoms: C_9  and  C_10
REMARK    8  A    between atoms: C_12  and  C_13
REMARK    9  A    between atoms: C_13  and  C_14
REMARK   10  A    between atoms: C_17  and  C_18
REMARK                            x       y       z     vdW  Elec       q    Type
REMARK                         _______ _______ _______ _____ _____    ______ ____
ROOT
ATOM      1  C   UNL     1       6.238   5.364  18.656  0.00  0.00    +0.000 A 
ATOM      2  N   UNL     1       4.988   5.764  18.754  0.00  0.00    +0.000 NA
ATOM      3  C   UNL     1       4.363   4.632  19.223  0.00  0.00    +0.000 A 
ATOM      4  N   UNL     1       5.186   3.602  19.478  0.00  0.00    +0.000 NA
ATOM      5  O   UNL     1       6.437   4.085  19.082  0.00  0.00    +0.000 OA
ENDROOT
BRANCH   3   6
ATOM      6  C   UNL     1       2.881   4.589  19.449  0.00  0.00    +0.000 C 
ATOM      7  C   UNL     1       2.162   3.568  18.539  0.00  0.00    +0.000 C 
ATOM      8  C   UNL     1       0.816   3.323  19.217  0.00  0.00    +0.000 C 
ATOM      9  C   UNL     1       1.064   3.543  20.707  0.00  0.00    +0.000 C 
ATOM     10  C   UNL     1       2.525   3.969  20.824  0.00  0.00    +0.000 C 
BRANCH   6  11
ATOM     11  C   UNL     1       2.430   6.054  19.292  0.00  0.00    +0.000 A 
ATOM     12  C   UNL     1       2.016   6.825  20.393  0.00  0.00    +0.000 A 
ATOM     13  C   UNL     1       1.634   8.166  20.249  0.00  0.00    +0.000 A 
ATOM     14  C   UNL     1       1.641   8.776  18.995  0.00  0.00    +0.000 A 
ATOM     15  C   UNL     1       1.243  10.213  18.828  0.00  0.00    +0.000 C 
ATOM     16  C   UNL     1       2.008   8.018  17.883  0.00  0.00    +0.000 A 
ATOM     17  C   UNL     1       2.384   6.677  18.029  0.00  0.00    +0.000 A 
ENDBRANCH   6  11
ENDBRANCH   3   6
BRANCH   1  18
ATOM     18  C   UNL     1       7.398   6.085  18.062  0.00  0.00    +0.000 C 
BRANCH  18  19
ATOM     19  N   UNL     1       7.313   6.227  16.587  0.00  0.00    +0.000 NA
ATOM     20  C   UNL     1       6.075   6.932  16.241  0.00  0.00    +0.000 C 
BRANCH  19  21
ATOM     21  C   UNL     1       7.411   4.918  15.905  0.00  0.00    +0.000 C 
BRANCH  21  24
ATOM     22  N   UNL     1       6.177   3.673  12.669  0.00  0.00    +0.000 N 
ATOM     23  C   UNL     1       6.131   3.625  14.110  0.00  0.00    +0.000 C 
ATOM     24  C   UNL     1       6.798   4.937  14.507  0.00  0.00    +0.000 C 
ATOM     25  C   UNL     1       7.826   5.155  13.392  0.00  0.00    +0.000 C 
ATOM     26  C   UNL     1       7.115   4.576  12.195  0.00  0.00    +0.000 C 
ATOM     27  O   UNL     1       7.350   4.847  11.031  0.00  0.00    +0.000 OA
BRANCH  22  29
ATOM     28  C   UNL     1       5.836   1.609  11.385  0.00  0.00    +0.000 C 
ATOM     29  C   UNL     1       5.257   2.946  11.819  0.00  0.00    +0.000 C 
ENDBRANCH  22  29
ENDBRANCH  21  24
ENDBRANCH  19  21
ENDBRANCH  18  19
ENDBRANCH   1  18
TORSDOF 7
ENDMDL
MODEL 5
REMARK VINA RESULT:      -7.7      5.843      9.325
REMARK  Name = 
REMARK  10 active torsions:
REMARK  status: ('A' for Active; 'I' for Inactive)
REMARK    1  A    between atoms: C_1  and  C_2
REMARK    2  A    between atoms: C_2  and  N_3
REMARK    3  A    between atoms: C_5  and  C_6
REMARK    4  A    between atoms: C_6  and  N_7
REMARK    5  A    between atoms: N_7  and  C_8
REMARK    6  A    between atoms: N_7  and  C_9
REMARK    7  A    between atoms: C_9  and  C_10
REMARK    8  A    between atoms: C_12  and  C_13
REMARK    9  A    between atoms: C_13  and  C_14
REMARK   10  A    between atoms: C_17  and  C_18
REMARK                            x       y       z     vdW  Elec       q    Type
REMARK                         _______ _______ _______ _____ _____    ______ ____
ROOT
ATOM      1  C   UNL     1       1.530   7.823  20.223  0.00  0.00    +0.000 A 
ATOM      2  N   UNL     1       2.158   7.215  19.240  0.00  0.00    +0.000 NA
ATOM      3  C   UNL     1       2.206   5.917  19.691  0.00  0.00    +0.000 A 
ATOM      4  N   UNL     1       1.577   5.707  20.858  0.00  0.00    +0.000 NA
ATOM      5  O   UNL     1       1.140   6.983  21.224  0.00  0.00    +0.000 OA
ENDROOT
BRANCH   3   6
ATOM      6  C   UNL     1       2.890   4.837  18.907  0.00  0.00    +0.000 C 
ATOM      7  C   UNL     1       3.033   3.517  19.699  0.00  0.00    +0.000 C 
ATOM      8  C   UNL     1       3.287   2.451  18.634  0.00  0.00    +0.000 C 
ATOM      9  C   UNL     1       2.583   2.954  17.377  0.00  0.00    +0.000 C 
ATOM     10  C   UNL     1       2.004   4.318  17.745  0.00  0.00    +0.000 C 
BRANCH   6  11
ATOM     11  C   UNL     1       4.210   5.482  18.443  0.00  0.00    +0.000 A 
ATOM     12  C   UNL     1       4.295   6.225  17.252  0.00  0.00    +0.000 A 
ATOM     13  C   UNL     1       5.491   6.834  16.849  0.00  0.00    +0.000 A 
ATOM     14  C   UNL     1       6.648   6.707  17.619  0.00  0.00    +0.000 A 
ATOM     15  C   UNL     1       7.932   7.361  17.204  0.00  0.00    +0.000 C 
ATOM     16  C   UNL     1       6.597   5.940  18.782  0.00  0.00    +0.000 A 
ATOM     17  C   UNL     1       5.402   5.328  19.180  0.00  0.00    +0.000 A 
ENDBRANCH   6  11
ENDBRANCH   3   6
BRANCH   1  18
ATOM     18  C   UNL     1       1.294   9.282  20.412  0.00  0.00    +0.000 C 
BRANCH  18  19
ATOM     19  N   UNL     1       0.666   9.935  19.236  0.00  0.00    +0.000 NA
ATOM     20  C   UNL     1       1.439  11.128  18.877  0.00  0.00    +0.000 C 
BRANCH  19  21
ATOM     21  C   UNL     1      -0.757  10.253  19.483  0.00  0.00    +0.000 C 
BRANCH  21  24
ATOM     22  N   UNL     1      -3.485  11.013  17.131  0.00  0.00    +0.000 N 
ATOM     23  C   UNL     1      -2.935  11.116  18.461  0.00  0.00    +0.000 C 
ATOM     24  C   UNL     1      -1.463  10.786  18.238  0.00  0.00    +0.000 C 
ATOM     25  C   UNL     1      -1.505   9.780  17.083  0.00  0.00    +0.000 C 
ATOM     26  C   UNL     1      -2.675  10.282  16.276  0.00  0.00    +0.000 C 
ATOM     27  O   UNL     1      -2.870  10.058  15.094  0.00  0.00    +0.000 OA
BRANCH  22  29
ATOM     28  C   UNL     1      -5.720  11.752  17.826  0.00  0.00    +0.000 C 
ATOM     29  C   UNL     1      -4.688  11.701  16.711  0.00  0.00    +0.000 C 
ENDBRANCH  22  29
ENDBRANCH  21  24
ENDBRANCH  19  21
ENDBRANCH  18  19
ENDBRANCH   1  18
TORSDOF 7
ENDMDL
MODEL 6
REMARK VINA RESULT:      -7.7      6.392      9.433
REMARK  Name = 
REMARK  10 active torsions:
REMARK  status: ('A' for Active; 'I' for Inactive)
REMARK    1  A    between atoms: C_1  and  C_2
REMARK    2  A    between atoms: C_2  and  N_3
REMARK    3  A    between atoms: C_5  and  C_6
REMARK    4  A    between atoms: C_6  and  N_7
REMARK    5  A    between atoms: N_7  and  C_8
REMARK    6  A    between atoms: N_7  and  C_9
REMARK    7  A    between atoms: C_9  and  C_10
REMARK    8  A    between atoms: C_12  and  C_13
REMARK    9  A    between atoms: C_13  and  C_14
REMARK   10  A    between atoms: C_17  and  C_18
REMARK                            x       y       z     vdW  Elec       q    Type
REMARK                         _______ _______ _______ _____ _____    ______ ____
ROOT
ATOM      1  C   UNL     1       1.628   8.722  19.647  0.00  0.00    +0.000 A 
ATOM      2  N   UNL     1       1.812   7.569  20.252  0.00  0.00    +0.000 NA
ATOM      3  C   UNL     1       2.128   6.741  19.200  0.00  0.00    +0.000 A 
ATOM      4  N   UNL     1       2.213   7.357  18.009  0.00  0.00    +0.000 NA
ATOM      5  O   UNL     1       1.861   8.677  18.304  0.00  0.00    +0.000 OA
ENDROOT
BRANCH   3   6
ATOM      6  C   UNL     1       2.381   5.276  19.400  0.00  0.00    +0.000 C 
ATOM      7  C   UNL     1       2.230   4.835  20.874  0.00  0.00    +0.000 C 
ATOM      8  C   UNL     1       2.046   3.321  20.809  0.00  0.00    +0.000 C 
ATOM      9  C   UNL     1       1.376   3.048  19.465  0.00  0.00    +0.000 C 
ATOM     10  C   UNL     1       1.258   4.407  18.779  0.00  0.00    +0.000 C 
BRANCH   6  11
ATOM     11  C   UNL     1       3.769   5.041  18.773  0.00  0.00    +0.000 A 
ATOM     12  C   UNL     1       3.920   4.464  17.499  0.00  0.00    +0.000 A 
ATOM     13  C   UNL     1       5.183   4.279  16.922  0.00  0.00    +0.000 A 
ATOM     14  C   UNL     1       6.340   4.652  17.606  0.00  0.00    +0.000 A 
ATOM     15  C   UNL     1       7.697   4.468  16.997  0.00  0.00    +0.000 C 
ATOM     16  C   UNL     1       6.215   5.188  18.888  0.00  0.00    +0.000 A 
ATOM     17  C   UNL     1       4.952   5.367  19.466  0.00  0.00    +0.000 A 
ENDBRANCH   6  11
ENDBRANCH   3   6
BRANCH   1  18
ATOM     18  C   UNL     1       1.116   9.999  20.218  0.00  0.00    +0.000 C 
BRANCH  18  19
ATOM     19  N   UNL     1       0.453  10.870  19.216  0.00  0.00    +0.000 NA
ATOM     20  C   UNL     1       1.348  11.980  18.874  0.00  0.00    +0.000 C 
BRANCH  19  21
ATOM     21  C   UNL     1      -0.862  11.349  19.694  0.00  0.00    +0.000 C 
BRANCH  21  24
ATOM     22  N   UNL     1      -2.841  10.305  16.771  0.00  0.00    +0.000 N 
ATOM     23  C   UNL     1      -1.614  10.224  17.525  0.00  0.00    +0.000 C 
ATOM     24  C   UNL     1      -2.024  10.775  18.887  0.00  0.00    +0.000 C 
ATOM     25  C   UNL     1      -3.094  11.813  18.532  0.00  0.00    +0.000 C 
ATOM     26  C   UNL     1      -3.755  11.183  17.333  0.00  0.00    +0.000 C 
ATOM     27  O   UNL     1      -4.879  11.427  16.932  0.00  0.00    +0.000 OA
BRANCH  22  29
ATOM     28  C   UNL     1      -3.032  10.251  14.324  0.00  0.00    +0.000 C 
ATOM     29  C   UNL     1      -3.127   9.468  15.624  0.00  0.00    +0.000 C 
ENDBRANCH  22  29
ENDBRANCH  21  24
ENDBRANCH  19  21
ENDBRANCH  18  19
ENDBRANCH   1  18
TORSDOF 7
ENDMDL
MODEL 7
REMARK VINA RESULT:      -7.5      6.335      9.476
REMARK  Name = 
REMARK  10 active torsions:
REMARK  status: ('A' for Active; 'I' for Inactive)
REMARK    1  A    between atoms: C_1  and  C_2
REMARK    2  A    between atoms: C_2  and  N_3
REMARK    3  A    between atoms: C_5  and  C_6
REMARK    4  A    between atoms: C_6  and  N_7
REMARK    5  A    between atoms: N_7  and  C_8
REMARK    6  A    between atoms: N_7  and  C_9
REMARK    7  A    between atoms: C_9  and  C_10
REMARK    8  A    between atoms: C_12  and  C_13
REMARK    9  A    between atoms: C_13  and  C_14
REMARK   10  A    between atoms: C_17  and  C_18
REMARK                            x       y       z     vdW  Elec       q    Type
REMARK                         _______ _______ _______ _____ _____    ______ ____
ROOT
ATOM      1  C   UNL     1       2.329   7.619  19.033  0.00  0.00    +0.000 A 
ATOM      2  N   UNL     1       1.523   8.188  19.903  0.00  0.00    +0.000 NA
ATOM      3  C   UNL     1       1.207   9.368  19.270  0.00  0.00    +0.000 A 
ATOM      4  N   UNL     1       1.725   9.497  18.038  0.00  0.00    +0.000 NA
ATOM      5  O   UNL     1       2.489   8.337  17.886  0.00  0.00    +0.000 OA
ENDROOT
BRANCH   3   6
ATOM      6  C   UNL     1       0.329  10.397  19.917  0.00  0.00    +0.000 C 
ATOM      7  C   UNL     1      -0.089  10.013  21.356  0.00  0.00    +0.000 C 
ATOM      8  C   UNL     1      -0.539  11.325  21.993  0.00  0.00    +0.000 C 
ATOM      9  C   UNL     1       0.268  12.416  21.295  0.00  0.00    +0.000 C 
ATOM     10  C   UNL     1       1.106  11.699  20.239  0.00  0.00    +0.000 C 
BRANCH   6  11
ATOM     11  C   UNL     1      -0.827  10.593  18.918  0.00  0.00    +0.000 A 
ATOM     12  C   UNL     1      -1.022  11.808  18.237  0.00  0.00    +0.000 A 
ATOM     13  C   UNL     1      -2.058  11.972  17.308  0.00  0.00    +0.000 A 
ATOM     14  C   UNL     1      -2.943  10.928  17.039  0.00  0.00    +0.000 A 
ATOM     15  C   UNL     1      -4.051  11.087  16.040  0.00  0.00    +0.000 C 
ATOM     16  C   UNL     1      -2.794   9.728  17.733  0.00  0.00    +0.000 A 
ATOM     17  C   UNL     1      -1.761   9.568  18.665  0.00  0.00    +0.000 A 
ENDBRANCH   6  11
ENDBRANCH   3   6
BRANCH   1  18
ATOM     18  C   UNL     1       3.135   6.376  19.190  0.00  0.00    +0.000 C 
BRANCH  18  19
ATOM     19  N   UNL     1       2.365   5.135  18.926  0.00  0.00    +0.000 NA
ATOM     20  C   UNL     1       1.825   4.624  20.190  0.00  0.00    +0.000 C 
BRANCH  19  21
ATOM     21  C   UNL     1       3.183   4.122  18.225  0.00  0.00    +0.000 C 
BRANCH  21  24
ATOM     22  N   UNL     1       6.142   4.450  16.061  0.00  0.00    +0.000 N 
ATOM     23  C   UNL     1       4.712   4.308  16.185  0.00  0.00    +0.000 C 
ATOM     24  C   UNL     1       4.464   4.709  17.635  0.00  0.00    +0.000 C 
ATOM     25  C   UNL     1       5.736   4.238  18.347  0.00  0.00    +0.000 C 
ATOM     26  C   UNL     1       6.786   4.457  17.288  0.00  0.00    +0.000 C 
ATOM     27  O   UNL     1       7.979   4.593  17.490  0.00  0.00    +0.000 OA
BRANCH  22  29
ATOM     28  C   UNL     1       6.176   3.879  13.673  0.00  0.00    +0.000 C 
ATOM     29  C   UNL     1       6.812   4.681  14.798  0.00  0.00    +0.000 C 
ENDBRANCH  22  29
ENDBRANCH  21  24
ENDBRANCH  19  21
ENDBRANCH  18  19
ENDBRANCH   1  18
TORSDOF 7
ENDMDL
MODEL 8
REMARK VINA RESULT:      -7.5      6.502      9.538
REMARK  Name = 
REMARK  10 active torsions:
REMARK  status: ('A' for Active; 'I' for Inactive)
REMARK    1  A    between atoms: C_1  and  C_2
REMARK    2  A    between atoms: C_2  and  N_3
REMARK    3  A    between atoms: C_5  and  C_6
REMARK    4  A    between atoms: C_6  and  N_7
REMARK    5  A    between atoms: N_7  and  C_8
REMARK    6  A    between atoms: N_7  and  C_9
REMARK    7  A    between atoms: C_9  and  C_10
REMARK    8  A    between atoms: C_12  and  C_13
REMARK    9  A    between atoms: C_13  and  C_14
REMARK   10  A    between atoms: C_17  and  C_18
REMARK                            x       y       z     vdW  Elec       q    Type
REMARK                         _______ _______ _______ _____ _____    ______ ____
ROOT
ATOM      1  C   UNL     1       1.832   8.542  18.794  0.00  0.00    +0.000 A 
ATOM      2  N   UNL     1       2.009   7.375  18.213  0.00  0.00    +0.000 NA
ATOM      3  C   UNL     1       2.014   6.519  19.290  0.00  0.00    +0.000 A 
ATOM      4  N   UNL     1       1.776   7.107  20.473  0.00  0.00    +0.000 NA
ATOM      5  O   UNL     1       1.672   8.461  20.145  0.00  0.00    +0.000 OA
ENDROOT
BRANCH   3   6
ATOM      6  C   UNL     1       2.240   5.046  19.122  0.00  0.00    +0.000 C 
ATOM      7  C   UNL     1       1.896   4.235  20.392  0.00  0.00    +0.000 C 
ATOM      8  C   UNL     1       1.725   2.799  19.902  0.00  0.00    +0.000 C 
ATOM      9  C   UNL     1       1.240   2.915  18.459  0.00  0.00    +0.000 C 
ATOM     10  C   UNL     1       1.211   4.411  18.152  0.00  0.00    +0.000 C 
BRANCH   6  11
ATOM     11  C   UNL     1       3.699   4.938  18.638  0.00  0.00    +0.000 A 
ATOM     12  C   UNL     1       4.783   5.272  19.470  0.00  0.00    +0.000 A 
ATOM     13  C   UNL     1       6.109   5.145  19.036  0.00  0.00    +0.000 A 
ATOM     14  C   UNL     1       6.395   4.693  17.747  0.00  0.00    +0.000 A 
ATOM     15  C   UNL     1       7.810   4.544  17.272  0.00  0.00    +0.000 C 
ATOM     16  C   UNL     1       5.334   4.396  16.891  0.00  0.00    +0.000 A 
ATOM     17  C   UNL     1       4.010   4.529  17.326  0.00  0.00    +0.000 A 
ENDBRANCH   6  11
ENDBRANCH   3   6
BRANCH   1  18
ATOM     18  C   UNL     1       1.883   9.900  18.183  0.00  0.00    +0.000 C 
BRANCH  18  19
ATOM     19  N   UNL     1       0.704  10.739  18.510  0.00  0.00    +0.000 NA
ATOM     20  C   UNL     1       0.876  11.314  19.848  0.00  0.00    +0.000 C 
BRANCH  19  21
ATOM     21  C   UNL     1      -0.558   9.977  18.395  0.00  0.00    +0.000 C 
BRANCH  21  24
ATOM     22  N   UNL     1      -3.824  11.133  17.150  0.00  0.00    +0.000 N 
ATOM     23  C   UNL     1      -2.859  11.076  18.221  0.00  0.00    +0.000 C 
ATOM     24  C   UNL     1      -1.582  10.668  17.497  0.00  0.00    +0.000 C 
ATOM     25  C   UNL     1      -2.097   9.779  16.361  0.00  0.00    +0.000 C 
ATOM     26  C   UNL     1      -3.415  10.430  16.027  0.00  0.00    +0.000 C 
ATOM     27  O   UNL     1      -4.008  10.331  14.968  0.00  0.00    +0.000 OA
BRANCH  22  29
ATOM     28  C   UNL     1      -5.681  11.871  18.575  0.00  0.00    +0.000 C 
ATOM     29  C   UNL     1      -5.028  11.937  17.204  0.00  0.00    +0.000 C 
ENDBRANCH  22  29
ENDBRANCH  21  24
ENDBRANCH  19  21
ENDBRANCH  18  19
ENDBRANCH   1  18
TORSDOF 7
ENDMDL
MODEL 9
REMARK VINA RESULT:      -7.5      6.535      9.563
REMARK  Name = 
REMARK  10 active torsions:
REMARK  status: ('A' for Active; 'I' for Inactive)
REMARK    1  A    between atoms: C_1  and  C_2
REMARK    2  A    between atoms: C_2  and  N_3
REMARK    3  A    between atoms: C_5  and  C_6
REMARK    4  A    between atoms: C_6  and  N_7
REMARK    5  A    between atoms: N_7  and  C_8
REMARK    6  A    between atoms: N_7  and  C_9
REMARK    7  A    between atoms: C_9  and  C_10
REMARK    8  A    between atoms: C_12  and  C_13
REMARK    9  A    between atoms: C_13  and  C_14
REMARK   10  A    between atoms: C_17  and  C_18
REMARK                            x       y       z     vdW  Elec       q    Type
REMARK                         _______ _______ _______ _____ _____    ______ ____
ROOT
ATOM      1  C   UNL     1       1.798   8.526  18.917  0.00  0.00    +0.000 A 
ATOM      2  N   UNL     1       2.059   7.298  18.523  0.00  0.00    +0.000 NA
ATOM      3  C   UNL     1       2.016   6.602  19.709  0.00  0.00    +0.000 A 
ATOM      4  N   UNL     1       1.671   7.339  20.777  0.00  0.00    +0.000 NA
ATOM      5  O   UNL     1       1.543   8.628  20.252  0.00  0.00    +0.000 OA
ENDROOT
BRANCH   3   6
ATOM      6  C   UNL     1       2.308   5.132  19.769  0.00  0.00    +0.000 C 
ATOM      7  C   UNL     1       2.424   4.601  21.216  0.00  0.00    +0.000 C 
ATOM      8  C   UNL     1       2.239   3.090  21.091  0.00  0.00    +0.000 C 
ATOM      9  C   UNL     1       1.342   2.889  19.873  0.00  0.00    +0.000 C 
ATOM     10  C   UNL     1       1.096   4.285  19.305  0.00  0.00    +0.000 C 
BRANCH   6  11
ATOM     11  C   UNL     1       3.563   4.958  18.892  0.00  0.00    +0.000 A 
ATOM     12  C   UNL     1       3.494   4.403  17.601  0.00  0.00    +0.000 A 
ATOM     13  C   UNL     1       4.634   4.273  16.797  0.00  0.00    +0.000 A 
ATOM     14  C   UNL     1       5.884   4.680  17.263  0.00  0.00    +0.000 A 
ATOM     15  C   UNL     1       7.111   4.555  16.409  0.00  0.00    +0.000 C 
ATOM     16  C   UNL     1       5.981   5.194  18.556  0.00  0.00    +0.000 A 
ATOM     17  C   UNL     1       4.842   5.319  19.360  0.00  0.00    +0.000 A 
ENDBRANCH   6  11
ENDBRANCH   3   6
BRANCH   1  18
ATOM     18  C   UNL     1       1.845   9.785  18.123  0.00  0.00    +0.000 C 
BRANCH  18  19
ATOM     19  N   UNL     1       0.744  10.727  18.444  0.00  0.00    +0.000 NA
ATOM     20  C   UNL     1       1.045  11.409  19.706  0.00  0.00    +0.000 C 
BRANCH  19  21
ATOM     21  C   UNL     1      -0.566  10.042  18.486  0.00  0.00    +0.000 C 
BRANCH  21  24
ATOM     22  N   UNL     1      -3.862  11.057  17.200  0.00  0.00    +0.000 N 
ATOM     23  C   UNL     1      -2.923  11.012  18.294  0.00  0.00    +0.000 C 
ATOM     24  C   UNL     1      -1.606  10.709  17.588  0.00  0.00    +0.000 C 
ATOM     25  C   UNL     1      -2.039   9.839  16.405  0.00  0.00    +0.000 C 
ATOM     26  C   UNL     1      -3.385  10.426  16.062  0.00  0.00    +0.000 C 
ATOM     27  O   UNL     1      -3.945  10.335  14.984  0.00  0.00    +0.000 OA
BRANCH  22  29
ATOM     28  C   UNL     1      -5.364  12.364  18.636  0.00  0.00    +0.000 C 
ATOM     29  C   UNL     1      -5.113  11.786  17.253  0.00  0.00    +0.000 C 
ENDBRANCH  22  29
ENDBRANCH  21  24
ENDBRANCH  19  21
ENDBRANCH  18  19
ENDBRANCH   1  18
TORSDOF 7
ENDMDL
