MODEL 1
REMARK VINA RESULT:      -7.8      0.000      0.000
REMARK  Name = 
REMARK  12 active torsions:
REMARK  status: ('A' for Active; 'I' for Inactive)
REMARK    1  A    between atoms: C_1  and  O_2
REMARK    2  A    between atoms: O_2  and  C_3
REMARK    3  A    between atoms: C_6  and  C_7
REMARK    4  A    between atoms: C_7  and  N_8
REMARK    5  A    between atoms: C_9  and  C_11
REMARK    6  A    between atoms: C_11  and  C_12
REMARK    7  A    between atoms: C_12  and  O_13
REMARK    8  A    between atoms: O_13  and  C_14
REMARK    9  A    between atoms: C_14  and  C_15
REMARK   10  A    between atoms: C_15  and  N_16
REMARK   11  A    between atoms: N_19  and  C_20
REMARK   12  A    between atoms: C_25  and  C_26
REMARK                            x       y       z     vdW  Elec       q    Type
REMARK                         _______ _______ _______ _____ _____    ______ ____
ROOT
ATOM      1  N   UNL     1       2.177   7.742  19.766  0.00  0.00    +0.000 NA
ATOM      2  C   UNL     1       2.322   8.665  18.620  0.00  0.00    +0.000 C 
ATOM      3  C   UNL     1       0.975   9.217  18.129  0.00  0.00    +0.000 C 
ATOM      4  N   UNL     1       0.409  10.077  19.176  0.00  0.00    +0.000 N 
ATOM      5  C   UNL     1       0.297   9.402  20.495  0.00  0.00    +0.000 C 
ATOM      6  C   UNL     1       1.490   8.466  20.855  0.00  0.00    +0.000 C 
ENDROOT
BRANCH   4   7
ATOM      7  C   UNL     1       0.504  11.470  19.033  0.00  0.00    +0.000 A 
ATOM      8  C   UNL     1       1.764  12.092  19.259  0.00  0.00    +0.000 A 
ATOM      9  C   UNL     1       2.004  13.455  19.082  0.00  0.00    +0.000 A 
ATOM     10  C   UNL     1       0.980  14.269  18.656  0.00  0.00    +0.000 A 
ATOM     11  C   UNL     1      -0.272  13.708  18.420  0.00  0.00    +0.000 A 
ATOM     12  C   UNL     1      -0.564  12.325  18.617  0.00  0.00    +0.000 A 
BRANCH  12  13
ATOM     13  C   UNL     1      -1.977  11.902  18.378  0.00  0.00    +0.000 A 
ATOM     14  C   UNL     1      -3.013  12.131  19.298  0.00  0.00    +0.000 A 
ATOM     15  C   UNL     1      -4.352  11.892  18.964  0.00  0.00    +0.000 A 
ATOM     16  C   UNL     1      -4.663  11.341  17.730  0.00  0.00    +0.000 A 
ATOM     17  F   UNL     1      -5.943  11.142  17.394  0.00  0.00    +0.000 F 
ATOM     18  C   UNL     1      -3.662  10.999  16.836  0.00  0.00    +0.000 A 
ATOM     19  C   UNL     1      -2.334  11.278  17.162  0.00  0.00    +0.000 A 
ENDBRANCH  12  13
ENDBRANCH   4   7
BRANCH   1  20
ATOM     20  C   UNL     1       1.594   6.428  19.411  0.00  0.00    +0.000 C 
BRANCH  20  21
ATOM     21  C   UNL     1       1.772   5.503  20.631  0.00  0.00    +0.000 C 
BRANCH  21  22
ATOM     22  O   UNL     1       2.854   4.571  20.642  0.00  0.00    +0.000 OA
BRANCH  22  23
ATOM     23  C   UNL     1       2.302   3.326  21.138  0.00  0.00    +0.000 C 
BRANCH  23  24
ATOM     24  C   UNL     1       1.713   2.451  20.057  0.00  0.00    +0.000 C 
BRANCH  24  26
ATOM     25  N   UNL     1       2.529   3.285  17.966  0.00  0.00    +0.000 N 
ATOM     26  C   UNL     1       2.683   2.313  18.921  0.00  0.00    +0.000 C 
ATOM     27  O   UNL     1       3.494   1.390  18.849  0.00  0.00    +0.000 OA
ATOM     28  H   UNL     1       1.917   4.064  18.164  0.00  0.00    +0.000 HD
BRANCH  25  29
ATOM     29  C   UNL     1       3.286   3.306  16.743  0.00  0.00    +0.000 C 
BRANCH  29  33
ATOM     30  C   UNL     1       6.593   6.093  16.753  0.00  0.00    +0.000 A 
ATOM     31  C   UNL     1       6.681   4.878  16.082  0.00  0.00    +0.000 A 
ATOM     32  C   UNL     1       5.605   3.988  16.089  0.00  0.00    +0.000 A 
ATOM     33  C   UNL     1       4.430   4.286  16.789  0.00  0.00    +0.000 A 
ATOM     34  C   UNL     1       4.343   5.524  17.452  0.00  0.00    +0.000 A 
ATOM     35  C   UNL     1       5.425   6.414  17.443  0.00  0.00    +0.000 A 
BRANCH  30  37
ATOM     36  C   UNL     1       7.725   8.002  17.563  0.00  0.00    +0.000 C 
ATOM     37  O   UNL     1       7.713   6.877  16.692  0.00  0.00    +0.000 OA
ENDBRANCH  30  37
ENDBRANCH  29  33
ENDBRANCH  25  29
ENDBRANCH  24  26
ENDBRANCH  23  24
ENDBRANCH  22  23
ENDBRANCH  21  22
ENDBRANCH  20  21
ENDBRANCH   1  20
TORSDOF 11
ENDMDL
MODEL 2
REMARK VINA RESULT:      -7.6      1.106      1.304
REMARK  Name = 
REMARK  12 active torsions:
REMARK  status: ('A' for Active; 'I' for Inactive)
REMARK    1  A    between atoms: C_1  and  O_2
REMARK    2  A    between atoms: O_2  and  C_3
REMARK    3  A    between atoms: C_6  and  C_7
REMARK    4  A    between atoms: C_7  and  N_8
REMARK    5  A    between atoms: C_9  and  C_11
REMARK    6  A    between atoms: C_11  and  C_12
REMARK    7  A    between atoms: C_12  and  O_13
REMARK    8  A    between atoms: O_13  and  C_14
REMARK    9  A    between atoms: C_14  and  C_15
REMARK   10  A    between atoms: C_15  and  N_16
REMARK   11  A    between atoms: N_19  and  C_20
REMARK   12  A    between atoms: C_25  and  C_26
REMARK                            x       y       z     vdW  Elec       q    Type
REMARK                         _______ _______ _______ _____ _____    ______ ____
ROOT
ATOM      1  N   UNL     1       2.400   7.666  19.258  0.00  0.00    +0.000 NA
ATOM      2  C   UNL     1       2.497   8.667  18.174  0.00  0.00    +0.000 C 
ATOM      3  C   UNL     1       1.127   9.231  17.764  0.00  0.00    +0.000 C 
ATOM      4  N   UNL     1       0.583  10.008  18.884  0.00  0.00    +0.000 N 
ATOM      5  C   UNL     1       0.522   9.242  20.157  0.00  0.00    +0.000 C 
ATOM      6  C   UNL     1       1.738   8.302  20.415  0.00  0.00    +0.000 C 
ENDROOT
BRANCH   4   7
ATOM      7  C   UNL     1       0.655  11.409  18.836  0.00  0.00    +0.000 A 
ATOM      8  C   UNL     1       1.910  12.034  19.076  0.00  0.00    +0.000 A 
ATOM      9  C   UNL     1       2.127  13.409  18.988  0.00  0.00    +0.000 A 
ATOM     10  C   UNL     1       1.082  14.234  18.642  0.00  0.00    +0.000 A 
ATOM     11  C   UNL     1      -0.167  13.671  18.397  0.00  0.00    +0.000 A 
ATOM     12  C   UNL     1      -0.435  12.273  18.504  0.00  0.00    +0.000 A 
BRANCH  12  13
ATOM     13  C   UNL     1      -1.847  11.845  18.268  0.00  0.00    +0.000 A 
ATOM     14  C   UNL     1      -2.870  12.018  19.215  0.00  0.00    +0.000 A 
ATOM     15  C   UNL     1      -4.212  11.780  18.891  0.00  0.00    +0.000 A 
ATOM     16  C   UNL     1      -4.537  11.284  17.638  0.00  0.00    +0.000 A 
ATOM     17  F   UNL     1      -5.821  11.086  17.314  0.00  0.00    +0.000 F 
ATOM     18  C   UNL     1      -3.548  10.995  16.713  0.00  0.00    +0.000 A 
ATOM     19  C   UNL     1      -2.218  11.275  17.030  0.00  0.00    +0.000 A 
ENDBRANCH  12  13
ENDBRANCH   4   7
BRANCH   1  20
ATOM     20  C   UNL     1       1.824   6.371  18.831  0.00  0.00    +0.000 C 
BRANCH  20  21
ATOM     21  C   UNL     1       1.430   5.601  20.106  0.00  0.00    +0.000 C 
BRANCH  21  22
ATOM     22  O   UNL     1       1.327   4.177  20.052  0.00  0.00    +0.000 OA
BRANCH  22  23
ATOM     23  C   UNL     1       1.355   3.829  18.646  0.00  0.00    +0.000 C 
BRANCH  23  24
ATOM     24  C   UNL     1       1.796   2.409  18.381  0.00  0.00    +0.000 C 
BRANCH  24  26
ATOM     25  N   UNL     1       3.864   3.452  18.986  0.00  0.00    +0.000 N 
ATOM     26  C   UNL     1       3.262   2.263  18.666  0.00  0.00    +0.000 C 
ATOM     27  O   UNL     1       3.853   1.188  18.571  0.00  0.00    +0.000 OA
ATOM     28  H   UNL     1       3.281   4.261  19.150  0.00  0.00    +0.000 HD
BRANCH  25  29
ATOM     29  C   UNL     1       5.279   3.576  19.212  0.00  0.00    +0.000 C 
BRANCH  29  33
ATOM     30  C   UNL     1       7.031   7.132  17.482  0.00  0.00    +0.000 A 
ATOM     31  C   UNL     1       7.766   6.308  18.328  0.00  0.00    +0.000 A 
ATOM     32  C   UNL     1       7.186   5.165  18.880  0.00  0.00    +0.000 A 
ATOM     33  C   UNL     1       5.852   4.837  18.616  0.00  0.00    +0.000 A 
ATOM     34  C   UNL     1       5.119   5.665  17.746  0.00  0.00    +0.000 A 
ATOM     35  C   UNL     1       5.704   6.813  17.195  0.00  0.00    +0.000 A 
BRANCH  30  37
ATOM     36  C   UNL     1       8.157   9.140  18.009  0.00  0.00    +0.000 C 
ATOM     37  O   UNL     1       7.696   8.233  17.014  0.00  0.00    +0.000 OA
ENDBRANCH  30  37
ENDBRANCH  29  33
ENDBRANCH  25  29
ENDBRANCH  24  26
ENDBRANCH  23  24
ENDBRANCH  22  23
ENDBRANCH  21  22
ENDBRANCH  20  21
ENDBRANCH   1  20
TORSDOF 11
ENDMDL
MODEL 3
REMARK VINA RESULT:      -7.5      0.878      1.142
REMARK  Name = 
REMARK  12 active torsions:
REMARK  status: ('A' for Active; 'I' for Inactive)
REMARK    1  A    between atoms: C_1  and  O_2
REMARK    2  A    between atoms: O_2  and  C_3
REMARK    3  A    between atoms: C_6  and  C_7
REMARK    4  A    between atoms: C_7  and  N_8
REMARK    5  A    between atoms: C_9  and  C_11
REMARK    6  A    between atoms: C_11  and  C_12
REMARK    7  A    between atoms: C_12  and  O_13
REMARK    8  A    between atoms: O_13  and  C_14
REMARK    9  A    between atoms: C_14  and  C_15
REMARK   10  A    between atoms: C_15  and  N_16
REMARK   11  A    between atoms: N_19  and  C_20
REMARK   12  A    between atoms: C_25  and  C_26
REMARK                            x       y       z     vdW  Elec       q    Type
REMARK                         _______ _______ _______ _____ _____    ______ ____
ROOT
ATOM      1  N   UNL     1       2.341   7.611  19.531  0.00  0.00    +0.000 NA
ATOM      2  C   UNL     1       2.436   8.551  18.394  0.00  0.00    +0.000 C 
ATOM      3  C   UNL     1       1.066   9.096  17.959  0.00  0.00    +0.000 C 
ATOM      4  N   UNL     1       0.529   9.934  19.038  0.00  0.00    +0.000 N 
ATOM      5  C   UNL     1       0.471   9.239  20.350  0.00  0.00    +0.000 C 
ATOM      6  C   UNL     1       1.686   8.311  20.654  0.00  0.00    +0.000 C 
ENDROOT
BRANCH   4   7
ATOM      7  C   UNL     1       0.604  11.330  18.913  0.00  0.00    +0.000 A 
ATOM      8  C   UNL     1       1.865  11.962  19.097  0.00  0.00    +0.000 A 
ATOM      9  C   UNL     1       2.085  13.330  18.932  0.00  0.00    +0.000 A 
ATOM     10  C   UNL     1       1.036  14.139  18.560  0.00  0.00    +0.000 A 
ATOM     11  C   UNL     1      -0.218  13.569  18.366  0.00  0.00    +0.000 A 
ATOM     12  C   UNL     1      -0.489  12.179  18.553  0.00  0.00    +0.000 A 
BRANCH  12  13
ATOM     13  C   UNL     1      -1.906  11.745  18.364  0.00  0.00    +0.000 A 
ATOM     14  C   UNL     1      -2.933  12.061  19.268  0.00  0.00    +0.000 A 
ATOM     15  C   UNL     1      -4.276  11.801  18.968  0.00  0.00    +0.000 A 
ATOM     16  C   UNL     1      -4.600  11.144  17.790  0.00  0.00    +0.000 A 
ATOM     17  F   UNL     1      -5.884  10.923  17.485  0.00  0.00    +0.000 F 
ATOM     18  C   UNL     1      -3.609  10.717  16.924  0.00  0.00    +0.000 A 
ATOM     19  C   UNL     1      -2.277  11.016  17.212  0.00  0.00    +0.000 A 
ENDBRANCH  12  13
ENDBRANCH   4   7
BRANCH   1  20
ATOM     20  C   UNL     1       1.760   6.296  19.178  0.00  0.00    +0.000 C 
BRANCH  20  21
ATOM     21  C   UNL     1       1.335   5.614  20.492  0.00  0.00    +0.000 C 
BRANCH  21  22
ATOM     22  O   UNL     1       0.879   4.260  20.455  0.00  0.00    +0.000 OA
BRANCH  22  23
ATOM     23  C   UNL     1       2.028   3.463  20.076  0.00  0.00    +0.000 C 
BRANCH  23  24
ATOM     24  C   UNL     1       1.781   2.573  18.882  0.00  0.00    +0.000 C 
BRANCH  24  26
ATOM     25  N   UNL     1       3.345   3.699  17.462  0.00  0.00    +0.000 N 
ATOM     26  C   UNL     1       3.015   2.497  18.032  0.00  0.00    +0.000 C 
ATOM     27  O   UNL     1       3.627   1.446  17.842  0.00  0.00    +0.000 OA
ATOM     28  H   UNL     1       2.853   4.529  17.764  0.00  0.00    +0.000 HD
BRANCH  25  29
ATOM     29  C   UNL     1       4.436   3.853  16.537  0.00  0.00    +0.000 C 
BRANCH  29  33
ATOM     30  C   UNL     1       7.391   6.632  18.037  0.00  0.00    +0.000 A 
ATOM     31  C   UNL     1       6.267   7.081  17.350  0.00  0.00    +0.000 A 
ATOM     32  C   UNL     1       5.323   6.171  16.871  0.00  0.00    +0.000 A 
ATOM     33  C   UNL     1       5.498   4.794  17.048  0.00  0.00    +0.000 A 
ATOM     34  C   UNL     1       6.628   4.349  17.756  0.00  0.00    +0.000 A 
ATOM     35  C   UNL     1       7.575   5.265  18.235  0.00  0.00    +0.000 A 
BRANCH  30  37
ATOM     36  C   UNL     1       8.083   8.881  17.826  0.00  0.00    +0.000 C 
ATOM     37  O   UNL     1       8.256   7.612  18.445  0.00  0.00    +0.000 OA
ENDBRANCH  30  37
ENDBRANCH  29  33
ENDBRANCH  25  29
ENDBRANCH  24  26
ENDBRANCH  23  24
ENDBRANCH  22  23
ENDBRANCH  21  22
ENDBRANCH  20  21
ENDBRANCH   1  20
TORSDOF 11
ENDMDL
MODEL 4
REMARK VINA RESULT:      -7.3      1.930      2.268
REMARK  Name = 
REMARK  12 active torsions:
REMARK  status: ('A' for Active; 'I' for Inactive)
REMARK    1  A    between atoms: C_1  and  O_2
REMARK    2  A    between atoms: O_2  and  C_3
REMARK    3  A    between atoms: C_6  and  C_7
REMARK    4  A    between atoms: C_7  and  N_8
REMARK    5  A    between atoms: C_9  and  C_11
REMARK    6  A    between atoms: C_11  and  C_12
REMARK    7  A    between atoms: C_12  and  O_13
REMARK    8  A    between atoms: O_13  and  C_14
REMARK    9  A    between atoms: C_14  and  C_15
REMARK   10  A    between atoms: C_15  and  N_16
REMARK   11  A    between atoms: N_19  and  C_20
REMARK   12  A    between atoms: C_25  and  C_26
REMARK                            x       y       z     vdW  Elec       q    Type
REMARK                         _______ _______ _______ _____ _____    ______ ____
ROOT
ATOM      1  N   UNL     1       1.276   9.182  21.310  0.00  0.00    +0.000 NA
ATOM      2  C   UNL     1       1.047  10.243  20.305  0.00  0.00    +0.000 C 
ATOM      3  C   UNL     1      -0.445  10.522  20.066  0.00  0.00    +0.000 C 
ATOM      4  N   UNL     1      -1.018  11.095  21.289  0.00  0.00    +0.000 N 
ATOM      5  C   UNL     1      -0.786  10.261  22.497  0.00  0.00    +0.000 C 
ATOM      6  C   UNL     1       0.620   9.591  22.568  0.00  0.00    +0.000 C 
ENDROOT
BRANCH   4   7
ATOM      7  C   UNL     1      -1.246  12.480  21.347  0.00  0.00    +0.000 A 
ATOM      8  C   UNL     1      -0.257  13.307  21.949  0.00  0.00    +0.000 A 
ATOM      9  C   UNL     1      -0.332  14.698  22.006  0.00  0.00    +0.000 A 
ATOM     10  C   UNL     1      -1.414  15.337  21.446  0.00  0.00    +0.000 A 
ATOM     11  C   UNL     1      -2.409  14.573  20.844  0.00  0.00    +0.000 A 
ATOM     12  C   UNL     1      -2.382  13.146  20.791  0.00  0.00    +0.000 A 
BRANCH  12  13
ATOM     13  C   UNL     1      -3.564  12.481  20.163  0.00  0.00    +0.000 A 
ATOM     14  C   UNL     1      -4.830  12.435  20.768  0.00  0.00    +0.000 A 
ATOM     15  C   UNL     1      -5.954  11.971  20.073  0.00  0.00    +0.000 A 
ATOM     16  C   UNL     1      -5.806  11.468  18.789  0.00  0.00    +0.000 A 
ATOM     17  F   UNL     1      -6.883  11.054  18.110  0.00  0.00    +0.000 F 
ATOM     18  C   UNL     1      -4.557  11.393  18.198  0.00  0.00    +0.000 A 
ATOM     19  C   UNL     1      -3.449  11.896  18.882  0.00  0.00    +0.000 A 
ENDBRANCH  12  13
ENDBRANCH   4   7
BRANCH   1  20
ATOM     20  C   UNL     1       0.941   7.820  20.834  0.00  0.00    +0.000 C 
BRANCH  20  21
ATOM     21  C   UNL     1       2.188   7.264  20.120  0.00  0.00    +0.000 C 
BRANCH  21  22
ATOM     22  O   UNL     1       2.176   5.913  19.656  0.00  0.00    +0.000 OA
BRANCH  22  23
ATOM     23  C   UNL     1       1.420   5.161  20.638  0.00  0.00    +0.000 C 
BRANCH  23  24
ATOM     24  C   UNL     1       0.895   3.844  20.120  0.00  0.00    +0.000 C 
BRANCH  24  26
ATOM     25  N   UNL     1       3.003   3.235  19.163  0.00  0.00    +0.000 N 
ATOM     26  C   UNL     1       1.669   3.422  18.907  0.00  0.00    +0.000 C 
ATOM     27  O   UNL     1       1.152   3.305  17.796  0.00  0.00    +0.000 OA
ATOM     28  H   UNL     1       3.317   3.243  20.124  0.00  0.00    +0.000 HD
BRANCH  25  29
ATOM     29  C   UNL     1       3.959   2.915  18.137  0.00  0.00    +0.000 C 
BRANCH  29  33
ATOM     30  C   UNL     1       6.468   6.295  17.146  0.00  0.00    +0.000 A 
ATOM     31  C   UNL     1       5.541   5.798  16.236  0.00  0.00    +0.000 A 
ATOM     32  C   UNL     1       4.740   4.706  16.570  0.00  0.00    +0.000 A 
ATOM     33  C   UNL     1       4.868   4.073  17.812  0.00  0.00    +0.000 A 
ATOM     34  C   UNL     1       5.795   4.592  18.733  0.00  0.00    +0.000 A 
ATOM     35  C   UNL     1       6.599   5.688  18.394  0.00  0.00    +0.000 A 
BRANCH  30  37
ATOM     36  C   UNL     1       7.824   8.143  17.719  0.00  0.00    +0.000 C 
ATOM     37  O   UNL     1       7.210   7.357  16.704  0.00  0.00    +0.000 OA
ENDBRANCH  30  37
ENDBRANCH  29  33
ENDBRANCH  25  29
ENDBRANCH  24  26
ENDBRANCH  23  24
ENDBRANCH  22  23
ENDBRANCH  21  22
ENDBRANCH  20  21
ENDBRANCH   1  20
TORSDOF 11
ENDMDL
MODEL 5
REMARK VINA RESULT:      -7.1      1.641      2.116
REMARK  Name = 
REMARK  12 active torsions:
REMARK  status: ('A' for Active; 'I' for Inactive)
REMARK    1  A    between atoms: C_1  and  O_2
REMARK    2  A    between atoms: O_2  and  C_3
REMARK    3  A    between atoms: C_6  and  C_7
REMARK    4  A    between atoms: C_7  and  N_8
REMARK    5  A    between atoms: C_9  and  C_11
REMARK    6  A    between atoms: C_11  and  C_12
REMARK    7  A    between atoms: C_12  and  O_13
REMARK    8  A    between atoms: O_13  and  C_14
REMARK    9  A    between atoms: C_14  and  C_15
REMARK   10  A    between atoms: C_15  and  N_16
REMARK   11  A    between atoms: N_19  and  C_20
REMARK   12  A    between atoms: C_25  and  C_26
REMARK                            x       y       z     vdW  Elec       q    Type
REMARK                         _______ _______ _______ _____ _____    ______ ____
ROOT
ATOM      1  N   UNL     1       1.858   8.662  20.385  0.00  0.00    +0.000 NA
ATOM      2  C   UNL     1       1.475   9.850  19.593  0.00  0.00    +0.000 C 
ATOM      3  C   UNL     1      -0.045   9.968  19.399  0.00  0.00    +0.000 C 
ATOM      4  N   UNL     1      -0.667  10.226  20.704  0.00  0.00    +0.000 N 
ATOM      5  C   UNL     1      -0.305   9.221  21.738  0.00  0.00    +0.000 C 
ATOM      6  C   UNL     1       1.177   8.742  21.694  0.00  0.00    +0.000 C 
ENDROOT
BRANCH   4   7
ATOM      7  C   UNL     1      -1.073  11.533  21.015  0.00  0.00    +0.000 A 
ATOM      8  C   UNL     1      -0.614  12.116  22.230  0.00  0.00    +0.000 A 
ATOM      9  C   UNL     1      -0.889  13.428  22.618  0.00  0.00    +0.000 A 
ATOM     10  C   UNL     1      -1.639  14.231  21.792  0.00  0.00    +0.000 A 
ATOM     11  C   UNL     1      -2.111  13.708  20.591  0.00  0.00    +0.000 A 
ATOM     12  C   UNL     1      -1.876  12.364  20.172  0.00  0.00    +0.000 A 
BRANCH  12  13
ATOM     13  C   UNL     1      -2.509  11.947  18.885  0.00  0.00    +0.000 A 
ATOM     14  C   UNL     1      -1.789  11.793  17.689  0.00  0.00    +0.000 A 
ATOM     15  C   UNL     1      -2.376  11.223  16.552  0.00  0.00    +0.000 A 
ATOM     16  C   UNL     1      -3.718  10.876  16.574  0.00  0.00    +0.000 A 
ATOM     17  F   UNL     1      -4.273  10.301  15.500  0.00  0.00    +0.000 F 
ATOM     18  C   UNL     1      -4.491  11.113  17.697  0.00  0.00    +0.000 A 
ATOM     19  C   UNL     1      -3.889  11.643  18.839  0.00  0.00    +0.000 A 
ENDBRANCH  12  13
ENDBRANCH   4   7
BRANCH   1  20
ATOM     20  C   UNL     1       1.696   7.379  19.664  0.00  0.00    +0.000 C 
BRANCH  20  21
ATOM     21  C   UNL     1       1.881   6.247  20.693  0.00  0.00    +0.000 C 
BRANCH  21  22
ATOM     22  O   UNL     1       1.042   5.093  20.612  0.00  0.00    +0.000 OA
BRANCH  22  23
ATOM     23  C   UNL     1       1.825   3.995  21.141  0.00  0.00    +0.000 C 
BRANCH  23  24
ATOM     24  C   UNL     1       1.409   2.643  20.610  0.00  0.00    +0.000 C 
BRANCH  24  26
ATOM     25  N   UNL     1       2.889   2.750  18.732  0.00  0.00    +0.000 N 
ATOM     26  C   UNL     1       1.583   2.599  19.121  0.00  0.00    +0.000 C 
ATOM     27  O   UNL     1       0.635   2.485  18.345  0.00  0.00    +0.000 OA
ATOM     28  H   UNL     1       3.611   2.724  19.438  0.00  0.00    +0.000 HD
BRANCH  25  29
ATOM     29  C   UNL     1       3.289   2.829  17.352  0.00  0.00    +0.000 C 
BRANCH  29  33
ATOM     30  C   UNL     1       5.900   6.215  16.697  0.00  0.00    +0.000 A 
ATOM     31  C   UNL     1       4.725   6.346  17.431  0.00  0.00    +0.000 A 
ATOM     32  C   UNL     1       3.892   5.244  17.632  0.00  0.00    +0.000 A 
ATOM     33  C   UNL     1       4.206   3.996  17.082  0.00  0.00    +0.000 A 
ATOM     34  C   UNL     1       5.403   3.867  16.355  0.00  0.00    +0.000 A 
ATOM     35  C   UNL     1       6.236   4.975  16.154  0.00  0.00    +0.000 A 
BRANCH  30  37
ATOM     36  C   UNL     1       7.623   7.592  17.541  0.00  0.00    +0.000 C 
ATOM     37  O   UNL     1       6.628   7.364  16.549  0.00  0.00    +0.000 OA
ENDBRANCH  30  37
ENDBRANCH  29  33
ENDBRANCH  25  29
ENDBRANCH  24  26
ENDBRANCH  23  24
ENDBRANCH  22  23
ENDBRANCH  21  22
ENDBRANCH  20  21
ENDBRANCH   1  20
TORSDOF 11
ENDMDL
MODEL 6
REMARK VINA RESULT:      -7.1      4.597      9.488
REMARK  Name = 
REMARK  12 active torsions:
REMARK  status: ('A' for Active; 'I' for Inactive)
REMARK    1  A    between atoms: C_1  and  O_2
REMARK    2  A    between atoms: O_2  and  C_3
REMARK    3  A    between atoms: C_6  and  C_7
REMARK    4  A    between atoms: C_7  and  N_8
REMARK    5  A    between atoms: C_9  and  C_11
REMARK    6  A    between atoms: C_11  and  C_12
REMARK    7  A    between atoms: C_12  and  O_13
REMARK    8  A    between atoms: O_13  and  C_14
REMARK    9  A    between atoms: C_14  and  C_15
REMARK   10  A    between atoms: C_15  and  N_16
REMARK   11  A    between atoms: N_19  and  C_20
REMARK   12  A    between atoms: C_25  and  C_26
REMARK                            x       y       z     vdW  Elec       q    Type
REMARK                         _______ _______ _______ _____ _____    ______ ____
ROOT
ATOM      1  N   UNL     1       0.764   9.555  19.047  0.00  0.00    +0.000 NA
ATOM      2  C   UNL     1       1.236   8.940  17.788  0.00  0.00    +0.000 C 
ATOM      3  C   UNL     1       2.671   8.400  17.893  0.00  0.00    +0.000 C 
ATOM      4  N   UNL     1       2.682   7.274  18.836  0.00  0.00    +0.000 N 
ATOM      5  C   UNL     1       2.106   7.613  20.164  0.00  0.00    +0.000 C 
ATOM      6  C   UNL     1       0.855   8.541  20.117  0.00  0.00    +0.000 C 
ENDROOT
BRANCH   4   7
ATOM      7  C   UNL     1       2.722   5.966  18.330  0.00  0.00    +0.000 A 
ATOM      8  C   UNL     1       1.496   5.260  18.172  0.00  0.00    +0.000 A 
ATOM      9  C   UNL     1       1.396   3.984  17.616  0.00  0.00    +0.000 A 
ATOM     10  C   UNL     1       2.535   3.351  17.177  0.00  0.00    +0.000 A 
ATOM     11  C   UNL     1       3.760   4.000  17.307  0.00  0.00    +0.000 A 
ATOM     12  C   UNL     1       3.906   5.292  17.897  0.00  0.00    +0.000 A 
BRANCH  12  13
ATOM     13  C   UNL     1       5.301   5.815  18.016  0.00  0.00    +0.000 A 
ATOM     14  C   UNL     1       5.827   6.801  17.167  0.00  0.00    +0.000 A 
ATOM     15  C   UNL     1       7.067   7.400  17.423  0.00  0.00    +0.000 A 
ATOM     16  C   UNL     1       7.834   6.957  18.490  0.00  0.00    +0.000 A 
ATOM     17  F   UNL     1       9.005   7.549  18.757  0.00  0.00    +0.000 F 
ATOM     18  C   UNL     1       7.402   5.911  19.286  0.00  0.00    +0.000 A 
ATOM     19  C   UNL     1       6.147   5.348  19.048  0.00  0.00    +0.000 A 
ENDBRANCH  12  13
ENDBRANCH   4   7
BRANCH   1  20
ATOM     20  C   UNL     1       1.396  10.859  19.354  0.00  0.00    +0.000 C 
BRANCH  20  21
ATOM     21  C   UNL     1       0.532  11.953  18.698  0.00  0.00    +0.000 C 
BRANCH  21  22
ATOM     22  O   UNL     1       0.801  13.323  19.000  0.00  0.00    +0.000 OA
BRANCH  22  23
ATOM     23  C   UNL     1       2.110  13.604  18.444  0.00  0.00    +0.000 C 
BRANCH  23  24
ATOM     24  C   UNL     1       2.431  15.077  18.364  0.00  0.00    +0.000 C 
BRANCH  24  26
ATOM     25  N   UNL     1       4.706  15.823  18.388  0.00  0.00    +0.000 N 
ATOM     26  C   UNL     1       3.664  15.380  19.162  0.00  0.00    +0.000 C 
ATOM     27  O   UNL     1       3.729  15.199  20.377  0.00  0.00    +0.000 OA
ATOM     28  H   UNL     1       4.527  16.048  17.419  0.00  0.00    +0.000 HD
BRANCH  25  29
ATOM     29  C   UNL     1       6.015  16.091  18.919  0.00  0.00    +0.000 C 
BRANCH  29  33
ATOM     30  C   UNL     1       8.762  12.835  18.174  0.00  0.00    +0.000 A 
ATOM     31  C   UNL     1       7.711  13.100  17.303  0.00  0.00    +0.000 A 
ATOM     32  C   UNL     1       6.832  14.154  17.558  0.00  0.00    +0.000 A 
ATOM     33  C   UNL     1       6.973  14.947  18.702  0.00  0.00    +0.000 A 
ATOM     34  C   UNL     1       8.047  14.683  19.570  0.00  0.00    +0.000 A 
ATOM     35  C   UNL     1       8.928  13.624  19.312  0.00  0.00    +0.000 A 
BRANCH  30  37
ATOM     36  C   UNL     1       9.798  10.830  18.874  0.00  0.00    +0.000 C 
ATOM     37  O   UNL     1       9.549  11.768  17.833  0.00  0.00    +0.000 OA
ENDBRANCH  30  37
ENDBRANCH  29  33
ENDBRANCH  25  29
ENDBRANCH  24  26
ENDBRANCH  23  24
ENDBRANCH  22  23
ENDBRANCH  21  22
ENDBRANCH  20  21
ENDBRANCH   1  20
TORSDOF 11
ENDMDL
MODEL 7
REMARK VINA RESULT:      -7.0      1.134      1.549
REMARK  Name = 
REMARK  12 active torsions:
REMARK  status: ('A' for Active; 'I' for Inactive)
REMARK    1  A    between atoms: C_1  and  O_2
REMARK    2  A    between atoms: O_2  and  C_3
REMARK    3  A    between atoms: C_6  and  C_7
REMARK    4  A    between atoms: C_7  and  N_8
REMARK    5  A    between atoms: C_9  and  C_11
REMARK    6  A    between atoms: C_11  and  C_12
REMARK    7  A    between atoms: C_12  and  O_13
REMARK    8  A    between atoms: O_13  and  C_14
REMARK    9  A    between atoms: C_14  and  C_15
REMARK   10  A    between atoms: C_15  and  N_16
REMARK   11  A    between atoms: N_19  and  C_20
REMARK   12  A    between atoms: C_25  and  C_26
REMARK                            x       y       z     vdW  Elec       q    Type
REMARK                         _______ _______ _______ _____ _____    ______ ____
ROOT
ATOM      1  N   UNL     1       1.669   8.144  20.966  0.00  0.00    +0.000 NA
ATOM      2  C   UNL     1       1.536   8.794  19.645  0.00  0.00    +0.000 C 
ATOM      3  C   UNL     1       0.198   9.532  19.478  0.00  0.00    +0.000 C 
ATOM      4  N   UNL     1       0.168  10.666  20.410  0.00  0.00    +0.000 N 
ATOM      5  C   UNL     1       0.428  10.278  21.820  0.00  0.00    +0.000 C 
ATOM      6  C   UNL     1       1.521   9.182  22.006  0.00  0.00    +0.000 C 
ENDROOT
BRANCH   4   7
ATOM      7  C   UNL     1       0.409  11.957  19.914  0.00  0.00    +0.000 A 
ATOM      8  C   UNL     1       1.646  12.586  20.229  0.00  0.00    +0.000 A 
ATOM      9  C   UNL     1       2.034  13.834  19.742  0.00  0.00    +0.000 A 
ATOM     10  C   UNL     1       1.192  14.516  18.895  0.00  0.00    +0.000 A 
ATOM     11  C   UNL     1      -0.030  13.943  18.554  0.00  0.00    +0.000 A 
ATOM     12  C   UNL     1      -0.475  12.682  19.055  0.00  0.00    +0.000 A 
BRANCH  12  13
ATOM     13  C   UNL     1      -1.841  12.245  18.638  0.00  0.00    +0.000 A 
ATOM     14  C   UNL     1      -2.089  11.512  17.467  0.00  0.00    +0.000 A 
ATOM     15  C   UNL     1      -3.348  10.959  17.204  0.00  0.00    +0.000 A 
ATOM     16  C   UNL     1      -4.400  11.205  18.074  0.00  0.00    +0.000 A 
ATOM     17  F   UNL     1      -5.596  10.651  17.843  0.00  0.00    +0.000 F 
ATOM     18  C   UNL     1      -4.225  12.014  19.183  0.00  0.00    +0.000 A 
ATOM     19  C   UNL     1      -2.957  12.527  19.459  0.00  0.00    +0.000 A 
ENDBRANCH  12  13
ENDBRANCH   4   7
BRANCH   1  20
ATOM     20  C   UNL     1       0.813   6.948  21.138  0.00  0.00    +0.000 C 
BRANCH  20  21
ATOM     21  C   UNL     1       1.716   5.710  20.974  0.00  0.00    +0.000 C 
BRANCH  21  22
ATOM     22  O   UNL     1       1.704   5.002  19.733  0.00  0.00    +0.000 OA
BRANCH  22  23
ATOM     23  C   UNL     1       1.469   3.613  20.070  0.00  0.00    +0.000 C 
BRANCH  23  24
ATOM     24  C   UNL     1       2.614   2.966  20.812  0.00  0.00    +0.000 C 
BRANCH  24  26
ATOM     25  N   UNL     1       3.603   3.393  18.674  0.00  0.00    +0.000 N 
ATOM     26  C   UNL     1       3.797   2.815  19.902  0.00  0.00    +0.000 C 
ATOM     27  O   UNL     1       4.808   2.193  20.226  0.00  0.00    +0.000 OA
ATOM     28  H   UNL     1       2.791   3.977  18.537  0.00  0.00    +0.000 HD
BRANCH  25  29
ATOM     29  C   UNL     1       4.562   3.299  17.606  0.00  0.00    +0.000 C 
BRANCH  29  33
ATOM     30  C   UNL     1       6.806   6.973  17.187  0.00  0.00    +0.000 A 
ATOM     31  C   UNL     1       5.526   6.849  16.655  0.00  0.00    +0.000 A 
ATOM     32  C   UNL     1       4.816   5.656  16.797  0.00  0.00    +0.000 A 
ATOM     33  C   UNL     1       5.381   4.556  17.453  0.00  0.00    +0.000 A 
ATOM     34  C   UNL     1       6.668   4.695  18.003  0.00  0.00    +0.000 A 
ATOM     35  C   UNL     1       7.379   5.894  17.857  0.00  0.00    +0.000 A 
BRANCH  30  37
ATOM     36  C   UNL     1       8.262   8.636  18.020  0.00  0.00    +0.000 C 
ATOM     37  O   UNL     1       7.414   8.181  16.972  0.00  0.00    +0.000 OA
ENDBRANCH  30  37
ENDBRANCH  29  33
ENDBRANCH  25  29
ENDBRANCH  24  26
ENDBRANCH  23  24
ENDBRANCH  22  23
ENDBRANCH  21  22
ENDBRANCH  20  21
ENDBRANCH   1  20
TORSDOF 11
ENDMDL
MODEL 8
REMARK VINA RESULT:      -6.9      4.243      9.141
REMARK  Name = 
REMARK  12 active torsions:
REMARK  status: ('A' for Active; 'I' for Inactive)
REMARK    1  A    between atoms: C_1  and  O_2
REMARK    2  A    between atoms: O_2  and  C_3
REMARK    3  A    between atoms: C_6  and  C_7
REMARK    4  A    between atoms: C_7  and  N_8
REMARK    5  A    between atoms: C_9  and  C_11
REMARK    6  A    between atoms: C_11  and  C_12
REMARK    7  A    between atoms: C_12  and  O_13
REMARK    8  A    between atoms: O_13  and  C_14
REMARK    9  A    between atoms: C_14  and  C_15
REMARK   10  A    between atoms: C_15  and  N_16
REMARK   11  A    between atoms: N_19  and  C_20
REMARK   12  A    between atoms: C_25  and  C_26
REMARK                            x       y       z     vdW  Elec       q    Type
REMARK                         _______ _______ _______ _____ _____    ______ ____
ROOT
ATOM      1  N   UNL     1       5.950   6.712  17.572  0.00  0.00    +0.000 NA
ATOM      2  C   UNL     1       4.999   6.000  16.693  0.00  0.00    +0.000 C 
ATOM      3  C   UNL     1       5.095   4.472  16.829  0.00  0.00    +0.000 C 
ATOM      4  N   UNL     1       4.651   4.091  18.176  0.00  0.00    +0.000 N 
ATOM      5  C   UNL     1       5.377   4.804  19.259  0.00  0.00    +0.000 C 
ATOM      6  C   UNL     1       5.684   6.303  18.966  0.00  0.00    +0.000 C 
ENDROOT
BRANCH   4   7
ATOM      7  C   UNL     1       3.362   3.559  18.339  0.00  0.00    +0.000 A 
ATOM      8  C   UNL     1       3.175   2.161  18.148  0.00  0.00    +0.000 A 
ATOM      9  C   UNL     1       1.963   1.501  18.347  0.00  0.00    +0.000 A 
ATOM     10  C   UNL     1       0.866   2.220  18.763  0.00  0.00    +0.000 A 
ATOM     11  C   UNL     1       0.997   3.591  18.966  0.00  0.00    +0.000 A 
ATOM     12  C   UNL     1       2.213   4.306  18.745  0.00  0.00    +0.000 A 
BRANCH  12  13
ATOM     13  C   UNL     1       2.162   5.786  18.949  0.00  0.00    +0.000 A 
ATOM     14  C   UNL     1       2.223   6.709  17.894  0.00  0.00    +0.000 A 
ATOM     15  C   UNL     1       1.984   8.073  18.103  0.00  0.00    +0.000 A 
ATOM     16  C   UNL     1       1.763   8.541  19.389  0.00  0.00    +0.000 A 
ATOM     17  F   UNL     1       1.503   9.839  19.589  0.00  0.00    +0.000 F 
ATOM     18  C   UNL     1       1.805   7.680  20.472  0.00  0.00    +0.000 A 
ATOM     19  C   UNL     1       2.002   6.316  20.249  0.00  0.00    +0.000 A 
ENDBRANCH  12  13
ENDBRANCH   4   7
BRANCH   1  20
ATOM     20  C   UNL     1       7.363   6.610  17.139  0.00  0.00    +0.000 C 
BRANCH  20  21
ATOM     21  C   UNL     1       8.138   7.749  17.829  0.00  0.00    +0.000 C 
BRANCH  21  22
ATOM     22  O   UNL     1       7.623   9.080  17.758  0.00  0.00    +0.000 OA
BRANCH  22  23
ATOM     23  C   UNL     1       8.766   9.957  17.917  0.00  0.00    +0.000 C 
BRANCH  23  24
ATOM     24  C   UNL     1       9.333   9.965  19.317  0.00  0.00    +0.000 C 
BRANCH  24  26
ATOM     25  N   UNL     1       9.504  11.408  21.219  0.00  0.00    +0.000 N 
ATOM     26  C   UNL     1       9.353  11.364  19.857  0.00  0.00    +0.000 C 
ATOM     27  O   UNL     1       9.203  12.354  19.142  0.00  0.00    +0.000 OA
ATOM     28  H   UNL     1       9.734  10.555  21.708  0.00  0.00    +0.000 HD
BRANCH  25  29
ATOM     29  C   UNL     1       9.464  12.634  21.970  0.00  0.00    +0.000 C 
BRANCH  29  33
ATOM     30  C   UNL     1       5.436  14.008  22.737  0.00  0.00    +0.000 A 
ATOM     31  C   UNL     1       5.885  12.789  23.234  0.00  0.00    +0.000 A 
ATOM     32  C   UNL     1       7.187  12.359  22.976  0.00  0.00    +0.000 A 
ATOM     33  C   UNL     1       8.058  13.128  22.196  0.00  0.00    +0.000 A 
ATOM     34  C   UNL     1       7.602  14.367  21.711  0.00  0.00    +0.000 A 
ATOM     35  C   UNL     1       6.294  14.796  21.971  0.00  0.00    +0.000 A 
BRANCH  30  37
ATOM     36  C   UNL     1       3.655  15.540  22.488  0.00  0.00    +0.000 C 
ATOM     37  O   UNL     1       4.137  14.320  23.038  0.00  0.00    +0.000 OA
ENDBRANCH  30  37
ENDBRANCH  29  33
ENDBRANCH  25  29
ENDBRANCH  24  26
ENDBRANCH  23  24
ENDBRANCH  22  23
ENDBRANCH  21  22
ENDBRANCH  20  21
ENDBRANCH   1  20
TORSDOF 11
ENDMDL
MODEL 9
REMARK VINA RESULT:      -6.9      3.463      9.258
REMARK  Name = 
REMARK  12 active torsions:
REMARK  status: ('A' for Active; 'I' for Inactive)
REMARK    1  A    between atoms: C_1  and  O_2
REMARK    2  A    between atoms: O_2  and  C_3
REMARK    3  A    between atoms: C_6  and  C_7
REMARK    4  A    between atoms: C_7  and  N_8
REMARK    5  A    between atoms: C_9  and  C_11
REMARK    6  A    between atoms: C_11  and  C_12
REMARK    7  A    between atoms: C_12  and  O_13
REMARK    8  A    between atoms: O_13  and  C_14
REMARK    9  A    between atoms: C_14  and  C_15
REMARK   10  A    between atoms: C_15  and  N_16
REMARK   11  A    between atoms: N_19  and  C_20
REMARK   12  A    between atoms: C_25  and  C_26
REMARK                            x       y       z     vdW  Elec       q    Type
REMARK                         _______ _______ _______ _____ _____    ______ ____
ROOT
ATOM      1  N   UNL     1       2.134   6.929  19.529  0.00  0.00    +0.000 NA
ATOM      2  C   UNL     1       2.254   7.058  18.061  0.00  0.00    +0.000 C 
ATOM      3  C   UNL     1       3.667   7.462  17.615  0.00  0.00    +0.000 C 
ATOM      4  N   UNL     1       4.591   6.365  17.927  0.00  0.00    +0.000 N 
ATOM      5  C   UNL     1       4.547   5.945  19.352  0.00  0.00    +0.000 C 
ATOM      6  C   UNL     1       3.123   5.931  19.986  0.00  0.00    +0.000 C 
ENDROOT
BRANCH   4   7
ATOM      7  C   UNL     1       5.010   5.516  16.890  0.00  0.00    +0.000 A 
ATOM      8  C   UNL     1       5.980   5.998  15.967  0.00  0.00    +0.000 A 
ATOM      9  C   UNL     1       6.527   5.230  14.938  0.00  0.00    +0.000 A 
ATOM     10  C   UNL     1       6.130   3.922  14.791  0.00  0.00    +0.000 A 
ATOM     11  C   UNL     1       5.185   3.402  15.671  0.00  0.00    +0.000 A 
ATOM     12  C   UNL     1       4.580   4.163  16.716  0.00  0.00    +0.000 A 
BRANCH  12  13
ATOM     13  C   UNL     1       3.536   3.468  17.529  0.00  0.00    +0.000 A 
ATOM     14  C   UNL     1       3.840   2.532  18.530  0.00  0.00    +0.000 A 
ATOM     15  C   UNL     1       2.853   2.042  19.395  0.00  0.00    +0.000 A 
ATOM     16  C   UNL     1       1.532   2.423  19.212  0.00  0.00    +0.000 A 
ATOM     17  F   UNL     1       0.591   1.983  20.057  0.00  0.00    +0.000 F 
ATOM     18  C   UNL     1       1.174   3.258  18.168  0.00  0.00    +0.000 A 
ATOM     19  C   UNL     1       2.170   3.773  17.337  0.00  0.00    +0.000 A 
ENDBRANCH  12  13
ENDBRANCH   4   7
BRANCH   1  20
ATOM     20  C   UNL     1       2.158   8.222  20.251  0.00  0.00    +0.000 C 
BRANCH  20  21
ATOM     21  C   UNL     1       0.733   8.479  20.779  0.00  0.00    +0.000 C 
BRANCH  21  22
ATOM     22  O   UNL     1       0.558   8.858  22.146  0.00  0.00    +0.000 OA
BRANCH  22  23
ATOM     23  C   UNL     1      -0.228  10.074  22.123  0.00  0.00    +0.000 C 
BRANCH  23  24
ATOM     24  C   UNL     1       0.509  11.262  21.553  0.00  0.00    +0.000 C 
BRANCH  24  26
ATOM     25  N   UNL     1      -1.684  11.568  20.642  0.00  0.00    +0.000 N 
ATOM     26  C   UNL     1      -0.427  12.107  20.740  0.00  0.00    +0.000 C 
ATOM     27  O   UNL     1      -0.073  13.148  20.188  0.00  0.00    +0.000 OA
ATOM     28  H   UNL     1      -1.915  10.771  21.219  0.00  0.00    +0.000 HD
BRANCH  25  29
ATOM     29  C   UNL     1      -2.726  12.153  19.841  0.00  0.00    +0.000 C 
BRANCH  29  33
ATOM     30  C   UNL     1      -2.979  10.236  15.972  0.00  0.00    +0.000 A 
ATOM     31  C   UNL     1      -1.927   9.963  16.841  0.00  0.00    +0.000 A 
ATOM     32  C   UNL     1      -1.858  10.591  18.085  0.00  0.00    +0.000 A 
ATOM     33  C   UNL     1      -2.827  11.523  18.475  0.00  0.00    +0.000 A 
ATOM     34  C   UNL     1      -3.896  11.781  17.598  0.00  0.00    +0.000 A 
ATOM     35  C   UNL     1      -3.962  11.150  16.349  0.00  0.00    +0.000 A 
BRANCH  30  37
ATOM     36  C   UNL     1      -3.911   9.970  13.818  0.00  0.00    +0.000 C 
ATOM     37  O   UNL     1      -2.933   9.576  14.774  0.00  0.00    +0.000 OA
ENDBRANCH  30  37
ENDBRANCH  29  33
ENDBRANCH  25  29
ENDBRANCH  24  26
ENDBRANCH  23  24
ENDBRANCH  22  23
ENDBRANCH  21  22
ENDBRANCH  20  21
ENDBRANCH   1  20
TORSDOF 11
ENDMDL
