MODEL 1
REMARK VINA RESULT:      -7.2      0.000      0.000
REMARK  Name = 
REMARK  6 active torsions:
REMARK  status: ('A' for Active; 'I' for Inactive)
REMARK    1  A    between atoms: C_2  and  O_3
REMARK    2  A    between atoms: C_2  and  C_4
REMARK    3  A    between atoms: C_4  and  C_5
REMARK    4  A    between atoms: C_5  and  C_6
REMARK    5  A    between atoms: N_8  and  C_9
REMARK    6  A    between atoms: N_16  and  O_17
REMARK                            x       y       z     vdW  Elec       q    Type
REMARK                         _______ _______ _______ _____ _____    ______ ____
ROOT
ATOM      1  C   UNL     1       5.703   5.131  18.214  0.00  0.00    +0.000 A 
ATOM      2  C   UNL     1       5.576   4.349  17.061  0.00  0.00    +0.000 A 
ATOM      3  C   UNL     1       4.474   3.507  16.884  0.00  0.00    +0.000 A 
ATOM      4  C   UNL     1       3.489   3.450  17.864  0.00  0.00    +0.000 A 
ATOM      5  N   UNL     1       2.354   2.662  17.652  0.00  0.00    +0.000 N 
ATOM      6  C   UNL     1       1.311   2.614  18.532  0.00  0.00    +0.000 A 
ATOM      7  O   UNL     1       0.293   1.967  18.284  0.00  0.00    +0.000 OA
ATOM      8  N   UNL     1       1.464   3.347  19.694  0.00  0.00    +0.000 N 
ATOM      9  C   UNL     1       2.533   4.154  20.039  0.00  0.00    +0.000 A 
ATOM     10  O   UNL     1       2.633   4.817  21.067  0.00  0.00    +0.000 OA
ATOM     11  C   UNL     1       3.620   4.201  19.032  0.00  0.00    +0.000 A 
ATOM     12  C   UNL     1       4.739   5.022  19.222  0.00  0.00    +0.000 A 
ATOM     13  H   UNL     1       2.244   2.133  16.795  0.00  0.00    +0.000 HD
ENDROOT
BRANCH   1  16
ATOM     14  C   UNL     1       7.062   7.131  17.621  0.00  0.00    +0.000 C 
ATOM     15  O   UNL     1       6.424   7.524  16.648  0.00  0.00    +0.000 OA
ATOM     16  N   UNL     1       6.762   6.039  18.414  0.00  0.00    +0.000 N 
ATOM     17  H   UNL     1       7.217   6.004  19.329  0.00  0.00    +0.000 HD
BRANCH  14  18
ATOM     18  C   UNL     1       8.258   7.925  18.115  0.00  0.00    +0.000 C 
BRANCH  18  19
ATOM     19  C   UNL     1       8.081   9.410  17.814  0.00  0.00    +0.000 C 
BRANCH  19  21
ATOM     20  O   UNL     1       9.761  11.138  17.933  0.00  0.00    +0.000 OA
ATOM     21  C   UNL     1       9.148  10.236  18.486  0.00  0.00    +0.000 C 
BRANCH  21  22
ATOM     22  O   UNL     1       9.369   9.886  19.768  0.00  0.00    +0.000 OA
ATOM     23  H   UNL     1       9.046   8.995  20.010  0.00  0.00    +0.000 HD
ENDBRANCH  21  22
ENDBRANCH  19  21
ENDBRANCH  18  19
ENDBRANCH  14  18
ENDBRANCH   1  16
BRANCH   8  24
ATOM     24  O   UNL     1       0.366   3.332  20.582  0.00  0.00    +0.000 OA
ATOM     25  H   UNL     1      -0.086   2.501  20.332  0.00  0.00    +0.000 HD
ENDBRANCH   8  24
TORSDOF 6
ENDMDL
MODEL 2
REMARK VINA RESULT:      -7.2      3.382      7.538
REMARK  Name = 
REMARK  6 active torsions:
REMARK  status: ('A' for Active; 'I' for Inactive)
REMARK    1  A    between atoms: C_2  and  O_3
REMARK    2  A    between atoms: C_2  and  C_4
REMARK    3  A    between atoms: C_4  and  C_5
REMARK    4  A    between atoms: C_5  and  C_6
REMARK    5  A    between atoms: N_8  and  C_9
REMARK    6  A    between atoms: N_16  and  O_17
REMARK                            x       y       z     vdW  Elec       q    Type
REMARK                         _______ _______ _______ _____ _____    ______ ____
ROOT
ATOM      1  C   UNL     1       4.271   4.198  17.240  0.00  0.00    +0.000 A 
ATOM      2  C   UNL     1       5.187   5.040  17.880  0.00  0.00    +0.000 A 
ATOM      3  C   UNL     1       6.318   5.512  17.207  0.00  0.00    +0.000 A 
ATOM      4  C   UNL     1       6.533   5.143  15.883  0.00  0.00    +0.000 A 
ATOM      5  N   UNL     1       7.625   5.673  15.192  0.00  0.00    +0.000 N 
ATOM      6  C   UNL     1       7.860   5.419  13.870  0.00  0.00    +0.000 A 
ATOM      7  O   UNL     1       8.790   5.958  13.270  0.00  0.00    +0.000 OA
ATOM      8  N   UNL     1       6.981   4.545  13.257  0.00  0.00    +0.000 N 
ATOM      9  C   UNL     1       5.873   3.940  13.821  0.00  0.00    +0.000 A 
ATOM     10  O   UNL     1       5.093   3.187  13.245  0.00  0.00    +0.000 OA
ATOM     11  C   UNL     1       5.642   4.279  15.245  0.00  0.00    +0.000 A 
ATOM     12  C   UNL     1       4.525   3.783  15.928  0.00  0.00    +0.000 A 
ATOM     13  H   UNL     1       8.261   6.319  15.645  0.00  0.00    +0.000 HD
ENDROOT
BRANCH   1  16
ATOM     14  C   UNL     1       2.946   2.598  18.615  0.00  0.00    +0.000 C 
ATOM     15  O   UNL     1       3.841   1.818  18.930  0.00  0.00    +0.000 OA
ATOM     16  N   UNL     1       3.086   3.745  17.854  0.00  0.00    +0.000 N 
ATOM     17  H   UNL     1       2.322   4.422  17.910  0.00  0.00    +0.000 HD
BRANCH  14  18
ATOM     18  C   UNL     1       1.541   2.398  19.153  0.00  0.00    +0.000 C 
BRANCH  18  19
ATOM     19  C   UNL     1       1.084   3.623  19.937  0.00  0.00    +0.000 C 
BRANCH  19  21
ATOM     20  O   UNL     1       1.944   2.902  22.075  0.00  0.00    +0.000 OA
ATOM     21  C   UNL     1       1.862   3.774  21.220  0.00  0.00    +0.000 C 
BRANCH  21  22
ATOM     22  O   UNL     1       2.468   4.971  21.342  0.00  0.00    +0.000 OA
ATOM     23  H   UNL     1       2.045   5.580  21.979  0.00  0.00    +0.000 HD
ENDBRANCH  21  22
ENDBRANCH  19  21
ENDBRANCH  18  19
ENDBRANCH  14  18
ENDBRANCH   1  16
BRANCH   8  24
ATOM     24  O   UNL     1       7.199   4.319  11.879  0.00  0.00    +0.000 OA
ATOM     25  H   UNL     1       7.813   5.044  11.649  0.00  0.00    +0.000 HD
ENDBRANCH   8  24
TORSDOF 6
ENDMDL
MODEL 3
REMARK VINA RESULT:      -7.1      3.856      5.743
REMARK  Name = 
REMARK  6 active torsions:
REMARK  status: ('A' for Active; 'I' for Inactive)
REMARK    1  A    between atoms: C_2  and  O_3
REMARK    2  A    between atoms: C_2  and  C_4
REMARK    3  A    between atoms: C_4  and  C_5
REMARK    4  A    between atoms: C_5  and  C_6
REMARK    5  A    between atoms: N_8  and  C_9
REMARK    6  A    between atoms: N_16  and  O_17
REMARK                            x       y       z     vdW  Elec       q    Type
REMARK                         _______ _______ _______ _____ _____    ______ ____
ROOT
ATOM      1  C   UNL     1       4.506   5.642  17.260  0.00  0.00    +0.000 A 
ATOM      2  C   UNL     1       4.489   4.883  18.435  0.00  0.00    +0.000 A 
ATOM      3  C   UNL     1       3.752   5.301  19.547  0.00  0.00    +0.000 A 
ATOM      4  C   UNL     1       3.023   6.484  19.482  0.00  0.00    +0.000 A 
ATOM      5  N   UNL     1       2.231   6.863  20.569  0.00  0.00    +0.000 N 
ATOM      6  C   UNL     1       1.429   7.969  20.552  0.00  0.00    +0.000 A 
ATOM      7  O   UNL     1       0.688   8.237  21.499  0.00  0.00    +0.000 OA
ATOM      8  N   UNL     1       1.489   8.743  19.409  0.00  0.00    +0.000 N 
ATOM      9  C   UNL     1       2.236   8.497  18.271  0.00  0.00    +0.000 A 
ATOM     10  O   UNL     1       2.251   9.188  17.256  0.00  0.00    +0.000 OA
ATOM     11  C   UNL     1       3.058   7.265  18.326  0.00  0.00    +0.000 A 
ATOM     12  C   UNL     1       3.819   6.860  17.223  0.00  0.00    +0.000 A 
ATOM     13  H   UNL     1       2.184   6.287  21.402  0.00  0.00    +0.000 HD
ENDROOT
BRANCH   1  16
ATOM     14  C   UNL     1       6.535   5.380  15.839  0.00  0.00    +0.000 C 
ATOM     15  O   UNL     1       7.377   5.833  16.609  0.00  0.00    +0.000 OA
ATOM     16  N   UNL     1       5.183   5.234  16.093  0.00  0.00    +0.000 N 
ATOM     17  H   UNL     1       4.671   4.599  15.475  0.00  0.00    +0.000 HD
BRANCH  14  18
ATOM     18  C   UNL     1       6.960   4.820  14.494  0.00  0.00    +0.000 C 
BRANCH  18  19
ATOM     19  C   UNL     1       5.876   3.915  13.919  0.00  0.00    +0.000 C 
BRANCH  19  21
ATOM     20  O   UNL     1       7.189   3.863  11.893  0.00  0.00    +0.000 OA
ATOM     21  C   UNL     1       6.147   3.588  12.472  0.00  0.00    +0.000 C 
BRANCH  21  22
ATOM     22  O   UNL     1       5.123   2.957  11.864  0.00  0.00    +0.000 OA
ATOM     23  H   UNL     1       4.955   2.049  12.184  0.00  0.00    +0.000 HD
ENDBRANCH  21  22
ENDBRANCH  19  21
ENDBRANCH  18  19
ENDBRANCH  14  18
ENDBRANCH   1  16
BRANCH   8  24
ATOM     24  O   UNL     1       0.627   9.861  19.374  0.00  0.00    +0.000 OA
ATOM     25  H   UNL     1       0.565  10.040  18.415  0.00  0.00    +0.000 HD
ENDBRANCH   8  24
TORSDOF 6
ENDMDL
MODEL 4
REMARK VINA RESULT:      -7.1      3.680      5.691
REMARK  Name = 
REMARK  6 active torsions:
REMARK  status: ('A' for Active; 'I' for Inactive)
REMARK    1  A    between atoms: C_2  and  O_3
REMARK    2  A    between atoms: C_2  and  C_4
REMARK    3  A    between atoms: C_4  and  C_5
REMARK    4  A    between atoms: C_5  and  C_6
REMARK    5  A    between atoms: N_8  and  C_9
REMARK    6  A    between atoms: N_16  and  O_17
REMARK                            x       y       z     vdW  Elec       q    Type
REMARK                         _______ _______ _______ _____ _____    ______ ____
ROOT
ATOM      1  C   UNL     1       4.934   4.795  15.751  0.00  0.00    +0.000 A 
ATOM      2  C   UNL     1       5.032   6.064  16.332  0.00  0.00    +0.000 A 
ATOM      3  C   UNL     1       4.465   6.326  17.583  0.00  0.00    +0.000 A 
ATOM      4  C   UNL     1       3.800   5.309  18.261  0.00  0.00    +0.000 A 
ATOM      5  N   UNL     1       3.296   5.554  19.541  0.00  0.00    +0.000 N 
ATOM      6  C   UNL     1       2.699   4.587  20.300  0.00  0.00    +0.000 A 
ATOM      7  O   UNL     1       2.331   4.815  21.453  0.00  0.00    +0.000 OA
ATOM      8  N   UNL     1       2.559   3.349  19.701  0.00  0.00    +0.000 N 
ATOM      9  C   UNL     1       2.994   2.974  18.443  0.00  0.00    +0.000 A 
ATOM     10  O   UNL     1       2.879   1.858  17.945  0.00  0.00    +0.000 OA
ATOM     11  C   UNL     1       3.669   4.049  17.678  0.00  0.00    +0.000 A 
ATOM     12  C   UNL     1       4.212   3.795  16.412  0.00  0.00    +0.000 A 
ATOM     13  H   UNL     1       3.410   6.461  19.978  0.00  0.00    +0.000 HD
ENDROOT
BRANCH   1  16
ATOM     14  C   UNL     1       6.837   4.756  14.145  0.00  0.00    +0.000 C 
ATOM     15  O   UNL     1       7.693   5.300  14.837  0.00  0.00    +0.000 OA
ATOM     16  N   UNL     1       5.539   4.464  14.522  0.00  0.00    +0.000 N 
ATOM     17  H   UNL     1       5.044   3.777  13.949  0.00  0.00    +0.000 HD
BRANCH  14  18
ATOM     18  C   UNL     1       7.193   4.246  12.760  0.00  0.00    +0.000 C 
BRANCH  18  19
ATOM     19  C   UNL     1       6.079   3.364  12.207  0.00  0.00    +0.000 C 
BRANCH  19  21
ATOM     20  O   UNL     1       7.759   2.078  11.046  0.00  0.00    +0.000 OA
ATOM     21  C   UNL     1       6.637   2.139  11.528  0.00  0.00    +0.000 C 
BRANCH  21  22
ATOM     22  O   UNL     1       5.776   1.103  11.498  0.00  0.00    +0.000 OA
ATOM     23  H   UNL     1       5.892   0.455  12.221  0.00  0.00    +0.000 HD
ENDBRANCH  21  22
ENDBRANCH  19  21
ENDBRANCH  18  19
ENDBRANCH  14  18
ENDBRANCH   1  16
BRANCH   8  24
ATOM     24  O   UNL     1       1.981   2.339  20.502  0.00  0.00    +0.000 OA
ATOM     25  H   UNL     1       2.750   1.762  20.686  0.00  0.00    +0.000 HD
ENDBRANCH   8  24
TORSDOF 6
ENDMDL
MODEL 5
REMARK VINA RESULT:      -7.1      1.212      1.301
REMARK  Name = 
REMARK  6 active torsions:
REMARK  status: ('A' for Active; 'I' for Inactive)
REMARK    1  A    between atoms: C_2  and  O_3
REMARK    2  A    between atoms: C_2  and  C_4
REMARK    3  A    between atoms: C_4  and  C_5
REMARK    4  A    between atoms: C_5  and  C_6
REMARK    5  A    between atoms: N_8  and  C_9
REMARK    6  A    between atoms: N_16  and  O_17
REMARK                            x       y       z     vdW  Elec       q    Type
REMARK                         _______ _______ _______ _____ _____    ______ ____
ROOT
ATOM      1  C   UNL     1       5.413   6.144  17.161  0.00  0.00    +0.000 A 
ATOM      2  C   UNL     1       5.433   5.091  16.240  0.00  0.00    +0.000 A 
ATOM      3  C   UNL     1       4.520   4.036  16.337  0.00  0.00    +0.000 A 
ATOM      4  C   UNL     1       3.577   4.036  17.360  0.00  0.00    +0.000 A 
ATOM      5  N   UNL     1       2.622   3.018  17.413  0.00  0.00    +0.000 N 
ATOM      6  C   UNL     1       1.619   2.990  18.340  0.00  0.00    +0.000 A 
ATOM      7  O   UNL     1       0.749   2.119  18.316  0.00  0.00    +0.000 OA
ATOM      8  N   UNL     1       1.635   4.005  19.279  0.00  0.00    +0.000 N 
ATOM      9  C   UNL     1       2.524   5.061  19.355  0.00  0.00    +0.000 A 
ATOM     10  O   UNL     1       2.499   5.965  20.184  0.00  0.00    +0.000 OA
ATOM     11  C   UNL     1       3.568   5.065  18.303  0.00  0.00    +0.000 A 
ATOM     12  C   UNL     1       4.501   6.106  18.222  0.00  0.00    +0.000 A 
ATOM     13  H   UNL     1       2.611   2.282  16.717  0.00  0.00    +0.000 HD
ENDROOT
BRANCH   1  16
ATOM     14  C   UNL     1       7.447   7.443  17.773  0.00  0.00    +0.000 C 
ATOM     15  O   UNL     1       7.970   6.643  18.544  0.00  0.00    +0.000 OA
ATOM     16  N   UNL     1       6.270   7.259  17.072  0.00  0.00    +0.000 N 
ATOM     17  H   UNL     1       6.113   7.883  16.276  0.00  0.00    +0.000 HD
BRANCH  14  18
ATOM     18  C   UNL     1       8.152   8.745  17.438  0.00  0.00    +0.000 C 
BRANCH  18  19
ATOM     19  C   UNL     1       8.672   9.418  18.703  0.00  0.00    +0.000 C 
BRANCH  19  21
ATOM     20  O   UNL     1      10.486  11.011  18.667  0.00  0.00    +0.000 OA
ATOM     21  C   UNL     1       9.325  10.741  18.391  0.00  0.00    +0.000 C 
BRANCH  21  22
ATOM     22  O   UNL     1       8.504  11.611  17.772  0.00  0.00    +0.000 OA
ATOM     23  H   UNL     1       7.578  11.308  17.685  0.00  0.00    +0.000 HD
ENDBRANCH  21  22
ENDBRANCH  19  21
ENDBRANCH  18  19
ENDBRANCH  14  18
ENDBRANCH   1  16
BRANCH   8  24
ATOM     24  O   UNL     1       0.572   4.000  20.210  0.00  0.00    +0.000 OA
ATOM     25  H   UNL     1       0.922   3.418  20.914  0.00  0.00    +0.000 HD
ENDBRANCH   8  24
TORSDOF 6
ENDMDL
MODEL 6
REMARK VINA RESULT:      -7.0      3.448      7.529
REMARK  Name = 
REMARK  6 active torsions:
REMARK  status: ('A' for Active; 'I' for Inactive)
REMARK    1  A    between atoms: C_2  and  O_3
REMARK    2  A    between atoms: C_2  and  C_4
REMARK    3  A    between atoms: C_4  and  C_5
REMARK    4  A    between atoms: C_5  and  C_6
REMARK    5  A    between atoms: N_8  and  C_9
REMARK    6  A    between atoms: N_16  and  O_17
REMARK                            x       y       z     vdW  Elec       q    Type
REMARK                         _______ _______ _______ _____ _____    ______ ____
ROOT
ATOM      1  C   UNL     1       4.613   4.301  17.498  0.00  0.00    +0.000 A 
ATOM      2  C   UNL     1       5.599   5.128  18.046  0.00  0.00    +0.000 A 
ATOM      3  C   UNL     1       6.675   5.572  17.271  0.00  0.00    +0.000 A 
ATOM      4  C   UNL     1       6.763   5.190  15.936  0.00  0.00    +0.000 A 
ATOM      5  N   UNL     1       7.800   5.692  15.146  0.00  0.00    +0.000 N 
ATOM      6  C   UNL     1       7.910   5.425  13.811  0.00  0.00    +0.000 A 
ATOM      7  O   UNL     1       8.793   5.941  13.125  0.00  0.00    +0.000 OA
ATOM      8  N   UNL     1       6.963   4.566  13.285  0.00  0.00    +0.000 N 
ATOM      9  C   UNL     1       5.898   3.987  13.951  0.00  0.00    +0.000 A 
ATOM     10  O   UNL     1       5.054   3.248  13.453  0.00  0.00    +0.000 OA
ATOM     11  C   UNL     1       5.802   4.341  15.387  0.00  0.00    +0.000 A 
ATOM     12  C   UNL     1       4.741   3.873  16.172  0.00  0.00    +0.000 A 
ATOM     13  H   UNL     1       8.486   6.329  15.535  0.00  0.00    +0.000 HD
ENDROOT
BRANCH   1  16
ATOM     14  C   UNL     1       2.312   4.594  18.404  0.00  0.00    +0.000 C 
ATOM     15  O   UNL     1       2.048   5.694  17.925  0.00  0.00    +0.000 OA
ATOM     16  N   UNL     1       3.479   3.876  18.219  0.00  0.00    +0.000 N 
ATOM     17  H   UNL     1       3.440   2.880  18.447  0.00  0.00    +0.000 HD
BRANCH  14  18
ATOM     18  C   UNL     1       1.267   3.850  19.215  0.00  0.00    +0.000 C 
BRANCH  18  19
ATOM     19  C   UNL     1       1.420   4.153  20.701  0.00  0.00    +0.000 C 
BRANCH  19  21
ATOM     20  O   UNL     1       1.366   2.382  22.340  0.00  0.00    +0.000 OA
ATOM     21  C   UNL     1       1.969   2.965  21.449  0.00  0.00    +0.000 C 
BRANCH  21  22
ATOM     22  O   UNL     1       3.200   2.597  21.043  0.00  0.00    +0.000 OA
ATOM     23  H   UNL     1       3.313   1.636  20.901  0.00  0.00    +0.000 HD
ENDBRANCH  21  22
ENDBRANCH  19  21
ENDBRANCH  18  19
ENDBRANCH  14  18
ENDBRANCH   1  16
BRANCH   8  24
ATOM     24  O   UNL     1       7.051   4.326  11.896  0.00  0.00    +0.000 OA
ATOM     25  H   UNL     1       7.172   3.356  11.866  0.00  0.00    +0.000 HD
ENDBRANCH   8  24
TORSDOF 6
ENDMDL
MODEL 7
REMARK VINA RESULT:      -7.0      3.400      5.421
REMARK  Name = 
REMARK  6 active torsions:
REMARK  status: ('A' for Active; 'I' for Inactive)
REMARK    1  A    between atoms: C_2  and  O_3
REMARK    2  A    between atoms: C_2  and  C_4
REMARK    3  A    between atoms: C_4  and  C_5
REMARK    4  A    between atoms: C_5  and  C_6
REMARK    5  A    between atoms: N_8  and  C_9
REMARK    6  A    between atoms: N_16  and  O_17
REMARK                            x       y       z     vdW  Elec       q    Type
REMARK                         _______ _______ _______ _____ _____    ______ ____
ROOT
ATOM      1  C   UNL     1       5.042   4.213  16.530  0.00  0.00    +0.000 A 
ATOM      2  C   UNL     1       5.937   4.384  17.591  0.00  0.00    +0.000 A 
ATOM      3  C   UNL     1       5.498   4.317  18.917  0.00  0.00    +0.000 A 
ATOM      4  C   UNL     1       4.155   4.071  19.184  0.00  0.00    +0.000 A 
ATOM      5  N   UNL     1       3.733   3.933  20.509  0.00  0.00    +0.000 N 
ATOM      6  C   UNL     1       2.448   3.616  20.847  0.00  0.00    +0.000 A 
ATOM      7  O   UNL     1       2.122   3.430  22.020  0.00  0.00    +0.000 OA
ATOM      8  N   UNL     1       1.556   3.499  19.797  0.00  0.00    +0.000 N 
ATOM      9  C   UNL     1       1.832   3.624  18.448  0.00  0.00    +0.000 A 
ATOM     10  O   UNL     1       1.026   3.489  17.533  0.00  0.00    +0.000 OA
ATOM     11  C   UNL     1       3.248   3.929  18.133  0.00  0.00    +0.000 A 
ATOM     12  C   UNL     1       3.683   4.027  16.806  0.00  0.00    +0.000 A 
ATOM     13  H   UNL     1       4.393   4.011  21.274  0.00  0.00    +0.000 HD
ENDROOT
BRANCH   1  16
ATOM     14  C   UNL     1       6.679   4.600  14.693  0.00  0.00    +0.000 C 
ATOM     15  O   UNL     1       7.648   4.952  15.361  0.00  0.00    +0.000 OA
ATOM     16  N   UNL     1       5.444   4.213  15.179  0.00  0.00    +0.000 N 
ATOM     17  H   UNL     1       4.845   3.693  14.533  0.00  0.00    +0.000 HD
BRANCH  14  18
ATOM     18  C   UNL     1       6.805   4.465  13.187  0.00  0.00    +0.000 C 
BRANCH  18  19
ATOM     19  C   UNL     1       5.788   3.466  12.648  0.00  0.00    +0.000 C 
BRANCH  19  21
ATOM     20  O   UNL     1       7.575   2.543  11.313  0.00  0.00    +0.000 OA
ATOM     21  C   UNL     1       6.447   2.429  11.774  0.00  0.00    +0.000 C 
BRANCH  21  22
ATOM     22  O   UNL     1       5.674   1.350  11.544  0.00  0.00    +0.000 OA
ATOM     23  H   UNL     1       6.055   0.502  11.846  0.00  0.00    +0.000 HD
ENDBRANCH  21  22
ENDBRANCH  19  21
ENDBRANCH  18  19
ENDBRANCH  14  18
ENDBRANCH   1  16
BRANCH   8  24
ATOM     24  O   UNL     1       0.238   3.128  20.146  0.00  0.00    +0.000 OA
ATOM     25  H   UNL     1       0.218   2.186  19.884  0.00  0.00    +0.000 HD
ENDBRANCH   8  24
TORSDOF 6
ENDMDL
MODEL 8
REMARK VINA RESULT:      -6.9      3.863      6.540
REMARK  Name = 
REMARK  6 active torsions:
REMARK  status: ('A' for Active; 'I' for Inactive)
REMARK    1  A    between atoms: C_2  and  O_3
REMARK    2  A    between atoms: C_2  and  C_4
REMARK    3  A    between atoms: C_4  and  C_5
REMARK    4  A    between atoms: C_5  and  C_6
REMARK    5  A    between atoms: N_8  and  C_9
REMARK    6  A    between atoms: N_16  and  O_17
REMARK                            x       y       z     vdW  Elec       q    Type
REMARK                         _______ _______ _______ _____ _____    ______ ____
ROOT
ATOM      1  C   UNL     1       2.849   6.063  19.114  0.00  0.00    +0.000 A 
ATOM      2  C   UNL     1       2.269   4.882  18.637  0.00  0.00    +0.000 A 
ATOM      3  C   UNL     1       2.845   4.180  17.573  0.00  0.00    +0.000 A 
ATOM      4  C   UNL     1       4.012   4.659  16.986  0.00  0.00    +0.000 A 
ATOM      5  N   UNL     1       4.624   3.918  15.972  0.00  0.00    +0.000 N 
ATOM      6  C   UNL     1       5.809   4.283  15.400  0.00  0.00    +0.000 A 
ATOM      7  O   UNL     1       6.360   3.571  14.559  0.00  0.00    +0.000 OA
ATOM      8  N   UNL     1       6.351   5.476  15.839  0.00  0.00    +0.000 N 
ATOM      9  C   UNL     1       5.848   6.313  16.819  0.00  0.00    +0.000 A 
ATOM     10  O   UNL     1       6.364   7.356  17.209  0.00  0.00    +0.000 OA
ATOM     11  C   UNL     1       4.581   5.851  17.434  0.00  0.00    +0.000 A 
ATOM     12  C   UNL     1       3.988   6.570  18.479  0.00  0.00    +0.000 A 
ATOM     13  H   UNL     1       4.226   3.039  15.660  0.00  0.00    +0.000 HD
ENDROOT
BRANCH   1  16
ATOM     14  C   UNL     1       1.756   8.026  20.188  0.00  0.00    +0.000 C 
ATOM     15  O   UNL     1       1.528   8.700  19.186  0.00  0.00    +0.000 OA
ATOM     16  N   UNL     1       2.342   6.774  20.220  0.00  0.00    +0.000 N 
ATOM     17  H   UNL     1       2.214   6.235  21.080  0.00  0.00    +0.000 HD
BRANCH  14  18
ATOM     18  C   UNL     1       1.295   8.513  21.549  0.00  0.00    +0.000 C 
BRANCH  18  19
ATOM     19  C   UNL     1       0.659   9.894  21.442  0.00  0.00    +0.000 C 
BRANCH  19  21
ATOM     20  O   UNL     1      -0.451  11.282  23.076  0.00  0.00    +0.000 OA
ATOM     21  C   UNL     1      -0.256  10.168  22.609  0.00  0.00    +0.000 C 
BRANCH  21  22
ATOM     22  O   UNL     1      -0.848   9.061  23.098  0.00  0.00    +0.000 OA
ATOM     23  H   UNL     1      -1.004   9.073  24.063  0.00  0.00    +0.000 HD
ENDBRANCH  21  22
ENDBRANCH  19  21
ENDBRANCH  18  19
ENDBRANCH  14  18
ENDBRANCH   1  16
BRANCH   8  24
ATOM     24  O   UNL     1       7.599   5.830  15.279  0.00  0.00    +0.000 OA
ATOM     25  H   UNL     1       7.723   6.739  15.620  0.00  0.00    +0.000 HD
ENDBRANCH   8  24
TORSDOF 6
ENDMDL
MODEL 9
REMARK VINA RESULT:      -6.9      5.049      7.460
REMARK  Name = 
REMARK  6 active torsions:
REMARK  status: ('A' for Active; 'I' for Inactive)
REMARK    1  A    between atoms: C_2  and  O_3
REMARK    2  A    between atoms: C_2  and  C_4
REMARK    3  A    between atoms: C_4  and  C_5
REMARK    4  A    between atoms: C_5  and  C_6
REMARK    5  A    between atoms: N_8  and  C_9
REMARK    6  A    between atoms: N_16  and  O_17
REMARK                            x       y       z     vdW  Elec       q    Type
REMARK                         _______ _______ _______ _____ _____    ______ ____
ROOT
ATOM      1  C   UNL     1       2.189   6.832  19.930  0.00  0.00    +0.000 A 
ATOM      2  C   UNL     1       2.300   7.202  18.586  0.00  0.00    +0.000 A 
ATOM      3  C   UNL     1       1.941   8.486  18.163  0.00  0.00    +0.000 A 
ATOM      4  C   UNL     1       1.473   9.409  19.093  0.00  0.00    +0.000 A 
ATOM      5  N   UNL     1       1.182  10.712  18.680  0.00  0.00    +0.000 N 
ATOM      6  C   UNL     1       0.791  11.693  19.546  0.00  0.00    +0.000 A 
ATOM      7  O   UNL     1       0.613  12.850  19.164  0.00  0.00    +0.000 OA
ATOM      8  N   UNL     1       0.632  11.309  20.865  0.00  0.00    +0.000 N 
ATOM      9  C   UNL     1       0.868  10.059  21.406  0.00  0.00    +0.000 A 
ATOM     10  O   UNL     1       0.744   9.751  22.587  0.00  0.00    +0.000 OA
ATOM     11  C   UNL     1       1.328   9.041  20.431  0.00  0.00    +0.000 A 
ATOM     12  C   UNL     1       1.659   7.746  20.848  0.00  0.00    +0.000 A 
ATOM     13  H   UNL     1       1.309  10.989  17.713  0.00  0.00    +0.000 HD
ENDROOT
BRANCH   1  16
ATOM     14  C   UNL     1       1.776   4.477  20.626  0.00  0.00    +0.000 C 
ATOM     15  O   UNL     1       0.577   4.401  20.370  0.00  0.00    +0.000 OA
ATOM     16  N   UNL     1       2.593   5.573  20.416  0.00  0.00    +0.000 N 
ATOM     17  H   UNL     1       3.600   5.395  20.419  0.00  0.00    +0.000 HD
BRANCH  14  18
ATOM     18  C   UNL     1       2.520   3.259  21.140  0.00  0.00    +0.000 C 
BRANCH  18  19
ATOM     19  C   UNL     1       3.038   2.414  19.981  0.00  0.00    +0.000 C 
BRANCH  19  21
ATOM     20  O   UNL     1       5.061   3.621  19.457  0.00  0.00    +0.000 OA
ATOM     21  C   UNL     1       4.526   2.578  19.806  0.00  0.00    +0.000 C 
BRANCH  21  22
ATOM     22  O   UNL     1       5.225   1.457  20.072  0.00  0.00    +0.000 OA
ATOM     23  H   UNL     1       5.803   1.153  19.344  0.00  0.00    +0.000 HD
ENDBRANCH  21  22
ENDBRANCH  19  21
ENDBRANCH  18  19
ENDBRANCH  14  18
ENDBRANCH   1  16
BRANCH   8  24
ATOM     24  O   UNL     1       0.271  12.335  21.766  0.00  0.00    +0.000 OA
ATOM     25  H   UNL     1      -0.661  12.111  21.964  0.00  0.00    +0.000 HD
ENDBRANCH   8  24
TORSDOF 6
ENDMDL
