MODEL 1
REMARK VINA RESULT:      -7.0      0.000      0.000
REMARK  Name = 
REMARK  8 active torsions:
REMARK  status: ('A' for Active; 'I' for Inactive)
REMARK    1  A    between atoms: C_1  and  O_2
REMARK    2  A    between atoms: O_2  and  C_3
REMARK    3  A    between atoms: C_6  and  N_7
REMARK    4  A    between atoms: N_7  and  S_16
REMARK    5  A    between atoms: C_8  and  C_10
REMARK    6  A    between atoms: S_16  and  C_19
REMARK    7  A    between atoms: N_25  and  C_26
REMARK    8  A    between atoms: N_29  and  C_30
REMARK                            x       y       z     vdW  Elec       q    Type
REMARK                         _______ _______ _______ _____ _____    ______ ____
ROOT
ATOM      1  N   UNL     1      -0.717  11.437  19.392  0.00  0.00    +0.000 N 
ATOM      2  C   UNL     1      -1.767  10.631  18.844  0.00  0.00    +0.000 C 
ATOM      3  O   UNL     1      -1.671   9.408  18.786  0.00  0.00    +0.000 OA
ENDROOT
BRANCH   1   7
ATOM      4  C   UNL     1      -0.717  15.657  19.853  0.00  0.00    +0.000 A 
ATOM      5  C   UNL     1      -0.205  15.051  18.703  0.00  0.00    +0.000 A 
ATOM      6  C   UNL     1      -0.262  13.667  18.535  0.00  0.00    +0.000 A 
ATOM      7  C   UNL     1      -0.832  12.862  19.526  0.00  0.00    +0.000 A 
ATOM      8  C   UNL     1      -1.373  13.464  20.668  0.00  0.00    +0.000 A 
ATOM      9  C   UNL     1      -1.319  14.861  20.831  0.00  0.00    +0.000 A 
BRANCH   4  11
ATOM     10  C   UNL     1      -0.883  17.780  18.782  0.00  0.00    +0.000 C 
ATOM     11  O   UNL     1      -0.512  17.005  19.913  0.00  0.00    +0.000 OA
ENDBRANCH   4  11
ENDBRANCH   1   7
BRANCH   2  12
ATOM     12  C   UNL     1      -3.025  11.215  18.300  0.00  0.00    +0.000 A 
ATOM     13  C   UNL     1      -4.068  11.821  19.039  0.00  0.00    +0.000 A 
ATOM     14  C   UNL     1      -5.220  12.235  18.382  0.00  0.00    +0.000 A 
ATOM     15  C   UNL     1      -5.301  12.079  17.006  0.00  0.00    +0.000 A 
ATOM     16  N   UNL     1      -4.305  11.572  16.258  0.00  0.00    +0.000 NA
ATOM     17  C   UNL     1      -3.190  11.161  16.919  0.00  0.00    +0.000 A 
ENDBRANCH   2  12
BRANCH   1  18
ATOM     18  S   UNL     1       0.406  10.722  20.501  0.00  0.00    +0.000 S 
ATOM     19  O   UNL     1       1.461  11.677  20.788  0.00  0.00    +0.000 OA
ATOM     20  O   UNL     1      -0.335  10.128  21.595  0.00  0.00    +0.000 OA
BRANCH  18  21
ATOM     21  C   UNL     1       1.200   9.403  19.583  0.00  0.00    +0.000 A 
ATOM     22  C   UNL     1       1.634   9.630  18.255  0.00  0.00    +0.000 A 
ATOM     23  C   UNL     1       2.435   8.684  17.596  0.00  0.00    +0.000 A 
ATOM     24  C   UNL     1       2.774   7.554  18.312  0.00  0.00    +0.000 A 
ATOM     25  C   UNL     1       2.157   7.232  19.521  0.00  0.00    +0.000 A 
ATOM     26  C   UNL     1       1.369   8.146  20.194  0.00  0.00    +0.000 A 
ATOM     27  N   UNL     1       2.701   6.006  20.012  0.00  0.00    +0.000 N 
ATOM     28  C   UNL     1       1.921   4.805  19.680  0.00  0.00    +0.000 C 
ATOM     29  C   UNL     1       3.945   5.865  19.306  0.00  0.00    +0.000 A 
ATOM     30  O   UNL     1       4.834   5.075  19.573  0.00  0.00    +0.000 OA
ATOM     31  N   UNL     1       3.827   6.653  18.145  0.00  0.00    +0.000 N 
ATOM     32  C   UNL     1       4.444   6.234  16.932  0.00  0.00    +0.000 C 
ENDBRANCH  18  21
ENDBRANCH   1  18
TORSDOF 5
ENDMDL
MODEL 2
REMARK VINA RESULT:      -6.9      3.004      7.994
REMARK  Name = 
REMARK  8 active torsions:
REMARK  status: ('A' for Active; 'I' for Inactive)
REMARK    1  A    between atoms: C_1  and  O_2
REMARK    2  A    between atoms: O_2  and  C_3
REMARK    3  A    between atoms: C_6  and  N_7
REMARK    4  A    between atoms: N_7  and  S_16
REMARK    5  A    between atoms: C_8  and  C_10
REMARK    6  A    between atoms: S_16  and  C_19
REMARK    7  A    between atoms: N_25  and  C_26
REMARK    8  A    between atoms: N_29  and  C_30
REMARK                            x       y       z     vdW  Elec       q    Type
REMARK                         _______ _______ _______ _____ _____    ______ ____
ROOT
ATOM      1  N   UNL     1      -0.313  11.495  18.427  0.00  0.00    +0.000 N 
ATOM      2  C   UNL     1       0.054  12.871  18.592  0.00  0.00    +0.000 C 
ATOM      3  O   UNL     1      -0.683  13.779  18.214  0.00  0.00    +0.000 OA
ENDROOT
BRANCH   1   7
ATOM      4  C   UNL     1       1.887   8.096  19.703  0.00  0.00    +0.000 A 
ATOM      5  C   UNL     1       1.983   8.575  18.395  0.00  0.00    +0.000 A 
ATOM      6  C   UNL     1       1.301   9.727  18.000  0.00  0.00    +0.000 A 
ATOM      7  C   UNL     1       0.503  10.419  18.916  0.00  0.00    +0.000 A 
ATOM      8  C   UNL     1       0.424   9.962  20.237  0.00  0.00    +0.000 A 
ATOM      9  C   UNL     1       1.118   8.803  20.632  0.00  0.00    +0.000 A 
BRANCH   4  11
ATOM     10  C   UNL     1       1.805   5.855  20.512  0.00  0.00    +0.000 C 
ATOM     11  O   UNL     1       2.539   6.916  19.916  0.00  0.00    +0.000 OA
ENDBRANCH   4  11
ENDBRANCH   1   7
BRANCH   2  12
ATOM     12  C   UNL     1       1.342  13.288  19.211  0.00  0.00    +0.000 A 
ATOM     13  C   UNL     1       1.623  13.399  20.593  0.00  0.00    +0.000 A 
ATOM     14  C   UNL     1       2.855  13.893  21.003  0.00  0.00    +0.000 A 
ATOM     15  C   UNL     1       3.798  14.228  20.041  0.00  0.00    +0.000 A 
ATOM     16  N   UNL     1       3.596  14.073  18.721  0.00  0.00    +0.000 NA
ATOM     17  C   UNL     1       2.380  13.600  18.337  0.00  0.00    +0.000 A 
ENDBRANCH   2  12
BRANCH   1  18
ATOM     18  S   UNL     1      -1.987  11.080  18.263  0.00  0.00    +0.000 S 
ATOM     19  O   UNL     1      -2.501  11.658  17.035  0.00  0.00    +0.000 OA
ATOM     20  O   UNL     1      -2.139   9.659  18.501  0.00  0.00    +0.000 OA
BRANCH  18  21
ATOM     21  C   UNL     1      -2.821  11.959  19.584  0.00  0.00    +0.000 A 
ATOM     22  C   UNL     1      -4.102  12.518  19.361  0.00  0.00    +0.000 A 
ATOM     23  C   UNL     1      -4.854  13.025  20.432  0.00  0.00    +0.000 A 
ATOM     24  C   UNL     1      -4.285  12.935  21.686  0.00  0.00    +0.000 A 
ATOM     25  C   UNL     1      -2.942  12.601  21.866  0.00  0.00    +0.000 A 
ATOM     26  C   UNL     1      -2.181  12.094  20.831  0.00  0.00    +0.000 A 
ATOM     27  N   UNL     1      -2.642  12.604  23.262  0.00  0.00    +0.000 N 
ATOM     28  C   UNL     1      -2.052  13.853  23.766  0.00  0.00    +0.000 C 
ATOM     29  C   UNL     1      -3.927  12.502  23.899  0.00  0.00    +0.000 A 
ATOM     30  O   UNL     1      -4.124  12.253  25.076  0.00  0.00    +0.000 OA
ATOM     31  N   UNL     1      -4.869  12.953  22.954  0.00  0.00    +0.000 N 
ATOM     32  C   UNL     1      -6.024  13.666  23.383  0.00  0.00    +0.000 C 
ENDBRANCH  18  21
ENDBRANCH   1  18
TORSDOF 5
ENDMDL
MODEL 3
REMARK VINA RESULT:      -6.7      2.707      4.884
REMARK  Name = 
REMARK  8 active torsions:
REMARK  status: ('A' for Active; 'I' for Inactive)
REMARK    1  A    between atoms: C_1  and  O_2
REMARK    2  A    between atoms: O_2  and  C_3
REMARK    3  A    between atoms: C_6  and  N_7
REMARK    4  A    between atoms: N_7  and  S_16
REMARK    5  A    between atoms: C_8  and  C_10
REMARK    6  A    between atoms: S_16  and  C_19
REMARK    7  A    between atoms: N_25  and  C_26
REMARK    8  A    between atoms: N_29  and  C_30
REMARK                            x       y       z     vdW  Elec       q    Type
REMARK                         _______ _______ _______ _____ _____    ______ ____
ROOT
ATOM      1  N   UNL     1       0.526  11.645  20.121  0.00  0.00    +0.000 N 
ATOM      2  C   UNL     1       1.516  12.626  19.790  0.00  0.00    +0.000 C 
ATOM      3  O   UNL     1       2.335  12.431  18.896  0.00  0.00    +0.000 OA
ENDROOT
BRANCH   1   7
ATOM      4  C   UNL     1      -2.577  12.013  22.995  0.00  0.00    +0.000 A 
ATOM      5  C   UNL     1      -1.468  11.195  23.224  0.00  0.00    +0.000 A 
ATOM      6  C   UNL     1      -0.426  11.125  22.298  0.00  0.00    +0.000 A 
ATOM      7  C   UNL     1      -0.480  11.876  21.120  0.00  0.00    +0.000 A 
ATOM      8  C   UNL     1      -1.575  12.719  20.897  0.00  0.00    +0.000 A 
ATOM      9  C   UNL     1      -2.621  12.791  21.835  0.00  0.00    +0.000 A 
BRANCH   4  11
ATOM     10  C   UNL     1      -4.082  13.116  24.479  0.00  0.00    +0.000 C 
ATOM     11  O   UNL     1      -3.552  11.911  23.945  0.00  0.00    +0.000 OA
ENDBRANCH   4  11
ENDBRANCH   1   7
BRANCH   2  12
ATOM     12  C   UNL     1       1.626  13.927  20.507  0.00  0.00    +0.000 A 
ATOM     13  C   UNL     1       0.985  15.141  20.167  0.00  0.00    +0.000 A 
ATOM     14  C   UNL     1       1.270  16.291  20.892  0.00  0.00    +0.000 A 
ATOM     15  C   UNL     1       2.149  16.210  21.962  0.00  0.00    +0.000 A 
ATOM     16  N   UNL     1       2.726  15.062  22.361  0.00  0.00    +0.000 NA
ATOM     17  C   UNL     1       2.446  13.949  21.632  0.00  0.00    +0.000 A 
ENDBRANCH   2  12
BRANCH   1  18
ATOM     18  S   UNL     1       0.070  10.468  18.934  0.00  0.00    +0.000 S 
ATOM     19  O   UNL     1      -1.261   9.978  19.238  0.00  0.00    +0.000 OA
ATOM     20  O   UNL     1       0.349  11.004  17.617  0.00  0.00    +0.000 OA
BRANCH  18  21
ATOM     21  C   UNL     1       1.162   9.073  19.211  0.00  0.00    +0.000 A 
ATOM     22  C   UNL     1       1.177   8.429  20.471  0.00  0.00    +0.000 A 
ATOM     23  C   UNL     1       1.865   7.218  20.643  0.00  0.00    +0.000 A 
ATOM     24  C   UNL     1       2.500   6.703  19.531  0.00  0.00    +0.000 A 
ATOM     25  C   UNL     1       2.677   7.452  18.368  0.00  0.00    +0.000 A 
ATOM     26  C   UNL     1       2.007   8.644  18.170  0.00  0.00    +0.000 A 
ATOM     27  N   UNL     1       3.377   6.663  17.405  0.00  0.00    +0.000 N 
ATOM     28  C   UNL     1       4.831   6.882  17.365  0.00  0.00    +0.000 C 
ATOM     29  C   UNL     1       3.204   5.312  17.863  0.00  0.00    +0.000 A 
ATOM     30  O   UNL     1       3.452   4.303  17.226  0.00  0.00    +0.000 OA
ATOM     31  N   UNL     1       2.906   5.400  19.237  0.00  0.00    +0.000 N 
ATOM     32  C   UNL     1       3.374   4.398  20.134  0.00  0.00    +0.000 C 
ENDBRANCH  18  21
ENDBRANCH   1  18
TORSDOF 5
ENDMDL
MODEL 4
REMARK VINA RESULT:      -6.6      2.350      3.699
REMARK  Name = 
REMARK  8 active torsions:
REMARK  status: ('A' for Active; 'I' for Inactive)
REMARK    1  A    between atoms: C_1  and  O_2
REMARK    2  A    between atoms: O_2  and  C_3
REMARK    3  A    between atoms: C_6  and  N_7
REMARK    4  A    between atoms: N_7  and  S_16
REMARK    5  A    between atoms: C_8  and  C_10
REMARK    6  A    between atoms: S_16  and  C_19
REMARK    7  A    between atoms: N_25  and  C_26
REMARK    8  A    between atoms: N_29  and  C_30
REMARK                            x       y       z     vdW  Elec       q    Type
REMARK                         _______ _______ _______ _____ _____    ______ ____
ROOT
ATOM      1  N   UNL     1      -0.817  11.353  20.321  0.00  0.00    +0.000 N 
ATOM      2  C   UNL     1      -1.454  12.117  21.352  0.00  0.00    +0.000 C 
ATOM      3  O   UNL     1      -0.847  12.456  22.365  0.00  0.00    +0.000 OA
ENDROOT
BRANCH   1   7
ATOM      4  C   UNL     1      -3.035  10.554  16.790  0.00  0.00    +0.000 A 
ATOM      5  C   UNL     1      -2.222  11.685  16.897  0.00  0.00    +0.000 A 
ATOM      6  C   UNL     1      -1.452  11.908  18.040  0.00  0.00    +0.000 A 
ATOM      7  C   UNL     1      -1.488  10.999  19.101  0.00  0.00    +0.000 A 
ATOM      8  C   UNL     1      -2.279   9.850  18.989  0.00  0.00    +0.000 A 
ATOM      9  C   UNL     1      -3.049   9.625  17.833  0.00  0.00    +0.000 A 
BRANCH   4  11
ATOM     10  C   UNL     1      -3.144  10.168  14.440  0.00  0.00    +0.000 C 
ATOM     11  O   UNL     1      -3.793  10.516  15.655  0.00  0.00    +0.000 OA
ENDBRANCH   4  11
ENDBRANCH   1   7
BRANCH   2  12
ATOM     12  C   UNL     1      -2.882  12.536  21.273  0.00  0.00    +0.000 A 
ATOM     13  C   UNL     1      -3.536  13.117  20.162  0.00  0.00    +0.000 A 
ATOM     14  C   UNL     1      -4.855  13.534  20.287  0.00  0.00    +0.000 A 
ATOM     15  C   UNL     1      -5.512  13.333  21.492  0.00  0.00    +0.000 A 
ATOM     16  N   UNL     1      -4.948  12.723  22.550  0.00  0.00    +0.000 NA
ATOM     17  C   UNL     1      -3.654  12.331  22.414  0.00  0.00    +0.000 A 
ENDBRANCH   2  12
BRANCH   1  18
ATOM     18  S   UNL     1       0.909  11.400  20.176  0.00  0.00    +0.000 S 
ATOM     19  O   UNL     1       1.274  12.384  19.175  0.00  0.00    +0.000 OA
ATOM     20  O   UNL     1       1.484  11.485  21.503  0.00  0.00    +0.000 OA
BRANCH  18  21
ATOM     21  C   UNL     1       1.365   9.816  19.471  0.00  0.00    +0.000 A 
ATOM     22  C   UNL     1       1.712   9.727  18.102  0.00  0.00    +0.000 A 
ATOM     23  C   UNL     1       2.267   8.546  17.584  0.00  0.00    +0.000 A 
ATOM     24  C   UNL     1       2.459   7.510  18.474  0.00  0.00    +0.000 A 
ATOM     25  C   UNL     1       1.904   7.522  19.754  0.00  0.00    +0.000 A 
ATOM     26  C   UNL     1       1.358   8.671  20.291  0.00  0.00    +0.000 A 
ATOM     27  N   UNL     1       2.260   6.315  20.430  0.00  0.00    +0.000 N 
ATOM     28  C   UNL     1       1.248   5.249  20.367  0.00  0.00    +0.000 C 
ATOM     29  C   UNL     1       3.389   5.818  19.692  0.00  0.00    +0.000 A 
ATOM     30  O   UNL     1       4.141   4.927  20.050  0.00  0.00    +0.000 OA
ATOM     31  N   UNL     1       3.312   6.406  18.415  0.00  0.00    +0.000 N 
ATOM     32  C   UNL     1       3.732   5.676  17.267  0.00  0.00    +0.000 C 
ENDBRANCH  18  21
ENDBRANCH   1  18
TORSDOF 5
ENDMDL
MODEL 5
REMARK VINA RESULT:      -6.6      2.274      4.084
REMARK  Name = 
REMARK  8 active torsions:
REMARK  status: ('A' for Active; 'I' for Inactive)
REMARK    1  A    between atoms: C_1  and  O_2
REMARK    2  A    between atoms: O_2  and  C_3
REMARK    3  A    between atoms: C_6  and  N_7
REMARK    4  A    between atoms: N_7  and  S_16
REMARK    5  A    between atoms: C_8  and  C_10
REMARK    6  A    between atoms: S_16  and  C_19
REMARK    7  A    between atoms: N_25  and  C_26
REMARK    8  A    between atoms: N_29  and  C_30
REMARK                            x       y       z     vdW  Elec       q    Type
REMARK                         _______ _______ _______ _____ _____    ______ ____
ROOT
ATOM      1  N   UNL     1       0.261  10.821  20.769  0.00  0.00    +0.000 N 
ATOM      2  C   UNL     1       1.389  11.704  20.722  0.00  0.00    +0.000 C 
ATOM      3  O   UNL     1       2.354  11.549  21.465  0.00  0.00    +0.000 OA
ENDROOT
BRANCH   1   7
ATOM      4  C   UNL     1      -2.821  11.390  17.905  0.00  0.00    +0.000 A 
ATOM      5  C   UNL     1      -1.749  10.528  17.659  0.00  0.00    +0.000 A 
ATOM      6  C   UNL     1      -0.772  10.303  18.629  0.00  0.00    +0.000 A 
ATOM      7  C   UNL     1      -0.850  10.946  19.868  0.00  0.00    +0.000 A 
ATOM      8  C   UNL     1      -1.936  11.789  20.133  0.00  0.00    +0.000 A 
ATOM      9  C   UNL     1      -2.923  12.008  19.154  0.00  0.00    +0.000 A 
BRANCH   4  11
ATOM     10  C   UNL     1      -3.296  10.940  15.613  0.00  0.00    +0.000 C 
ATOM     11  O   UNL     1      -3.647  11.576  16.834  0.00  0.00    +0.000 OA
ENDBRANCH   4  11
ENDBRANCH   1   7
BRANCH   2  12
ATOM     12  C   UNL     1       1.460  12.865  19.790  0.00  0.00    +0.000 A 
ATOM     13  C   UNL     1       1.995  12.870  18.481  0.00  0.00    +0.000 A 
ATOM     14  C   UNL     1       2.067  14.066  17.777  0.00  0.00    +0.000 A 
ATOM     15  C   UNL     1       1.572  15.222  18.364  0.00  0.00    +0.000 A 
ATOM     16  N   UNL     1       0.994  15.246  19.578  0.00  0.00    +0.000 NA
ATOM     17  C   UNL     1       0.943  14.070  20.257  0.00  0.00    +0.000 A 
ENDBRANCH   2  12
BRANCH   1  18
ATOM     18  S   UNL     1       0.465   9.222  21.404  0.00  0.00    +0.000 S 
ATOM     19  O   UNL     1       1.345   9.278  22.556  0.00  0.00    +0.000 OA
ATOM     20  O   UNL     1      -0.838   8.603  21.533  0.00  0.00    +0.000 OA
BRANCH  18  21
ATOM     21  C   UNL     1       1.385   8.331  20.149  0.00  0.00    +0.000 A 
ATOM     22  C   UNL     1       1.673   8.954  18.911  0.00  0.00    +0.000 A 
ATOM     23  C   UNL     1       2.561   8.356  18.003  0.00  0.00    +0.000 A 
ATOM     24  C   UNL     1       3.130   7.160  18.390  0.00  0.00    +0.000 A 
ATOM     25  C   UNL     1       2.668   6.445  19.496  0.00  0.00    +0.000 A 
ATOM     26  C   UNL     1       1.799   7.011  20.408  0.00  0.00    +0.000 A 
ATOM     27  N   UNL     1       3.437   5.249  19.634  0.00  0.00    +0.000 N 
ATOM     28  C   UNL     1       2.835   4.052  19.029  0.00  0.00    +0.000 C 
ATOM     29  C   UNL     1       4.628   5.507  18.873  0.00  0.00    +0.000 A 
ATOM     30  O   UNL     1       5.650   4.842  18.896  0.00  0.00    +0.000 OA
ATOM     31  N   UNL     1       4.297   6.526  17.960  0.00  0.00    +0.000 N 
ATOM     32  C   UNL     1       4.877   6.536  16.660  0.00  0.00    +0.000 C 
ENDBRANCH  18  21
ENDBRANCH   1  18
TORSDOF 5
ENDMDL
MODEL 6
REMARK VINA RESULT:      -6.5      2.251      4.269
REMARK  Name = 
REMARK  8 active torsions:
REMARK  status: ('A' for Active; 'I' for Inactive)
REMARK    1  A    between atoms: C_1  and  O_2
REMARK    2  A    between atoms: O_2  and  C_3
REMARK    3  A    between atoms: C_6  and  N_7
REMARK    4  A    between atoms: N_7  and  S_16
REMARK    5  A    between atoms: C_8  and  C_10
REMARK    6  A    between atoms: S_16  and  C_19
REMARK    7  A    between atoms: N_25  and  C_26
REMARK    8  A    between atoms: N_29  and  C_30
REMARK                            x       y       z     vdW  Elec       q    Type
REMARK                         _______ _______ _______ _____ _____    ______ ____
ROOT
ATOM      1  N   UNL     1       0.261  10.680  20.507  0.00  0.00    +0.000 N 
ATOM      2  C   UNL     1       1.396  11.548  20.612  0.00  0.00    +0.000 C 
ATOM      3  O   UNL     1       2.251  11.381  21.478  0.00  0.00    +0.000 OA
ENDROOT
BRANCH   1   7
ATOM      4  C   UNL     1      -2.845  10.895  17.620  0.00  0.00    +0.000 A 
ATOM      5  C   UNL     1      -2.899  11.636  18.803  0.00  0.00    +0.000 A 
ATOM      6  C   UNL     1      -1.847  11.604  19.719  0.00  0.00    +0.000 A 
ATOM      7  C   UNL     1      -0.718  10.819  19.464  0.00  0.00    +0.000 A 
ATOM      8  C   UNL     1      -0.643  10.096  18.268  0.00  0.00    +0.000 A 
ATOM      9  C   UNL     1      -1.705  10.137  17.344  0.00  0.00    +0.000 A 
BRANCH   4  11
ATOM     10  C   UNL     1      -4.979  11.894  17.257  0.00  0.00    +0.000 C 
ATOM     11  O   UNL     1      -3.982  10.960  16.867  0.00  0.00    +0.000 OA
ENDBRANCH   4  11
ENDBRANCH   1   7
BRANCH   2  12
ATOM     12  C   UNL     1       1.608  12.706  19.699  0.00  0.00    +0.000 A 
ATOM     13  C   UNL     1       2.249  12.686  18.438  0.00  0.00    +0.000 A 
ATOM     14  C   UNL     1       2.444  13.878  17.752  0.00  0.00    +0.000 A 
ATOM     15  C   UNL     1       1.967  15.058  18.306  0.00  0.00    +0.000 A 
ATOM     16  N   UNL     1       1.293  15.110  19.468  0.00  0.00    +0.000 NA
ATOM     17  C   UNL     1       1.121  13.936  20.131  0.00  0.00    +0.000 A 
ENDBRANCH   2  12
BRANCH   1  18
ATOM     18  S   UNL     1       0.355   9.079  21.163  0.00  0.00    +0.000 S 
ATOM     19  O   UNL     1       1.099   9.121  22.408  0.00  0.00    +0.000 OA
ATOM     20  O   UNL     1      -0.968   8.489  21.142  0.00  0.00    +0.000 OA
BRANCH  18  21
ATOM     21  C   UNL     1       1.393   8.164  20.022  0.00  0.00    +0.000 A 
ATOM     22  C   UNL     1       1.787   8.755  18.798  0.00  0.00    +0.000 A 
ATOM     23  C   UNL     1       2.759   8.142  17.992  0.00  0.00    +0.000 A 
ATOM     24  C   UNL     1       3.300   6.964  18.464  0.00  0.00    +0.000 A 
ATOM     25  C   UNL     1       2.745   6.274  19.542  0.00  0.00    +0.000 A 
ATOM     26  C   UNL     1       1.792   6.856  20.356  0.00  0.00    +0.000 A 
ATOM     27  N   UNL     1       3.509   5.092  19.784  0.00  0.00    +0.000 N 
ATOM     28  C   UNL     1       2.974   3.871  19.162  0.00  0.00    +0.000 C 
ATOM     29  C   UNL     1       4.762   5.341  19.127  0.00  0.00    +0.000 A 
ATOM     30  O   UNL     1       5.783   4.688  19.262  0.00  0.00    +0.000 OA
ATOM     31  N   UNL     1       4.507   6.331  18.159  0.00  0.00    +0.000 N 
ATOM     32  C   UNL     1       5.203   6.311  16.917  0.00  0.00    +0.000 C 
ENDBRANCH  18  21
ENDBRANCH   1  18
TORSDOF 5
ENDMDL
MODEL 7
REMARK VINA RESULT:      -6.5      2.510      7.820
REMARK  Name = 
REMARK  8 active torsions:
REMARK  status: ('A' for Active; 'I' for Inactive)
REMARK    1  A    between atoms: C_1  and  O_2
REMARK    2  A    between atoms: O_2  and  C_3
REMARK    3  A    between atoms: C_6  and  N_7
REMARK    4  A    between atoms: N_7  and  S_16
REMARK    5  A    between atoms: C_8  and  C_10
REMARK    6  A    between atoms: S_16  and  C_19
REMARK    7  A    between atoms: N_25  and  C_26
REMARK    8  A    between atoms: N_29  and  C_30
REMARK                            x       y       z     vdW  Elec       q    Type
REMARK                         _______ _______ _______ _____ _____    ______ ____
ROOT
ATOM      1  N   UNL     1      -0.734  11.558  19.953  0.00  0.00    +0.000 N 
ATOM      2  C   UNL     1       0.488  10.954  20.395  0.00  0.00    +0.000 C 
ATOM      3  O   UNL     1       1.043  11.317  21.429  0.00  0.00    +0.000 OA
ENDROOT
BRANCH   1   7
ATOM      4  C   UNL     1      -3.044  10.466  16.562  0.00  0.00    +0.000 A 
ATOM      5  C   UNL     1      -2.292  11.643  16.581  0.00  0.00    +0.000 A 
ATOM      6  C   UNL     1      -1.490  11.964  17.677  0.00  0.00    +0.000 A 
ATOM      7  C   UNL     1      -1.433  11.108  18.781  0.00  0.00    +0.000 A 
ATOM      8  C   UNL     1      -2.161   9.914  18.758  0.00  0.00    +0.000 A 
ATOM      9  C   UNL     1      -2.964   9.590  17.648  0.00  0.00    +0.000 A 
BRANCH   4  11
ATOM     10  C   UNL     1      -3.212  10.083  14.215  0.00  0.00    +0.000 C 
ATOM     11  O   UNL     1      -3.843  10.331  15.464  0.00  0.00    +0.000 OA
ENDBRANCH   4  11
ENDBRANCH   1   7
BRANCH   2  12
ATOM     12  C   UNL     1       1.167   9.869  19.634  0.00  0.00    +0.000 A 
ATOM     13  C   UNL     1       1.585   9.913  18.283  0.00  0.00    +0.000 A 
ATOM     14  C   UNL     1       2.124   8.775  17.697  0.00  0.00    +0.000 A 
ATOM     15  C   UNL     1       2.277   7.631  18.467  0.00  0.00    +0.000 A 
ATOM     16  N   UNL     1       1.957   7.569  19.772  0.00  0.00    +0.000 NA
ATOM     17  C   UNL     1       1.420   8.688  20.326  0.00  0.00    +0.000 A 
ENDBRANCH   2  12
BRANCH   1  18
ATOM     18  S   UNL     1      -1.753  12.351  21.109  0.00  0.00    +0.000 S 
ATOM     19  O   UNL     1      -3.060  12.569  20.518  0.00  0.00    +0.000 OA
ATOM     20  O   UNL     1      -1.649  11.655  22.375  0.00  0.00    +0.000 OA
BRANCH  18  21
ATOM     21  C   UNL     1      -1.047  13.987  21.313  0.00  0.00    +0.000 A 
ATOM     22  C   UNL     1      -0.718  14.457  22.606  0.00  0.00    +0.000 A 
ATOM     23  C   UNL     1       0.020  15.640  22.768  0.00  0.00    +0.000 A 
ATOM     24  C   UNL     1       0.405  16.291  21.614  0.00  0.00    +0.000 A 
ATOM     25  C   UNL     1      -0.116  15.954  20.365  0.00  0.00    +0.000 A 
ATOM     26  C   UNL     1      -0.840  14.792  20.176  0.00  0.00    +0.000 A 
ATOM     27  N   UNL     1       0.455  16.808  19.373  0.00  0.00    +0.000 N 
ATOM     28  C   UNL     1      -0.359  17.981  19.022  0.00  0.00    +0.000 C 
ATOM     29  C   UNL     1       1.637  17.334  19.999  0.00  0.00    +0.000 A 
ATOM     30  O   UNL     1       2.538  17.933  19.438  0.00  0.00    +0.000 OA
ATOM     31  N   UNL     1       1.434  17.208  21.387  0.00  0.00    +0.000 N 
ATOM     32  C   UNL     1       1.948  18.194  22.276  0.00  0.00    +0.000 C 
ENDBRANCH  18  21
ENDBRANCH   1  18
TORSDOF 5
ENDMDL
MODEL 8
REMARK VINA RESULT:      -6.4      2.674      4.562
REMARK  Name = 
REMARK  8 active torsions:
REMARK  status: ('A' for Active; 'I' for Inactive)
REMARK    1  A    between atoms: C_1  and  O_2
REMARK    2  A    between atoms: O_2  and  C_3
REMARK    3  A    between atoms: C_6  and  N_7
REMARK    4  A    between atoms: N_7  and  S_16
REMARK    5  A    between atoms: C_8  and  C_10
REMARK    6  A    between atoms: S_16  and  C_19
REMARK    7  A    between atoms: N_25  and  C_26
REMARK    8  A    between atoms: N_29  and  C_30
REMARK                            x       y       z     vdW  Elec       q    Type
REMARK                         _______ _______ _______ _____ _____    ______ ____
ROOT
ATOM      1  N   UNL     1       0.351  10.006  19.525  0.00  0.00    +0.000 N 
ATOM      2  C   UNL     1       0.738  10.495  20.816  0.00  0.00    +0.000 C 
ATOM      3  O   UNL     1       1.778  10.123  21.354  0.00  0.00    +0.000 OA
ENDROOT
BRANCH   1   7
ATOM      4  C   UNL     1      -3.045  11.178  17.262  0.00  0.00    +0.000 A 
ATOM      5  C   UNL     1      -2.985   9.932  17.892  0.00  0.00    +0.000 A 
ATOM      6  C   UNL     1      -1.890   9.579  18.681  0.00  0.00    +0.000 A 
ATOM      7  C   UNL     1      -0.827  10.473  18.850  0.00  0.00    +0.000 A 
ATOM      8  C   UNL     1      -0.893  11.734  18.246  0.00  0.00    +0.000 A 
ATOM      9  C   UNL     1      -2.002  12.088  17.455  0.00  0.00    +0.000 A 
BRANCH   4  11
ATOM     10  C   UNL     1      -5.308  11.895  17.040  0.00  0.00    +0.000 C 
ATOM     11  O   UNL     1      -4.134  11.346  16.457  0.00  0.00    +0.000 OA
ENDBRANCH   4  11
ENDBRANCH   1   7
BRANCH   2  12
ATOM     12  C   UNL     1      -0.089  11.463  21.588  0.00  0.00    +0.000 A 
ATOM     13  C   UNL     1       0.000  12.874  21.552  0.00  0.00    +0.000 A 
ATOM     14  C   UNL     1      -0.789  13.631  22.408  0.00  0.00    +0.000 A 
ATOM     15  C   UNL     1      -1.679  12.981  23.252  0.00  0.00    +0.000 A 
ATOM     16  N   UNL     1      -1.844  11.646  23.268  0.00  0.00    +0.000 NA
ATOM     17  C   UNL     1      -1.055  10.921  22.432  0.00  0.00    +0.000 A 
ENDBRANCH   2  12
BRANCH   1  18
ATOM     18  S   UNL     1       1.565   9.383  18.457  0.00  0.00    +0.000 S 
ATOM     19  O   UNL     1       0.946   9.027  17.193  0.00  0.00    +0.000 OA
ATOM     20  O   UNL     1       2.699  10.284  18.467  0.00  0.00    +0.000 OA
BRANCH  18  21
ATOM     21  C   UNL     1       2.080   7.829  19.186  0.00  0.00    +0.000 A 
ATOM     22  C   UNL     1       1.434   7.347  20.350  0.00  0.00    +0.000 A 
ATOM     23  C   UNL     1       1.679   6.045  20.813  0.00  0.00    +0.000 A 
ATOM     24  C   UNL     1       2.558   5.280  20.074  0.00  0.00    +0.000 A 
ATOM     25  C   UNL     1       3.360   5.833  19.075  0.00  0.00    +0.000 A 
ATOM     26  C   UNL     1       3.137   7.110  18.596  0.00  0.00    +0.000 A 
ATOM     27  N   UNL     1       4.171   4.806  18.504  0.00  0.00    +0.000 N 
ATOM     28  C   UNL     1       5.525   4.700  19.066  0.00  0.00    +0.000 C 
ATOM     29  C   UNL     1       3.505   3.586  18.872  0.00  0.00    +0.000 A 
ATOM     30  O   UNL     1       3.733   2.480  18.413  0.00  0.00    +0.000 OA
ATOM     31  N   UNL     1       2.716   3.895  19.997  0.00  0.00    +0.000 N 
ATOM     32  C   UNL     1       2.528   2.928  21.024  0.00  0.00    +0.000 C 
ENDBRANCH  18  21
ENDBRANCH   1  18
TORSDOF 5
ENDMDL
MODEL 9
REMARK VINA RESULT:      -6.2      4.182      7.175
REMARK  Name = 
REMARK  8 active torsions:
REMARK  status: ('A' for Active; 'I' for Inactive)
REMARK    1  A    between atoms: C_1  and  O_2
REMARK    2  A    between atoms: O_2  and  C_3
REMARK    3  A    between atoms: C_6  and  N_7
REMARK    4  A    between atoms: N_7  and  S_16
REMARK    5  A    between atoms: C_8  and  C_10
REMARK    6  A    between atoms: S_16  and  C_19
REMARK    7  A    between atoms: N_25  and  C_26
REMARK    8  A    between atoms: N_29  and  C_30
REMARK                            x       y       z     vdW  Elec       q    Type
REMARK                         _______ _______ _______ _____ _____    ______ ____
ROOT
ATOM      1  N   UNL     1       0.200  13.127  19.869  0.00  0.00    +0.000 N 
ATOM      2  C   UNL     1       0.908  12.354  20.846  0.00  0.00    +0.000 C 
ATOM      3  O   UNL     1       1.994  12.720  21.286  0.00  0.00    +0.000 OA
ENDROOT
BRANCH   1   7
ATOM      4  C   UNL     1      -3.649  11.774  18.693  0.00  0.00    +0.000 A 
ATOM      5  C   UNL     1      -3.472  12.563  19.832  0.00  0.00    +0.000 A 
ATOM      6  C   UNL     1      -2.211  13.051  20.178  0.00  0.00    +0.000 A 
ATOM      7  C   UNL     1      -1.099  12.751  19.386  0.00  0.00    +0.000 A 
ATOM      8  C   UNL     1      -1.273  11.984  18.228  0.00  0.00    +0.000 A 
ATOM      9  C   UNL     1      -2.547  11.499  17.879  0.00  0.00    +0.000 A 
BRANCH   4  11
ATOM     10  C   UNL     1      -5.627  11.693  17.366  0.00  0.00    +0.000 C 
ATOM     11  O   UNL     1      -4.919  11.300  18.533  0.00  0.00    +0.000 OA
ENDBRANCH   4  11
ENDBRANCH   1   7
BRANCH   2  12
ATOM     12  C   UNL     1       0.388  11.062  21.376  0.00  0.00    +0.000 A 
ATOM     13  C   UNL     1      -0.440  10.882  22.508  0.00  0.00    +0.000 A 
ATOM     14  C   UNL     1      -0.761   9.595  22.922  0.00  0.00    +0.000 A 
ATOM     15  C   UNL     1      -0.292   8.516  22.185  0.00  0.00    +0.000 A 
ATOM     16  N   UNL     1       0.440   8.647  21.065  0.00  0.00    +0.000 NA
ATOM     17  C   UNL     1       0.754   9.912  20.681  0.00  0.00    +0.000 A 
ENDBRANCH   2  12
BRANCH   1  18
ATOM     18  S   UNL     1       0.528  14.823  19.733  0.00  0.00    +0.000 S 
ATOM     19  O   UNL     1      -0.038  15.317  18.491  0.00  0.00    +0.000 OA
ATOM     20  O   UNL     1       0.176  15.467  20.982  0.00  0.00    +0.000 OA
BRANCH  18  21
ATOM     21  C   UNL     1       2.304  14.943  19.524  0.00  0.00    +0.000 A 
ATOM     22  C   UNL     1       2.943  14.217  18.490  0.00  0.00    +0.000 A 
ATOM     23  C   UNL     1       4.292  14.456  18.181  0.00  0.00    +0.000 A 
ATOM     24  C   UNL     1       4.934  15.427  18.923  0.00  0.00    +0.000 A 
ATOM     25  C   UNL     1       4.373  15.965  20.081  0.00  0.00    +0.000 A 
ATOM     26  C   UNL     1       3.047  15.752  20.405  0.00  0.00    +0.000 A 
ATOM     27  N   UNL     1       5.273  16.927  20.634  0.00  0.00    +0.000 N 
ATOM     28  C   UNL     1       6.148  16.415  21.699  0.00  0.00    +0.000 C 
ATOM     29  C   UNL     1       6.147  17.258  19.543  0.00  0.00    +0.000 A 
ATOM     30  O   UNL     1       6.925  18.196  19.509  0.00  0.00    +0.000 OA
ATOM     31  N   UNL     1       6.077  16.179  18.642  0.00  0.00    +0.000 N 
ATOM     32  C   UNL     1       7.230  15.788  17.905  0.00  0.00    +0.000 C 
ENDBRANCH  18  21
ENDBRANCH   1  18
TORSDOF 5
ENDMDL
