MODEL 1
REMARK VINA RESULT:      -8.8      0.000      0.000
REMARK  Name = 
REMARK  7 active torsions:
REMARK  status: ('A' for Active; 'I' for Inactive)
REMARK    1  A    between atoms: C_1  and  C_2
REMARK    2  A    between atoms: C_3  and  C_4
REMARK    3  A    between atoms: C_13  and  S_14
REMARK    4  A    between atoms: S_14  and  C_15
REMARK    5  A    between atoms: C_15  and  C_16
REMARK    6  A    between atoms: C_15  and  C_24
REMARK    7  A    between atoms: C_16  and  C_18
REMARK                            x       y       z     vdW  Elec       q    Type
REMARK                         _______ _______ _______ _____ _____    ______ ____
ROOT
ATOM      1  C   UNL     1      -0.925  12.332  19.874  0.00  0.00    +0.000 C 
ATOM      2  C   UNL     1      -0.563  11.294  20.898  0.00  0.00    +0.000 A 
ATOM      3  C   UNL     1      -0.865  11.327  22.264  0.00  0.00    +0.000 A 
ATOM      4  S   UNL     1      -0.104  10.010  23.092  0.00  0.00    +0.000 S 
ATOM      5  C   UNL     1       0.515   9.369  21.668  0.00  0.00    +0.000 A 
ATOM      6  N   UNL     1       1.270   8.264  21.565  0.00  0.00    +0.000 N 
ATOM      7  C   UNL     1       1.726   7.888  20.333  0.00  0.00    +0.000 A 
ATOM      8  N   UNL     1       1.441   8.492  19.227  0.00  0.00    +0.000 NA
ATOM      9  C   UNL     1       0.579   9.578  19.234  0.00  0.00    +0.000 A 
ATOM     10  O   UNL     1       0.168  10.093  18.202  0.00  0.00    +0.000 OA
ATOM     11  C   UNL     1       0.171  10.089  20.554  0.00  0.00    +0.000 A 
ATOM     12  H   UNL     1       1.549   7.719  22.372  0.00  0.00    +0.000 HD
ENDROOT
BRANCH   3  13
ATOM     13  C   UNL     1      -1.726  12.243  23.050  0.00  0.00    +0.000 A 
ATOM     14  C   UNL     1      -1.284  13.539  23.366  0.00  0.00    +0.000 A 
ATOM     15  C   UNL     1      -2.103  14.440  24.054  0.00  0.00    +0.000 A 
ATOM     16  C   UNL     1      -3.396  14.074  24.413  0.00  0.00    +0.000 A 
ATOM     17  C   UNL     1      -3.860  12.799  24.107  0.00  0.00    +0.000 A 
ATOM     18  C   UNL     1      -3.028  11.888  23.446  0.00  0.00    +0.000 A 
ENDBRANCH   3  13
BRANCH   7  19
ATOM     19  S   UNL     1       2.752   6.464  20.361  0.00  0.00    +0.000 S 
BRANCH  19  20
ATOM     20  C   UNL     1       2.678   5.870  18.619  0.00  0.00    +0.000 C 
BRANCH  20  21
ATOM     21  C   UNL     1       2.827   4.354  18.525  0.00  0.00    +0.000 A 
ATOM     22  C   UNL     1       3.607   3.668  19.473  0.00  0.00    +0.000 A 
ATOM     23  C   UNL     1       3.718   2.278  19.424  0.00  0.00    +0.000 A 
ATOM     24  C   UNL     1       3.051   1.556  18.437  0.00  0.00    +0.000 A 
ATOM     25  C   UNL     1       2.278   2.217  17.494  0.00  0.00    +0.000 A 
ATOM     26  C   UNL     1       2.165   3.608  17.535  0.00  0.00    +0.000 A 
ENDBRANCH  20  21
BRANCH  20  27
ATOM     27  C   UNL     1       3.777   6.566  17.777  0.00  0.00    +0.000 C 
ATOM     28  O   UNL     1       3.698   7.750  17.430  0.00  0.00    +0.000 OA
BRANCH  27  29
ATOM     29  C   UNL     1       5.021   5.843  17.350  0.00  0.00    +0.000 A 
ATOM     30  C   UNL     1       5.150   5.157  16.140  0.00  0.00    +0.000 A 
ATOM     31  C   UNL     1       6.372   4.563  15.797  0.00  0.00    +0.000 A 
ATOM     32  C   UNL     1       7.462   4.631  16.663  0.00  0.00    +0.000 A 
ATOM     33  C   UNL     1       7.335   5.280  17.886  0.00  0.00    +0.000 A 
ATOM     34  C   UNL     1       6.123   5.879  18.227  0.00  0.00    +0.000 A 
ENDBRANCH  27  29
ENDBRANCH  20  27
ENDBRANCH  19  20
ENDBRANCH   7  19
TORSDOF 6
ENDMDL
MODEL 2
REMARK VINA RESULT:      -8.8      2.144      3.912
REMARK  Name = 
REMARK  7 active torsions:
REMARK  status: ('A' for Active; 'I' for Inactive)
REMARK    1  A    between atoms: C_1  and  C_2
REMARK    2  A    between atoms: C_3  and  C_4
REMARK    3  A    between atoms: C_13  and  S_14
REMARK    4  A    between atoms: S_14  and  C_15
REMARK    5  A    between atoms: C_15  and  C_16
REMARK    6  A    between atoms: C_15  and  C_24
REMARK    7  A    between atoms: C_16  and  C_18
REMARK                            x       y       z     vdW  Elec       q    Type
REMARK                         _______ _______ _______ _____ _____    ______ ____
ROOT
ATOM      1  C   UNL     1      -1.024  10.606  22.864  0.00  0.00    +0.000 C 
ATOM      2  C   UNL     1      -0.709  10.904  21.426  0.00  0.00    +0.000 A 
ATOM      3  C   UNL     1      -1.273  11.916  20.640  0.00  0.00    +0.000 A 
ATOM      4  S   UNL     1      -0.744  11.781  18.997  0.00  0.00    +0.000 S 
ATOM      5  C   UNL     1       0.273  10.491  19.346  0.00  0.00    +0.000 A 
ATOM      6  N   UNL     1       1.046   9.836  18.465  0.00  0.00    +0.000 N 
ATOM      7  C   UNL     1       1.796   8.781  18.901  0.00  0.00    +0.000 A 
ATOM      8  N   UNL     1       1.865   8.384  20.129  0.00  0.00    +0.000 NA
ATOM      9  C   UNL     1       1.181   9.074  21.118  0.00  0.00    +0.000 A 
ATOM     10  O   UNL     1       1.327   8.826  22.308  0.00  0.00    +0.000 OA
ATOM     11  C   UNL     1       0.263  10.135  20.670  0.00  0.00    +0.000 A 
ATOM     12  H   UNL     1       1.064  10.070  17.480  0.00  0.00    +0.000 HD
ENDROOT
BRANCH   3  13
ATOM     13  C   UNL     1      -2.167  13.044  20.997  0.00  0.00    +0.000 A 
ATOM     14  C   UNL     1      -1.634  14.312  21.279  0.00  0.00    +0.000 A 
ATOM     15  C   UNL     1      -2.462  15.404  21.559  0.00  0.00    +0.000 A 
ATOM     16  C   UNL     1      -3.846  15.257  21.530  0.00  0.00    +0.000 A 
ATOM     17  C   UNL     1      -4.398  14.012  21.247  0.00  0.00    +0.000 A 
ATOM     18  C   UNL     1      -3.567  12.914  20.998  0.00  0.00    +0.000 A 
ENDBRANCH   3  13
BRANCH   7  19
ATOM     19  S   UNL     1       2.705   7.984  17.628  0.00  0.00    +0.000 S 
BRANCH  19  20
ATOM     20  C   UNL     1       3.336   6.468  18.463  0.00  0.00    +0.000 C 
BRANCH  20  21
ATOM     21  C   UNL     1       4.650   5.984  17.853  0.00  0.00    +0.000 A 
ATOM     22  C   UNL     1       5.643   5.431  18.681  0.00  0.00    +0.000 A 
ATOM     23  C   UNL     1       6.831   4.947  18.132  0.00  0.00    +0.000 A 
ATOM     24  C   UNL     1       7.040   5.001  16.756  0.00  0.00    +0.000 A 
ATOM     25  C   UNL     1       6.071   5.544  15.926  0.00  0.00    +0.000 A 
ATOM     26  C   UNL     1       4.881   6.034  16.468  0.00  0.00    +0.000 A 
ENDBRANCH  20  21
BRANCH  20  27
ATOM     27  C   UNL     1       2.271   5.344  18.392  0.00  0.00    +0.000 C 
ATOM     28  O   UNL     1       1.546   5.178  17.405  0.00  0.00    +0.000 OA
BRANCH  27  29
ATOM     29  C   UNL     1       2.075   4.371  19.517  0.00  0.00    +0.000 A 
ATOM     30  C   UNL     1       2.440   4.624  20.842  0.00  0.00    +0.000 A 
ATOM     31  C   UNL     1       2.160   3.681  21.839  0.00  0.00    +0.000 A 
ATOM     32  C   UNL     1       1.536   2.475  21.521  0.00  0.00    +0.000 A 
ATOM     33  C   UNL     1       1.201   2.197  20.201  0.00  0.00    +0.000 A 
ATOM     34  C   UNL     1       1.471   3.137  19.207  0.00  0.00    +0.000 A 
ENDBRANCH  27  29
ENDBRANCH  20  27
ENDBRANCH  19  20
ENDBRANCH   7  19
TORSDOF 6
ENDMDL
MODEL 3
REMARK VINA RESULT:      -8.6      2.048      3.915
REMARK  Name = 
REMARK  7 active torsions:
REMARK  status: ('A' for Active; 'I' for Inactive)
REMARK    1  A    between atoms: C_1  and  C_2
REMARK    2  A    between atoms: C_3  and  C_4
REMARK    3  A    between atoms: C_13  and  S_14
REMARK    4  A    between atoms: S_14  and  C_15
REMARK    5  A    between atoms: C_15  and  C_16
REMARK    6  A    between atoms: C_15  and  C_24
REMARK    7  A    between atoms: C_16  and  C_18
REMARK                            x       y       z     vdW  Elec       q    Type
REMARK                         _______ _______ _______ _____ _____    ______ ____
ROOT
ATOM      1  C   UNL     1      -0.826  10.434  22.842  0.00  0.00    +0.000 C 
ATOM      2  C   UNL     1      -0.548  10.744  21.399  0.00  0.00    +0.000 A 
ATOM      3  C   UNL     1      -1.097  11.790  20.649  0.00  0.00    +0.000 A 
ATOM      4  S   UNL     1      -0.629  11.664  18.987  0.00  0.00    +0.000 S 
ATOM      5  C   UNL     1       0.348  10.329  19.281  0.00  0.00    +0.000 A 
ATOM      6  N   UNL     1       1.065   9.660  18.364  0.00  0.00    +0.000 N 
ATOM      7  C   UNL     1       1.787   8.570  18.758  0.00  0.00    +0.000 A 
ATOM      8  N   UNL     1       1.881   8.149  19.976  0.00  0.00    +0.000 NA
ATOM      9  C   UNL     1       1.258   8.848  20.999  0.00  0.00    +0.000 A 
ATOM     10  O   UNL     1       1.434   8.574  22.179  0.00  0.00    +0.000 OA
ATOM     11  C   UNL     1       0.368   9.951  20.599  0.00  0.00    +0.000 A 
ATOM     12  H   UNL     1       1.060   9.910  17.383  0.00  0.00    +0.000 HD
ENDROOT
BRANCH   3  13
ATOM     13  C   UNL     1      -1.934  12.946  21.054  0.00  0.00    +0.000 A 
ATOM     14  C   UNL     1      -3.333  12.879  20.958  0.00  0.00    +0.000 A 
ATOM     15  C   UNL     1      -4.144  13.934  21.390  0.00  0.00    +0.000 A 
ATOM     16  C   UNL     1      -3.571  15.067  21.959  0.00  0.00    +0.000 A 
ATOM     17  C   UNL     1      -2.187  15.155  22.072  0.00  0.00    +0.000 A 
ATOM     18  C   UNL     1      -1.377  14.112  21.609  0.00  0.00    +0.000 A 
ENDBRANCH   3  13
BRANCH   7  19
ATOM     19  S   UNL     1       2.621   7.759  17.443  0.00  0.00    +0.000 S 
BRANCH  19  20
ATOM     20  C   UNL     1       3.372   6.297  18.272  0.00  0.00    +0.000 C 
BRANCH  20  21
ATOM     21  C   UNL     1       4.623   5.806  17.546  0.00  0.00    +0.000 A 
ATOM     22  C   UNL     1       4.540   4.699  16.683  0.00  0.00    +0.000 A 
ATOM     23  C   UNL     1       5.666   4.266  15.980  0.00  0.00    +0.000 A 
ATOM     24  C   UNL     1       6.881   4.933  16.123  0.00  0.00    +0.000 A 
ATOM     25  C   UNL     1       6.978   6.026  16.971  0.00  0.00    +0.000 A 
ATOM     26  C   UNL     1       5.858   6.463  17.680  0.00  0.00    +0.000 A 
ENDBRANCH  20  21
BRANCH  20  27
ATOM     27  C   UNL     1       2.331   5.152  18.370  0.00  0.00    +0.000 C 
ATOM     28  O   UNL     1       1.498   4.935  17.483  0.00  0.00    +0.000 OA
BRANCH  27  29
ATOM     29  C   UNL     1       2.290   4.221  19.547  0.00  0.00    +0.000 A 
ATOM     30  C   UNL     1       1.164   4.028  20.351  0.00  0.00    +0.000 A 
ATOM     31  C   UNL     1       1.198   3.090  21.391  0.00  0.00    +0.000 A 
ATOM     32  C   UNL     1       2.355   2.357  21.648  0.00  0.00    +0.000 A 
ATOM     33  C   UNL     1       3.493   2.566  20.877  0.00  0.00    +0.000 A 
ATOM     34  C   UNL     1       3.460   3.493  19.836  0.00  0.00    +0.000 A 
ENDBRANCH  27  29
ENDBRANCH  20  27
ENDBRANCH  19  20
ENDBRANCH   7  19
TORSDOF 6
ENDMDL
MODEL 4
REMARK VINA RESULT:      -8.6      2.094      3.777
REMARK  Name = 
REMARK  7 active torsions:
REMARK  status: ('A' for Active; 'I' for Inactive)
REMARK    1  A    between atoms: C_1  and  C_2
REMARK    2  A    between atoms: C_3  and  C_4
REMARK    3  A    between atoms: C_13  and  S_14
REMARK    4  A    between atoms: S_14  and  C_15
REMARK    5  A    between atoms: C_15  and  C_16
REMARK    6  A    between atoms: C_15  and  C_24
REMARK    7  A    between atoms: C_16  and  C_18
REMARK                            x       y       z     vdW  Elec       q    Type
REMARK                         _______ _______ _______ _____ _____    ______ ____
ROOT
ATOM      1  C   UNL     1      -0.891  10.419  22.926  0.00  0.00    +0.000 C 
ATOM      2  C   UNL     1      -0.615  10.764  21.490  0.00  0.00    +0.000 A 
ATOM      3  C   UNL     1      -1.176  11.820  20.762  0.00  0.00    +0.000 A 
ATOM      4  S   UNL     1      -0.705  11.734  19.098  0.00  0.00    +0.000 S 
ATOM      5  C   UNL     1       0.286  10.404  19.365  0.00  0.00    +0.000 A 
ATOM      6  N   UNL     1       1.011   9.763  18.434  0.00  0.00    +0.000 N 
ATOM      7  C   UNL     1       1.745   8.673  18.805  0.00  0.00    +0.000 A 
ATOM      8  N   UNL     1       1.844   8.227  20.014  0.00  0.00    +0.000 NA
ATOM      9  C   UNL     1       1.212   8.897  21.051  0.00  0.00    +0.000 A 
ATOM     10  O   UNL     1       1.390   8.600  22.225  0.00  0.00    +0.000 OA
ATOM     11  C   UNL     1       0.310   9.999  20.674  0.00  0.00    +0.000 A 
ATOM     12  H   UNL     1       1.004  10.034  17.459  0.00  0.00    +0.000 HD
ENDROOT
BRANCH   3  13
ATOM     13  C   UNL     1      -2.026  12.957  21.191  0.00  0.00    +0.000 A 
ATOM     14  C   UNL     1      -1.459  14.220  21.425  0.00  0.00    +0.000 A 
ATOM     15  C   UNL     1      -2.250  15.321  21.771  0.00  0.00    +0.000 A 
ATOM     16  C   UNL     1      -3.632  15.186  21.860  0.00  0.00    +0.000 A 
ATOM     17  C   UNL     1      -4.219  13.947  21.627  0.00  0.00    +0.000 A 
ATOM     18  C   UNL     1      -3.422  12.840  21.312  0.00  0.00    +0.000 A 
ENDBRANCH   3  13
BRANCH   7  19
ATOM     19  S   UNL     1       2.589   7.900  17.473  0.00  0.00    +0.000 S 
BRANCH  19  20
ATOM     20  C   UNL     1       3.238   6.356  18.239  0.00  0.00    +0.000 C 
BRANCH  20  21
ATOM     21  C   UNL     1       4.492   5.849  17.530  0.00  0.00    +0.000 A 
ATOM     22  C   UNL     1       5.655   6.639  17.517  0.00  0.00    +0.000 A 
ATOM     23  C   UNL     1       6.820   6.170  16.909  0.00  0.00    +0.000 A 
ATOM     24  C   UNL     1       6.842   4.910  16.315  0.00  0.00    +0.000 A 
ATOM     25  C   UNL     1       5.704   4.119  16.319  0.00  0.00    +0.000 A 
ATOM     26  C   UNL     1       4.533   4.583  16.922  0.00  0.00    +0.000 A 
ENDBRANCH  20  21
BRANCH  20  27
ATOM     27  C   UNL     1       2.141   5.261  18.229  0.00  0.00    +0.000 C 
ATOM     28  O   UNL     1       1.358   5.115  17.284  0.00  0.00    +0.000 OA
BRANCH  27  29
ATOM     29  C   UNL     1       1.983   4.292  19.364  0.00  0.00    +0.000 A 
ATOM     30  C   UNL     1       1.549   2.973  19.211  0.00  0.00    +0.000 A 
ATOM     31  C   UNL     1       1.492   2.120  20.321  0.00  0.00    +0.000 A 
ATOM     32  C   UNL     1       1.846   2.580  21.589  0.00  0.00    +0.000 A 
ATOM     33  C   UNL     1       2.245   3.901  21.760  0.00  0.00    +0.000 A 
ATOM     34  C   UNL     1       2.310   4.750  20.655  0.00  0.00    +0.000 A 
ENDBRANCH  27  29
ENDBRANCH  20  27
ENDBRANCH  19  20
ENDBRANCH   7  19
TORSDOF 6
ENDMDL
MODEL 5
REMARK VINA RESULT:      -8.5      0.411      1.485
REMARK  Name = 
REMARK  7 active torsions:
REMARK  status: ('A' for Active; 'I' for Inactive)
REMARK    1  A    between atoms: C_1  and  C_2
REMARK    2  A    between atoms: C_3  and  C_4
REMARK    3  A    between atoms: C_13  and  S_14
REMARK    4  A    between atoms: S_14  and  C_15
REMARK    5  A    between atoms: C_15  and  C_16
REMARK    6  A    between atoms: C_15  and  C_24
REMARK    7  A    between atoms: C_16  and  C_18
REMARK                            x       y       z     vdW  Elec       q    Type
REMARK                         _______ _______ _______ _____ _____    ______ ____
ROOT
ATOM      1  C   UNL     1      -0.410  12.534  19.592  0.00  0.00    +0.000 C 
ATOM      2  C   UNL     1      -0.296  11.439  20.614  0.00  0.00    +0.000 A 
ATOM      3  C   UNL     1      -0.801  11.459  21.919  0.00  0.00    +0.000 A 
ATOM      4  S   UNL     1      -0.287  10.058  22.796  0.00  0.00    +0.000 S 
ATOM      5  C   UNL     1       0.488   9.406  21.457  0.00  0.00    +0.000 A 
ATOM      6  N   UNL     1       1.157   8.242  21.423  0.00  0.00    +0.000 N 
ATOM      7  C   UNL     1       1.764   7.863  20.259  0.00  0.00    +0.000 A 
ATOM      8  N   UNL     1       1.704   8.521  19.149  0.00  0.00    +0.000 NA
ATOM      9  C   UNL     1       0.943   9.678  19.071  0.00  0.00    +0.000 A 
ATOM     10  O   UNL     1       0.739  10.256  18.011  0.00  0.00    +0.000 OA
ATOM     11  C   UNL     1       0.381  10.185  20.334  0.00  0.00    +0.000 A 
ATOM     12  H   UNL     1       1.262   7.652  22.239  0.00  0.00    +0.000 HD
ENDROOT
BRANCH   3  13
ATOM     13  C   UNL     1      -1.694  12.425  22.604  0.00  0.00    +0.000 A 
ATOM     14  C   UNL     1      -2.721  11.970  23.447  0.00  0.00    +0.000 A 
ATOM     15  C   UNL     1      -3.536  12.864  24.150  0.00  0.00    +0.000 A 
ATOM     16  C   UNL     1      -3.318  14.234  24.049  0.00  0.00    +0.000 A 
ATOM     17  C   UNL     1      -2.303  14.710  23.226  0.00  0.00    +0.000 A 
ATOM     18  C   UNL     1      -1.509  13.815  22.499  0.00  0.00    +0.000 A 
ENDBRANCH   3  13
BRANCH   7  19
ATOM     19  S   UNL     1       2.653   6.354  20.382  0.00  0.00    +0.000 S 
BRANCH  19  20
ATOM     20  C   UNL     1       2.698   5.762  18.639  0.00  0.00    +0.000 C 
BRANCH  20  21
ATOM     21  C   UNL     1       2.894   4.249  18.554  0.00  0.00    +0.000 A 
ATOM     22  C   UNL     1       2.397   3.542  17.445  0.00  0.00    +0.000 A 
ATOM     23  C   UNL     1       2.605   2.167  17.334  0.00  0.00    +0.000 A 
ATOM     24  C   UNL     1       3.313   1.483  18.319  0.00  0.00    +0.000 A 
ATOM     25  C   UNL     1       3.809   2.166  19.420  0.00  0.00    +0.000 A 
ATOM     26  C   UNL     1       3.602   3.541  19.540  0.00  0.00    +0.000 A 
ENDBRANCH  20  21
BRANCH  20  27
ATOM     27  C   UNL     1       3.827   6.488  17.864  0.00  0.00    +0.000 C 
ATOM     28  O   UNL     1       3.682   7.619  17.387  0.00  0.00    +0.000 OA
BRANCH  27  29
ATOM     29  C   UNL     1       5.177   5.863  17.666  0.00  0.00    +0.000 A 
ATOM     30  C   UNL     1       6.177   5.838  18.642  0.00  0.00    +0.000 A 
ATOM     31  C   UNL     1       7.385   5.176  18.391  0.00  0.00    +0.000 A 
ATOM     32  C   UNL     1       7.613   4.555  17.163  0.00  0.00    +0.000 A 
ATOM     33  C   UNL     1       6.640   4.604  16.172  0.00  0.00    +0.000 A 
ATOM     34  C   UNL     1       5.433   5.256  16.421  0.00  0.00    +0.000 A 
ENDBRANCH  27  29
ENDBRANCH  20  27
ENDBRANCH  19  20
ENDBRANCH   7  19
TORSDOF 6
ENDMDL
MODEL 6
REMARK VINA RESULT:      -8.4      2.036      3.940
REMARK  Name = 
REMARK  7 active torsions:
REMARK  status: ('A' for Active; 'I' for Inactive)
REMARK    1  A    between atoms: C_1  and  C_2
REMARK    2  A    between atoms: C_3  and  C_4
REMARK    3  A    between atoms: C_13  and  S_14
REMARK    4  A    between atoms: S_14  and  C_15
REMARK    5  A    between atoms: C_15  and  C_16
REMARK    6  A    between atoms: C_15  and  C_24
REMARK    7  A    between atoms: C_16  and  C_18
REMARK                            x       y       z     vdW  Elec       q    Type
REMARK                         _______ _______ _______ _____ _____    ______ ____
ROOT
ATOM      1  C   UNL     1      -0.807  10.626  22.910  0.00  0.00    +0.000 C 
ATOM      2  C   UNL     1      -0.248  11.038  21.578  0.00  0.00    +0.000 A 
ATOM      3  C   UNL     1      -0.436  12.268  20.938  0.00  0.00    +0.000 A 
ATOM      4  S   UNL     1       0.245  12.240  19.346  0.00  0.00    +0.000 S 
ATOM      5  C   UNL     1       0.853  10.687  19.547  0.00  0.00    +0.000 A 
ATOM      6  N   UNL     1       1.542   9.987  18.632  0.00  0.00    +0.000 N 
ATOM      7  C   UNL     1       1.942   8.717  18.938  0.00  0.00    +0.000 A 
ATOM      8  N   UNL     1       1.754   8.139  20.078  0.00  0.00    +0.000 NA
ATOM      9  C   UNL     1       1.145   8.834  21.112  0.00  0.00    +0.000 A 
ATOM     10  O   UNL     1       1.073   8.383  22.248  0.00  0.00    +0.000 OA
ATOM     11  C   UNL     1       0.587  10.156  20.782  0.00  0.00    +0.000 A 
ATOM     12  H   UNL     1       1.742  10.350  17.709  0.00  0.00    +0.000 HD
ENDROOT
BRANCH   3  13
ATOM     13  C   UNL     1      -1.056  13.529  21.411  0.00  0.00    +0.000 A 
ATOM     14  C   UNL     1      -1.808  14.326  20.533  0.00  0.00    +0.000 A 
ATOM     15  C   UNL     1      -2.452  15.487  20.973  0.00  0.00    +0.000 A 
ATOM     16  C   UNL     1      -2.383  15.859  22.312  0.00  0.00    +0.000 A 
ATOM     17  C   UNL     1      -1.649  15.084  23.204  0.00  0.00    +0.000 A 
ATOM     18  C   UNL     1      -0.981  13.939  22.754  0.00  0.00    +0.000 A 
ENDBRANCH   3  13
BRANCH   7  19
ATOM     19  S   UNL     1       2.775   7.901  17.624  0.00  0.00    +0.000 S 
BRANCH  19  20
ATOM     20  C   UNL     1       3.339   6.333  18.408  0.00  0.00    +0.000 C 
BRANCH  20  21
ATOM     21  C   UNL     1       4.636   5.818  17.787  0.00  0.00    +0.000 A 
ATOM     22  C   UNL     1       4.852   5.956  16.405  0.00  0.00    +0.000 A 
ATOM     23  C   UNL     1       6.050   5.529  15.831  0.00  0.00    +0.000 A 
ATOM     24  C   UNL     1       7.046   4.966  16.626  0.00  0.00    +0.000 A 
ATOM     25  C   UNL     1       6.849   4.823  17.991  0.00  0.00    +0.000 A 
ATOM     26  C   UNL     1       5.651   5.245  18.572  0.00  0.00    +0.000 A 
ENDBRANCH  20  21
BRANCH  20  27
ATOM     27  C   UNL     1       2.230   5.256  18.293  0.00  0.00    +0.000 C 
ATOM     28  O   UNL     1       1.538   5.122  17.278  0.00  0.00    +0.000 OA
BRANCH  27  29
ATOM     29  C   UNL     1       1.948   4.292  19.408  0.00  0.00    +0.000 A 
ATOM     30  C   UNL     1       1.218   3.111  19.253  0.00  0.00    +0.000 A 
ATOM     31  C   UNL     1       1.058   2.238  20.337  0.00  0.00    +0.000 A 
ATOM     32  C   UNL     1       1.604   2.546  21.583  0.00  0.00    +0.000 A 
ATOM     33  C   UNL     1       2.302   3.735  21.758  0.00  0.00    +0.000 A 
ATOM     34  C   UNL     1       2.469   4.603  20.679  0.00  0.00    +0.000 A 
ENDBRANCH  27  29
ENDBRANCH  20  27
ENDBRANCH  19  20
ENDBRANCH   7  19
TORSDOF 6
ENDMDL
MODEL 7
REMARK VINA RESULT:      -8.4      1.974      3.833
REMARK  Name = 
REMARK  7 active torsions:
REMARK  status: ('A' for Active; 'I' for Inactive)
REMARK    1  A    between atoms: C_1  and  C_2
REMARK    2  A    between atoms: C_3  and  C_4
REMARK    3  A    between atoms: C_13  and  S_14
REMARK    4  A    between atoms: S_14  and  C_15
REMARK    5  A    between atoms: C_15  and  C_16
REMARK    6  A    between atoms: C_15  and  C_24
REMARK    7  A    between atoms: C_16  and  C_18
REMARK                            x       y       z     vdW  Elec       q    Type
REMARK                         _______ _______ _______ _____ _____    ______ ____
ROOT
ATOM      1  C   UNL     1      -0.778  10.131  23.087  0.00  0.00    +0.000 C 
ATOM      2  C   UNL     1      -0.511  10.532  21.664  0.00  0.00    +0.000 A 
ATOM      3  C   UNL     1      -1.066  11.624  20.986  0.00  0.00    +0.000 A 
ATOM      4  S   UNL     1      -0.612  11.602  19.315  0.00  0.00    +0.000 S 
ATOM      5  C   UNL     1       0.367  10.252  19.517  0.00  0.00    +0.000 A 
ATOM      6  N   UNL     1       1.076   9.643  18.553  0.00  0.00    +0.000 N 
ATOM      7  C   UNL     1       1.801   8.529  18.872  0.00  0.00    +0.000 A 
ATOM      8  N   UNL     1       1.905   8.033  20.060  0.00  0.00    +0.000 NA
ATOM      9  C   UNL     1       1.290   8.665  21.130  0.00  0.00    +0.000 A 
ATOM     10  O   UNL     1       1.475   8.317  22.289  0.00  0.00    +0.000 OA
ATOM     11  C   UNL     1       0.398   9.792  20.807  0.00  0.00    +0.000 A 
ATOM     12  H   UNL     1       1.063   9.954  17.590  0.00  0.00    +0.000 HD
ENDROOT
BRANCH   3  13
ATOM     13  C   UNL     1      -1.899  12.751  21.470  0.00  0.00    +0.000 A 
ATOM     14  C   UNL     1      -1.875  13.123  22.824  0.00  0.00    +0.000 A 
ATOM     15  C   UNL     1      -2.606  14.221  23.290  0.00  0.00    +0.000 A 
ATOM     16  C   UNL     1      -3.353  14.990  22.403  0.00  0.00    +0.000 A 
ATOM     17  C   UNL     1      -3.389  14.646  21.056  0.00  0.00    +0.000 A 
ATOM     18  C   UNL     1      -2.682  13.529  20.597  0.00  0.00    +0.000 A 
ENDBRANCH   3  13
BRANCH   7  19
ATOM     19  S   UNL     1       2.624   7.804  17.501  0.00  0.00    +0.000 S 
BRANCH  19  20
ATOM     20  C   UNL     1       3.420   6.317  18.240  0.00  0.00    +0.000 C 
BRANCH  20  21
ATOM     21  C   UNL     1       4.636   5.860  17.437  0.00  0.00    +0.000 A 
ATOM     22  C   UNL     1       4.531   4.751  16.579  0.00  0.00    +0.000 A 
ATOM     23  C   UNL     1       5.622   4.349  15.808  0.00  0.00    +0.000 A 
ATOM     24  C   UNL     1       6.825   5.048  15.878  0.00  0.00    +0.000 A 
ATOM     25  C   UNL     1       6.945   6.143  16.719  0.00  0.00    +0.000 A 
ATOM     26  C   UNL     1       5.859   6.550  17.496  0.00  0.00    +0.000 A 
ENDBRANCH  20  21
BRANCH  20  27
ATOM     27  C   UNL     1       2.389   5.164  18.346  0.00  0.00    +0.000 C 
ATOM     28  O   UNL     1       1.494   4.996  17.511  0.00  0.00    +0.000 OA
BRANCH  27  29
ATOM     29  C   UNL     1       2.436   4.164  19.464  0.00  0.00    +0.000 A 
ATOM     30  C   UNL     1       3.549   3.373  19.759  0.00  0.00    +0.000 A 
ATOM     31  C   UNL     1       3.524   2.511  20.863  0.00  0.00    +0.000 A 
ATOM     32  C   UNL     1       2.387   2.416  21.665  0.00  0.00    +0.000 A 
ATOM     33  C   UNL     1       1.261   3.172  21.360  0.00  0.00    +0.000 A 
ATOM     34  C   UNL     1       1.285   4.037  20.266  0.00  0.00    +0.000 A 
ENDBRANCH  27  29
ENDBRANCH  20  27
ENDBRANCH  19  20
ENDBRANCH   7  19
TORSDOF 6
ENDMDL
MODEL 8
REMARK VINA RESULT:      -8.4      2.830      9.782
REMARK  Name = 
REMARK  7 active torsions:
REMARK  status: ('A' for Active; 'I' for Inactive)
REMARK    1  A    between atoms: C_1  and  C_2
REMARK    2  A    between atoms: C_3  and  C_4
REMARK    3  A    between atoms: C_13  and  S_14
REMARK    4  A    between atoms: S_14  and  C_15
REMARK    5  A    between atoms: C_15  and  C_16
REMARK    6  A    between atoms: C_15  and  C_24
REMARK    7  A    between atoms: C_16  and  C_18
REMARK                            x       y       z     vdW  Elec       q    Type
REMARK                         _______ _______ _______ _____ _____    ______ ____
ROOT
ATOM      1  C   UNL     1       4.171   4.103  19.545  0.00  0.00    +0.000 C 
ATOM      2  C   UNL     1       3.751   5.410  18.936  0.00  0.00    +0.000 A 
ATOM      3  C   UNL     1       4.247   5.980  17.758  0.00  0.00    +0.000 A 
ATOM      4  S   UNL     1       3.604   7.571  17.529  0.00  0.00    +0.000 S 
ATOM      5  C   UNL     1       2.627   7.458  18.891  0.00  0.00    +0.000 A 
ATOM      6  N   UNL     1       1.800   8.412  19.348  0.00  0.00    +0.000 N 
ATOM      7  C   UNL     1       1.093   8.179  20.493  0.00  0.00    +0.000 A 
ATOM      8  N   UNL     1       1.116   7.073  21.161  0.00  0.00    +0.000 NA
ATOM      9  C   UNL     1       1.862   6.000  20.696  0.00  0.00    +0.000 A 
ATOM     10  O   UNL     1       1.804   4.892  21.212  0.00  0.00    +0.000 OA
ATOM     11  C   UNL     1       2.735   6.255  19.538  0.00  0.00    +0.000 A 
ATOM     12  H   UNL     1       1.709   9.314  18.897  0.00  0.00    +0.000 HD
ENDROOT
BRANCH   3  13
ATOM     13  C   UNL     1       5.154   5.436  16.718  0.00  0.00    +0.000 A 
ATOM     14  C   UNL     1       6.527   5.293  16.975  0.00  0.00    +0.000 A 
ATOM     15  C   UNL     1       7.389   4.726  16.030  0.00  0.00    +0.000 A 
ATOM     16  C   UNL     1       6.888   4.259  14.819  0.00  0.00    +0.000 A 
ATOM     17  C   UNL     1       5.531   4.384  14.543  0.00  0.00    +0.000 A 
ATOM     18  C   UNL     1       4.675   4.980  15.476  0.00  0.00    +0.000 A 
ENDBRANCH   3  13
BRANCH   7  19
ATOM     19  S   UNL     1       0.104   9.536  21.004  0.00  0.00    +0.000 S 
BRANCH  19  20
ATOM     20  C   UNL     1       0.041  10.589  19.494  0.00  0.00    +0.000 C 
BRANCH  20  21
ATOM     21  C   UNL     1       1.071  11.716  19.539  0.00  0.00    +0.000 A 
ATOM     22  C   UNL     1       1.655  12.176  18.346  0.00  0.00    +0.000 A 
ATOM     23  C   UNL     1       2.566  13.233  18.368  0.00  0.00    +0.000 A 
ATOM     24  C   UNL     1       2.900  13.846  19.573  0.00  0.00    +0.000 A 
ATOM     25  C   UNL     1       2.332  13.404  20.759  0.00  0.00    +0.000 A 
ATOM     26  C   UNL     1       1.423  12.345  20.746  0.00  0.00    +0.000 A 
ENDBRANCH  20  21
BRANCH  20  27
ATOM     27  C   UNL     1      -1.383  11.177  19.319  0.00  0.00    +0.000 C 
ATOM     28  O   UNL     1      -1.917  11.887  20.177  0.00  0.00    +0.000 OA
BRANCH  27  29
ATOM     29  C   UNL     1      -2.190  10.933  18.077  0.00  0.00    +0.000 A 
ATOM     30  C   UNL     1      -1.753  10.154  17.002  0.00  0.00    +0.000 A 
ATOM     31  C   UNL     1      -2.600   9.929  15.910  0.00  0.00    +0.000 A 
ATOM     32  C   UNL     1      -3.875  10.493  15.872  0.00  0.00    +0.000 A 
ATOM     33  C   UNL     1      -4.307  11.299  16.919  0.00  0.00    +0.000 A 
ATOM     34  C   UNL     1      -3.468  11.519  18.012  0.00  0.00    +0.000 A 
ENDBRANCH  27  29
ENDBRANCH  20  27
ENDBRANCH  19  20
ENDBRANCH   7  19
TORSDOF 6
ENDMDL
MODEL 9
REMARK VINA RESULT:      -8.3      1.937      3.860
REMARK  Name = 
REMARK  7 active torsions:
REMARK  status: ('A' for Active; 'I' for Inactive)
REMARK    1  A    between atoms: C_1  and  C_2
REMARK    2  A    between atoms: C_3  and  C_4
REMARK    3  A    between atoms: C_13  and  S_14
REMARK    4  A    between atoms: S_14  and  C_15
REMARK    5  A    between atoms: C_15  and  C_16
REMARK    6  A    between atoms: C_15  and  C_24
REMARK    7  A    between atoms: C_16  and  C_18
REMARK                            x       y       z     vdW  Elec       q    Type
REMARK                         _______ _______ _______ _____ _____    ______ ____
ROOT
ATOM      1  C   UNL     1      -0.681   9.623  22.714  0.00  0.00    +0.000 C 
ATOM      2  C   UNL     1      -0.188  10.142  21.394  0.00  0.00    +0.000 A 
ATOM      3  C   UNL     1      -0.512  11.371  20.806  0.00  0.00    +0.000 A 
ATOM      4  S   UNL     1       0.144  11.476  19.207  0.00  0.00    +0.000 S 
ATOM      5  C   UNL     1       0.912   9.988  19.338  0.00  0.00    +0.000 A 
ATOM      6  N   UNL     1       1.655   9.398  18.387  0.00  0.00    +0.000 N 
ATOM      7  C   UNL     1       2.188   8.166  18.637  0.00  0.00    +0.000 A 
ATOM      8  N   UNL     1       2.078   7.528  19.754  0.00  0.00    +0.000 NA
ATOM      9  C   UNL     1       1.418   8.114  20.823  0.00  0.00    +0.000 A 
ATOM     10  O   UNL     1       1.410   7.614  21.941  0.00  0.00    +0.000 OA
ATOM     11  C   UNL     1       0.721   9.384  20.553  0.00  0.00    +0.000 A 
ATOM     12  H   UNL     1       1.803   9.816  17.477  0.00  0.00    +0.000 HD
ENDROOT
BRANCH   3  13
ATOM     13  C   UNL     1      -1.251  12.541  21.337  0.00  0.00    +0.000 A 
ATOM     14  C   UNL     1      -2.620  12.699  21.070  0.00  0.00    +0.000 A 
ATOM     15  C   UNL     1      -3.350  13.763  21.611  0.00  0.00    +0.000 A 
ATOM     16  C   UNL     1      -2.730  14.675  22.459  0.00  0.00    +0.000 A 
ATOM     17  C   UNL     1      -1.376  14.537  22.745  0.00  0.00    +0.000 A 
ATOM     18  C   UNL     1      -0.641  13.490  22.177  0.00  0.00    +0.000 A 
ENDBRANCH   3  13
BRANCH   7  19
ATOM     19  S   UNL     1       3.080   7.493  17.282  0.00  0.00    +0.000 S 
BRANCH  19  20
ATOM     20  C   UNL     1       3.833   5.974  18.001  0.00  0.00    +0.000 C 
BRANCH  20  21
ATOM     21  C   UNL     1       5.062   5.519  17.217  0.00  0.00    +0.000 A 
ATOM     22  C   UNL     1       6.175   4.999  17.902  0.00  0.00    +0.000 A 
ATOM     23  C   UNL     1       7.288   4.540  17.196  0.00  0.00    +0.000 A 
ATOM     24  C   UNL     1       7.303   4.588  15.804  0.00  0.00    +0.000 A 
ATOM     25  C   UNL     1       6.214   5.098  15.113  0.00  0.00    +0.000 A 
ATOM     26  C   UNL     1       5.098   5.562  15.813  0.00  0.00    +0.000 A 
ENDBRANCH  20  21
BRANCH  20  27
ATOM     27  C   UNL     1       2.782   4.836  18.050  0.00  0.00    +0.000 C 
ATOM     28  O   UNL     1       2.155   4.469  17.051  0.00  0.00    +0.000 OA
BRANCH  27  29
ATOM     29  C   UNL     1       2.482   4.093  19.319  0.00  0.00    +0.000 A 
ATOM     30  C   UNL     1       1.229   4.078  19.938  0.00  0.00    +0.000 A 
ATOM     31  C   UNL     1       1.024   3.304  21.087  0.00  0.00    +0.000 A 
ATOM     32  C   UNL     1       2.067   2.561  21.639  0.00  0.00    +0.000 A 
ATOM     33  C   UNL     1       3.328   2.596  21.053  0.00  0.00    +0.000 A 
ATOM     34  C   UNL     1       3.533   3.359  19.903  0.00  0.00    +0.000 A 
ENDBRANCH  27  29
ENDBRANCH  20  27
ENDBRANCH  19  20
ENDBRANCH   7  19
TORSDOF 6
ENDMDL
