MODEL 1
REMARK VINA RESULT:      -9.0      0.000      0.000
REMARK  Name = 
REMARK  4 active torsions:
REMARK  status: ('A' for Active; 'I' for Inactive)
REMARK    1  A    between atoms: C_1  and  C_2
REMARK    2  A    between atoms: C_6  and  C_7
REMARK    3  A    between atoms: C_15  and  C_17
REMARK    4  A    between atoms: C_21  and  C_22
REMARK                            x       y       z     vdW  Elec       q    Type
REMARK                         _______ _______ _______ _____ _____    ______ ____
ROOT
ATOM      1  C   UNL     1       8.022   4.433  17.633  0.00  0.00    +0.000 C 
ATOM      2  C   UNL     1       6.863   5.191  16.970  0.00  0.00    +0.000 C 
ATOM      3  C   UNL     1       6.846   4.895  15.510  0.00  0.00    +0.000 A 
ATOM      4  N   UNL     1       7.815   5.243  14.615  0.00  0.00    +0.000 N 
ATOM      5  N   UNL     1       7.558   4.823  13.361  0.00  0.00    +0.000 NA
ATOM      6  C   UNL     1       6.376   4.175  13.450  0.00  0.00    +0.000 A 
ATOM      7  C   UNL     1       5.908   4.206  14.791  0.00  0.00    +0.000 A 
ATOM      8  C   UNL     1       4.703   3.643  15.401  0.00  0.00    +0.000 C 
ATOM      9  C   UNL     1       4.459   4.214  16.804  0.00  0.00    +0.000 C 
ATOM     10  N   UNL     1       5.547   4.854  17.594  0.00  0.00    +0.000 N 
ATOM     11  C   UNL     1       5.319   5.377  18.898  0.00  0.00    +0.000 C 
ATOM     12  O   UNL     1       6.168   6.025  19.505  0.00  0.00    +0.000 OA
ATOM     13  H   UNL     1       8.683   5.743  14.785  0.00  0.00    +0.000 HD
ENDROOT
BRANCH  11  14
ATOM     14  C   UNL     1       3.989   5.173  19.561  0.00  0.00    +0.000 A 
ATOM     15  C   UNL     1       3.158   6.291  19.723  0.00  0.00    +0.000 A 
ATOM     16  C   UNL     1       1.840   6.157  20.133  0.00  0.00    +0.000 A 
ATOM     17  C   UNL     1       1.371   4.907  20.517  0.00  0.00    +0.000 A 
ATOM     18  C   UNL     1       2.228   3.790  20.528  0.00  0.00    +0.000 A 
ATOM     19  C   UNL     1       3.548   3.927  20.045  0.00  0.00    +0.000 A 
ATOM     20 CL   UNL     1       4.604   2.554  20.066  0.00  0.00    +0.000 Cl
BRANCH  18  21
ATOM     21  C   UNL     1       1.693   2.494  21.091  0.00  0.00    +0.000 C 
ATOM     22  F   UNL     1       0.481   2.634  21.694  0.00  0.00    +0.000 F 
ATOM     23  F   UNL     1       1.515   1.527  20.147  0.00  0.00    +0.000 F 
ATOM     24  F   UNL     1       2.506   1.959  22.049  0.00  0.00    +0.000 F 
ENDBRANCH  18  21
ENDBRANCH  11  14
BRANCH   6  25
ATOM     25  C   UNL     1       5.677   3.517  12.288  0.00  0.00    +0.000 C 
ATOM     26  F   UNL     1       5.850   2.172  12.220  0.00  0.00    +0.000 F 
ATOM     27  F   UNL     1       4.333   3.740  12.328  0.00  0.00    +0.000 F 
ATOM     28  F   UNL     1       6.104   4.030  11.099  0.00  0.00    +0.000 F 
ENDBRANCH   6  25
TORSDOF 3
ENDMDL
MODEL 2
REMARK VINA RESULT:      -8.9      0.036      1.031
REMARK  Name = 
REMARK  4 active torsions:
REMARK  status: ('A' for Active; 'I' for Inactive)
REMARK    1  A    between atoms: C_1  and  C_2
REMARK    2  A    between atoms: C_6  and  C_7
REMARK    3  A    between atoms: C_15  and  C_17
REMARK    4  A    between atoms: C_21  and  C_22
REMARK                            x       y       z     vdW  Elec       q    Type
REMARK                         _______ _______ _______ _____ _____    ______ ____
ROOT
ATOM      1  C   UNL     1       8.024   4.439  17.613  0.00  0.00    +0.000 C 
ATOM      2  C   UNL     1       6.867   5.202  16.953  0.00  0.00    +0.000 C 
ATOM      3  C   UNL     1       6.849   4.909  15.492  0.00  0.00    +0.000 A 
ATOM      4  N   UNL     1       7.817   5.257  14.597  0.00  0.00    +0.000 N 
ATOM      5  N   UNL     1       7.559   4.841  13.342  0.00  0.00    +0.000 NA
ATOM      6  C   UNL     1       6.377   4.195  13.430  0.00  0.00    +0.000 A 
ATOM      7  C   UNL     1       5.909   4.223  14.772  0.00  0.00    +0.000 A 
ATOM      8  C   UNL     1       4.703   3.660  15.381  0.00  0.00    +0.000 C 
ATOM      9  C   UNL     1       4.461   4.229  16.786  0.00  0.00    +0.000 C 
ATOM     10  N   UNL     1       5.550   4.866  17.576  0.00  0.00    +0.000 N 
ATOM     11  C   UNL     1       5.324   5.385  18.882  0.00  0.00    +0.000 C 
ATOM     12  O   UNL     1       6.175   6.031  19.490  0.00  0.00    +0.000 OA
ATOM     13  H   UNL     1       8.687   5.755  14.768  0.00  0.00    +0.000 HD
ENDROOT
BRANCH  11  14
ATOM     14  C   UNL     1       3.994   5.183  19.545  0.00  0.00    +0.000 A 
ATOM     15  C   UNL     1       3.167   6.302  19.714  0.00  0.00    +0.000 A 
ATOM     16  C   UNL     1       1.849   6.170  20.125  0.00  0.00    +0.000 A 
ATOM     17  C   UNL     1       1.376   4.920  20.502  0.00  0.00    +0.000 A 
ATOM     18  C   UNL     1       2.230   3.801  20.506  0.00  0.00    +0.000 A 
ATOM     19  C   UNL     1       3.549   3.936  20.023  0.00  0.00    +0.000 A 
ATOM     20 CL   UNL     1       4.601   2.559  20.035  0.00  0.00    +0.000 Cl
BRANCH  18  21
ATOM     21  C   UNL     1       1.691   2.502  21.062  0.00  0.00    +0.000 C 
ATOM     22  F   UNL     1       1.549   1.534  20.115  0.00  0.00    +0.000 F 
ATOM     23  F   UNL     1       2.487   1.952  22.021  0.00  0.00    +0.000 F 
ATOM     24  F   UNL     1       0.451   2.640  21.616  0.00  0.00    +0.000 F 
ENDBRANCH  18  21
ENDBRANCH  11  14
BRANCH   6  25
ATOM     25  C   UNL     1       5.676   3.541  12.267  0.00  0.00    +0.000 C 
ATOM     26  F   UNL     1       4.330   3.717  12.254  0.00  0.00    +0.000 F 
ATOM     27  F   UNL     1       6.146   4.012  11.077  0.00  0.00    +0.000 F 
ATOM     28  F   UNL     1       5.898   2.196  12.248  0.00  0.00    +0.000 F 
ENDBRANCH   6  25
TORSDOF 3
ENDMDL
MODEL 3
REMARK VINA RESULT:      -8.5      4.383      8.143
REMARK  Name = 
REMARK  4 active torsions:
REMARK  status: ('A' for Active; 'I' for Inactive)
REMARK    1  A    between atoms: C_1  and  C_2
REMARK    2  A    between atoms: C_6  and  C_7
REMARK    3  A    between atoms: C_15  and  C_17
REMARK    4  A    between atoms: C_21  and  C_22
REMARK                            x       y       z     vdW  Elec       q    Type
REMARK                         _______ _______ _______ _____ _____    ______ ____
ROOT
ATOM      1  C   UNL     1       0.880   9.075  17.407  0.00  0.00    +0.000 C 
ATOM      2  C   UNL     1       1.838   9.035  18.606  0.00  0.00    +0.000 C 
ATOM      3  C   UNL     1       1.174   9.648  19.792  0.00  0.00    +0.000 A 
ATOM      4  N   UNL     1       0.802  10.954  19.910  0.00  0.00    +0.000 N 
ATOM      5  N   UNL     1       0.194  11.232  21.080  0.00  0.00    +0.000 NA
ATOM      6  C   UNL     1       0.170  10.056  21.743  0.00  0.00    +0.000 A 
ATOM      7  C   UNL     1       0.779   9.044  20.954  0.00  0.00    +0.000 A 
ATOM      8  C   UNL     1       0.986   7.618  21.212  0.00  0.00    +0.000 C 
ATOM      9  C   UNL     1       1.982   7.001  20.220  0.00  0.00    +0.000 C 
ATOM     10  N   UNL     1       2.290   7.644  18.913  0.00  0.00    +0.000 N 
ATOM     11  C   UNL     1       3.208   7.066  17.991  0.00  0.00    +0.000 C 
ATOM     12  O   UNL     1       3.573   7.649  16.973  0.00  0.00    +0.000 OA
ATOM     13  H   UNL     1       0.908  11.706  19.235  0.00  0.00    +0.000 HD
ENDROOT
BRANCH  11  14
ATOM     14  C   UNL     1       3.792   5.713  18.271  0.00  0.00    +0.000 A 
ATOM     15  C   UNL     1       5.143   5.644  18.641  0.00  0.00    +0.000 A 
ATOM     16  C   UNL     1       5.702   4.466  19.113  0.00  0.00    +0.000 A 
ATOM     17  C   UNL     1       4.948   3.300  19.097  0.00  0.00    +0.000 A 
ATOM     18  C   UNL     1       3.641   3.298  18.572  0.00  0.00    +0.000 A 
ATOM     19  C   UNL     1       3.061   4.515  18.157  0.00  0.00    +0.000 A 
ATOM     20 CL   UNL     1       1.456   4.510  17.504  0.00  0.00    +0.000 Cl
BRANCH  18  21
ATOM     21  C   UNL     1       2.930   1.969  18.453  0.00  0.00    +0.000 C 
ATOM     22  F   UNL     1       2.344   1.785  17.238  0.00  0.00    +0.000 F 
ATOM     23  F   UNL     1       3.753   0.897  18.620  0.00  0.00    +0.000 F 
ATOM     24  F   UNL     1       1.918   1.829  19.359  0.00  0.00    +0.000 F 
ENDBRANCH  18  21
ENDBRANCH  11  14
BRANCH   6  25
ATOM     25  C   UNL     1      -0.427   9.864  23.114  0.00  0.00    +0.000 C 
ATOM     26  F   UNL     1      -1.118  10.936  23.578  0.00  0.00    +0.000 F 
ATOM     27  F   UNL     1      -1.283   8.804  23.137  0.00  0.00    +0.000 F 
ATOM     28  F   UNL     1       0.536   9.585  24.038  0.00  0.00    +0.000 F 
ENDBRANCH   6  25
TORSDOF 3
ENDMDL
MODEL 4
REMARK VINA RESULT:      -8.5      4.386      8.159
REMARK  Name = 
REMARK  4 active torsions:
REMARK  status: ('A' for Active; 'I' for Inactive)
REMARK    1  A    between atoms: C_1  and  C_2
REMARK    2  A    between atoms: C_6  and  C_7
REMARK    3  A    between atoms: C_15  and  C_17
REMARK    4  A    between atoms: C_21  and  C_22
REMARK                            x       y       z     vdW  Elec       q    Type
REMARK                         _______ _______ _______ _____ _____    ______ ____
ROOT
ATOM      1  C   UNL     1       0.910   9.112  17.439  0.00  0.00    +0.000 C 
ATOM      2  C   UNL     1       1.866   9.052  18.639  0.00  0.00    +0.000 C 
ATOM      3  C   UNL     1       1.206   9.657  19.830  0.00  0.00    +0.000 A 
ATOM      4  N   UNL     1       0.844  10.965  19.962  0.00  0.00    +0.000 N 
ATOM      5  N   UNL     1       0.236  11.234  21.134  0.00  0.00    +0.000 NA
ATOM      6  C   UNL     1       0.202  10.052  21.785  0.00  0.00    +0.000 A 
ATOM      7  C   UNL     1       0.804   9.043  20.985  0.00  0.00    +0.000 A 
ATOM      8  C   UNL     1       1.000   7.613  21.229  0.00  0.00    +0.000 C 
ATOM      9  C   UNL     1       1.992   7.000  20.231  0.00  0.00    +0.000 C 
ATOM     10  N   UNL     1       2.307   7.654  18.931  0.00  0.00    +0.000 N 
ATOM     11  C   UNL     1       3.221   7.079  18.004  0.00  0.00    +0.000 C 
ATOM     12  O   UNL     1       3.593   7.669  16.993  0.00  0.00    +0.000 OA
ATOM     13  H   UNL     1       0.956  11.723  19.295  0.00  0.00    +0.000 HD
ENDROOT
BRANCH  11  14
ATOM     14  C   UNL     1       3.795   5.718  18.270  0.00  0.00    +0.000 A 
ATOM     15  C   UNL     1       5.149   5.633  18.625  0.00  0.00    +0.000 A 
ATOM     16  C   UNL     1       5.701   4.448  19.085  0.00  0.00    +0.000 A 
ATOM     17  C   UNL     1       4.935   3.289  19.070  0.00  0.00    +0.000 A 
ATOM     18  C   UNL     1       3.622   3.303  18.559  0.00  0.00    +0.000 A 
ATOM     19  C   UNL     1       3.050   4.529  18.157  0.00  0.00    +0.000 A 
ATOM     20 CL   UNL     1       1.438   4.543  17.522  0.00  0.00    +0.000 Cl
BRANCH  18  21
ATOM     21  C   UNL     1       2.896   1.982  18.440  0.00  0.00    +0.000 C 
ATOM     22  F   UNL     1       3.709   0.907  18.634  0.00  0.00    +0.000 F 
ATOM     23  F   UNL     1       1.887   1.836  19.343  0.00  0.00    +0.000 F 
ATOM     24  F   UNL     1       2.346   1.792  17.205  0.00  0.00    +0.000 F 
ENDBRANCH  18  21
ENDBRANCH  11  14
BRANCH   6  25
ATOM     25  C   UNL     1      -0.398   9.850  23.152  0.00  0.00    +0.000 C 
ATOM     26  F   UNL     1       0.507   9.573  24.125  0.00  0.00    +0.000 F 
ATOM     27  F   UNL     1      -1.087  10.954  23.559  0.00  0.00    +0.000 F 
ATOM     28  F   UNL     1      -1.301   8.829  23.151  0.00  0.00    +0.000 F 
ENDBRANCH   6  25
TORSDOF 3
ENDMDL
MODEL 5
REMARK VINA RESULT:      -7.3      7.405     10.098
REMARK  Name = 
REMARK  4 active torsions:
REMARK  status: ('A' for Active; 'I' for Inactive)
REMARK    1  A    between atoms: C_1  and  C_2
REMARK    2  A    between atoms: C_6  and  C_7
REMARK    3  A    between atoms: C_15  and  C_17
REMARK    4  A    between atoms: C_21  and  C_22
REMARK                            x       y       z     vdW  Elec       q    Type
REMARK                         _______ _______ _______ _____ _____    ______ ____
ROOT
ATOM      1  C   UNL     1      -0.444  13.439  19.296  0.00  0.00    +0.000 C 
ATOM      2  C   UNL     1      -1.138  12.172  19.815  0.00  0.00    +0.000 C 
ATOM      3  C   UNL     1      -2.597  12.251  19.523  0.00  0.00    +0.000 A 
ATOM      4  N   UNL     1      -3.469  13.155  20.054  0.00  0.00    +0.000 N 
ATOM      5  N   UNL     1      -4.727  13.017  19.593  0.00  0.00    +0.000 NA
ATOM      6  C   UNL     1      -4.666  11.982  18.728  0.00  0.00    +0.000 A 
ATOM      7  C   UNL     1      -3.337  11.484  18.664  0.00  0.00    +0.000 A 
ATOM      8  C   UNL     1      -2.755  10.396  17.877  0.00  0.00    +0.000 C 
ATOM      9  C   UNL     1      -1.361  10.010  18.388  0.00  0.00    +0.000 C 
ATOM     10  N   UNL     1      -0.547  10.931  19.227  0.00  0.00    +0.000 N 
ATOM     11  C   UNL     1       0.749  10.574  19.693  0.00  0.00    +0.000 C 
ATOM     12  O   UNL     1       1.375  11.264  20.494  0.00  0.00    +0.000 OA
ATOM     13  H   UNL     1      -3.279  13.905  20.713  0.00  0.00    +0.000 HD
ENDROOT
BRANCH  11  14
ATOM     14  C   UNL     1       1.379   9.292  19.234  0.00  0.00    +0.000 A 
ATOM     15  C   UNL     1       2.009   9.281  17.981  0.00  0.00    +0.000 A 
ATOM     16  C   UNL     1       2.788   8.209  17.574  0.00  0.00    +0.000 A 
ATOM     17  C   UNL     1       2.841   7.068  18.364  0.00  0.00    +0.000 A 
ATOM     18  C   UNL     1       2.084   6.979  19.549  0.00  0.00    +0.000 A 
ATOM     19  C   UNL     1       1.349   8.102  19.985  0.00  0.00    +0.000 A 
ATOM     20 CL   UNL     1       0.413   7.988  21.439  0.00  0.00    +0.000 Cl
BRANCH  18  21
ATOM     21  C   UNL     1       2.077   5.659  20.285  0.00  0.00    +0.000 C 
ATOM     22  F   UNL     1       2.457   5.772  21.588  0.00  0.00    +0.000 F 
ATOM     23  F   UNL     1       0.851   5.065  20.320  0.00  0.00    +0.000 F 
ATOM     24  F   UNL     1       2.937   4.747  19.744  0.00  0.00    +0.000 F 
ENDBRANCH  18  21
ENDBRANCH  11  14
BRANCH   6  25
ATOM     25  C   UNL     1      -5.843  11.455  17.947  0.00  0.00    +0.000 C 
ATOM     26  F   UNL     1      -6.277  10.233  18.348  0.00  0.00    +0.000 F 
ATOM     27  F   UNL     1      -6.910  12.299  18.030  0.00  0.00    +0.000 F 
ATOM     28  F   UNL     1      -5.550  11.354  16.620  0.00  0.00    +0.000 F 
ENDBRANCH   6  25
TORSDOF 3
ENDMDL
MODEL 6
REMARK VINA RESULT:      -7.3      7.348     10.091
REMARK  Name = 
REMARK  4 active torsions:
REMARK  status: ('A' for Active; 'I' for Inactive)
REMARK    1  A    between atoms: C_1  and  C_2
REMARK    2  A    between atoms: C_6  and  C_7
REMARK    3  A    between atoms: C_15  and  C_17
REMARK    4  A    between atoms: C_21  and  C_22
REMARK                            x       y       z     vdW  Elec       q    Type
REMARK                         _______ _______ _______ _____ _____    ______ ____
ROOT
ATOM      1  C   UNL     1      -0.396  13.401  19.224  0.00  0.00    +0.000 C 
ATOM      2  C   UNL     1      -1.084  12.141  19.767  0.00  0.00    +0.000 C 
ATOM      3  C   UNL     1      -2.546  12.215  19.489  0.00  0.00    +0.000 A 
ATOM      4  N   UNL     1      -3.413  13.126  20.015  0.00  0.00    +0.000 N 
ATOM      5  N   UNL     1      -4.676  12.981  19.568  0.00  0.00    +0.000 NA
ATOM      6  C   UNL     1      -4.622  11.935  18.717  0.00  0.00    +0.000 A 
ATOM      7  C   UNL     1      -3.294  11.435  18.648  0.00  0.00    +0.000 A 
ATOM      8  C   UNL     1      -2.719  10.337  17.870  0.00  0.00    +0.000 C 
ATOM      9  C   UNL     1      -1.320   9.958  18.374  0.00  0.00    +0.000 C 
ATOM     10  N   UNL     1      -0.498  10.892  19.192  0.00  0.00    +0.000 N 
ATOM     11  C   UNL     1       0.803  10.541  19.651  0.00  0.00    +0.000 C 
ATOM     12  O   UNL     1       1.435  11.243  20.436  0.00  0.00    +0.000 OA
ATOM     13  H   UNL     1      -3.218  13.886  20.661  0.00  0.00    +0.000 HD
ENDROOT
BRANCH  11  14
ATOM     14  C   UNL     1       1.429   9.253  19.204  0.00  0.00    +0.000 A 
ATOM     15  C   UNL     1       2.071   9.232  17.958  0.00  0.00    +0.000 A 
ATOM     16  C   UNL     1       2.847   8.153  17.564  0.00  0.00    +0.000 A 
ATOM     17  C   UNL     1       2.884   7.015  18.360  0.00  0.00    +0.000 A 
ATOM     18  C   UNL     1       2.114   6.936  19.536  0.00  0.00    +0.000 A 
ATOM     19  C   UNL     1       1.382   8.066  19.960  0.00  0.00    +0.000 A 
ATOM     20 CL   UNL     1       0.429   7.966  21.403  0.00  0.00    +0.000 Cl
BRANCH  18  21
ATOM     21  C   UNL     1       2.089   5.620  20.278  0.00  0.00    +0.000 C 
ATOM     22  F   UNL     1       2.941   4.695  19.754  0.00  0.00    +0.000 F 
ATOM     23  F   UNL     1       2.444   5.730  21.589  0.00  0.00    +0.000 F 
ATOM     24  F   UNL     1       0.861   5.023  20.255  0.00  0.00    +0.000 F 
ENDBRANCH  18  21
ENDBRANCH  11  14
BRANCH   6  25
ATOM     25  C   UNL     1      -5.806  11.396  17.955  0.00  0.00    +0.000 C 
ATOM     26  F   UNL     1      -6.904  12.194  17.990  0.00  0.00    +0.000 F 
ATOM     27  F   UNL     1      -5.502  11.202  16.640  0.00  0.00    +0.000 F 
ATOM     28  F   UNL     1      -6.188  10.177  18.432  0.00  0.00    +0.000 F 
ENDBRANCH   6  25
TORSDOF 3
ENDMDL
MODEL 7
REMARK VINA RESULT:      -7.0      5.241      7.824
REMARK  Name = 
REMARK  4 active torsions:
REMARK  status: ('A' for Active; 'I' for Inactive)
REMARK    1  A    between atoms: C_1  and  C_2
REMARK    2  A    between atoms: C_6  and  C_7
REMARK    3  A    between atoms: C_15  and  C_17
REMARK    4  A    between atoms: C_21  and  C_22
REMARK                            x       y       z     vdW  Elec       q    Type
REMARK                         _______ _______ _______ _____ _____    ______ ____
ROOT
ATOM      1  C   UNL     1       4.329   7.412  17.834  0.00  0.00    +0.000 C 
ATOM      2  C   UNL     1       2.903   6.878  18.024  0.00  0.00    +0.000 C 
ATOM      3  C   UNL     1       2.958   5.513  18.621  0.00  0.00    +0.000 A 
ATOM      4  N   UNL     1       3.481   4.404  18.026  0.00  0.00    +0.000 N 
ATOM      5  N   UNL     1       3.428   3.305  18.804  0.00  0.00    +0.000 NA
ATOM      6  C   UNL     1       2.850   3.723  19.951  0.00  0.00    +0.000 A 
ATOM      7  C   UNL     1       2.546   5.108  19.862  0.00  0.00    +0.000 A 
ATOM      8  C   UNL     1       1.937   6.023  20.828  0.00  0.00    +0.000 C 
ATOM      9  C   UNL     1       1.505   7.339  20.168  0.00  0.00    +0.000 C 
ATOM     10  N   UNL     1       2.072   7.791  18.868  0.00  0.00    +0.000 N 
ATOM     11  C   UNL     1       1.676   9.016  18.262  0.00  0.00    +0.000 C 
ATOM     12  O   UNL     1       2.032   9.336  17.130  0.00  0.00    +0.000 OA
ATOM     13  H   UNL     1       3.908   4.320  17.107  0.00  0.00    +0.000 HD
ENDROOT
BRANCH  11  14
ATOM     14  C   UNL     1       0.760   9.949  18.997  0.00  0.00    +0.000 A 
ATOM     15  C   UNL     1       1.201  10.478  20.218  0.00  0.00    +0.000 A 
ATOM     16  C   UNL     1       0.512  11.499  20.854  0.00  0.00    +0.000 A 
ATOM     17  C   UNL     1      -0.709  11.917  20.341  0.00  0.00    +0.000 A 
ATOM     18  C   UNL     1      -1.266  11.290  19.210  0.00  0.00    +0.000 A 
ATOM     19  C   UNL     1      -0.523  10.299  18.534  0.00  0.00    +0.000 A 
ATOM     20 CL   UNL     1      -1.213   9.522  17.147  0.00  0.00    +0.000 Cl
BRANCH  18  21
ATOM     21  C   UNL     1      -2.661  11.696  18.791  0.00  0.00    +0.000 C 
ATOM     22  F   UNL     1      -2.708  12.222  17.536  0.00  0.00    +0.000 F 
ATOM     23  F   UNL     1      -3.546  10.661  18.780  0.00  0.00    +0.000 F 
ATOM     24  F   UNL     1      -3.195  12.659  19.598  0.00  0.00    +0.000 F 
ENDBRANCH  18  21
ENDBRANCH  11  14
BRANCH   6  25
ATOM     25  C   UNL     1       2.583   2.838  21.141  0.00  0.00    +0.000 C 
ATOM     26  F   UNL     1       2.308   3.511  22.288  0.00  0.00    +0.000 F 
ATOM     27  F   UNL     1       1.529   2.004  20.911  0.00  0.00    +0.000 F 
ATOM     28  F   UNL     1       3.648   2.028  21.404  0.00  0.00    +0.000 F 
ENDBRANCH   6  25
TORSDOF 3
ENDMDL
MODEL 8
REMARK VINA RESULT:      -7.0      5.238      7.820
REMARK  Name = 
REMARK  4 active torsions:
REMARK  status: ('A' for Active; 'I' for Inactive)
REMARK    1  A    between atoms: C_1  and  C_2
REMARK    2  A    between atoms: C_6  and  C_7
REMARK    3  A    between atoms: C_15  and  C_17
REMARK    4  A    between atoms: C_21  and  C_22
REMARK                            x       y       z     vdW  Elec       q    Type
REMARK                         _______ _______ _______ _____ _____    ______ ____
ROOT
ATOM      1  C   UNL     1       4.336   7.420  17.877  0.00  0.00    +0.000 C 
ATOM      2  C   UNL     1       2.910   6.881  18.054  0.00  0.00    +0.000 C 
ATOM      3  C   UNL     1       2.966   5.515  18.649  0.00  0.00    +0.000 A 
ATOM      4  N   UNL     1       3.497   4.409  18.055  0.00  0.00    +0.000 N 
ATOM      5  N   UNL     1       3.441   3.309  18.831  0.00  0.00    +0.000 NA
ATOM      6  C   UNL     1       2.853   3.722  19.974  0.00  0.00    +0.000 A 
ATOM      7  C   UNL     1       2.545   5.106  19.885  0.00  0.00    +0.000 A 
ATOM      8  C   UNL     1       1.923   6.016  20.848  0.00  0.00    +0.000 C 
ATOM      9  C   UNL     1       1.493   7.333  20.187  0.00  0.00    +0.000 C 
ATOM     10  N   UNL     1       2.069   7.789  18.893  0.00  0.00    +0.000 N 
ATOM     11  C   UNL     1       1.674   9.014  18.286  0.00  0.00    +0.000 C 
ATOM     12  O   UNL     1       2.038   9.338  17.158  0.00  0.00    +0.000 OA
ATOM     13  H   UNL     1       3.932   4.329  17.140  0.00  0.00    +0.000 HD
ENDROOT
BRANCH  11  14
ATOM     14  C   UNL     1       0.748   9.943  19.015  0.00  0.00    +0.000 A 
ATOM     15  C   UNL     1       1.173  10.462  20.246  0.00  0.00    +0.000 A 
ATOM     16  C   UNL     1       0.476  11.479  20.880  0.00  0.00    +0.000 A 
ATOM     17  C   UNL     1      -0.738  11.902  20.354  0.00  0.00    +0.000 A 
ATOM     18  C   UNL     1      -1.280  11.283  19.211  0.00  0.00    +0.000 A 
ATOM     19  C   UNL     1      -0.528  10.297  18.537  0.00  0.00    +0.000 A 
ATOM     20 CL   UNL     1      -1.198   9.531  17.135  0.00  0.00    +0.000 Cl
BRANCH  18  21
ATOM     21  C   UNL     1      -2.668  11.694  18.775  0.00  0.00    +0.000 C 
ATOM     22  F   UNL     1      -3.209  12.663  19.563  0.00  0.00    +0.000 F 
ATOM     23  F   UNL     1      -2.712  12.195  17.509  0.00  0.00    +0.000 F 
ATOM     24  F   UNL     1      -3.561  10.663  18.819  0.00  0.00    +0.000 F 
ENDBRANCH  18  21
ENDBRANCH  11  14
BRANCH   6  25
ATOM     25  C   UNL     1       2.578   2.833  21.159  0.00  0.00    +0.000 C 
ATOM     26  F   UNL     1       3.598   1.995  21.478  0.00  0.00    +0.000 F 
ATOM     27  F   UNL     1       2.309   3.567  22.277  0.00  0.00    +0.000 F 
ATOM     28  F   UNL     1       1.478   2.056  20.951  0.00  0.00    +0.000 F 
ENDBRANCH   6  25
TORSDOF 3
ENDMDL
MODEL 9
REMARK VINA RESULT:      -6.9      5.043      6.465
REMARK  Name = 
REMARK  4 active torsions:
REMARK  status: ('A' for Active; 'I' for Inactive)
REMARK    1  A    between atoms: C_1  and  C_2
REMARK    2  A    between atoms: C_6  and  C_7
REMARK    3  A    between atoms: C_15  and  C_17
REMARK    4  A    between atoms: C_21  and  C_22
REMARK                            x       y       z     vdW  Elec       q    Type
REMARK                         _______ _______ _______ _____ _____    ______ ____
ROOT
ATOM      1  C   UNL     1       2.050   4.578  19.851  0.00  0.00    +0.000 C 
ATOM      2  C   UNL     1       3.075   5.718  19.929  0.00  0.00    +0.000 C 
ATOM      3  C   UNL     1       4.296   5.341  19.162  0.00  0.00    +0.000 A 
ATOM      4  N   UNL     1       5.148   4.321  19.469  0.00  0.00    +0.000 N 
ATOM      5  N   UNL     1       6.157   4.185  18.588  0.00  0.00    +0.000 NA
ATOM      6  C   UNL     1       5.947   5.153  17.671  0.00  0.00    +0.000 A 
ATOM      7  C   UNL     1       4.783   5.894  18.009  0.00  0.00    +0.000 A 
ATOM      8  C   UNL     1       4.132   7.021  17.338  0.00  0.00    +0.000 C 
ATOM      9  C   UNL     1       3.100   7.701  18.247  0.00  0.00    +0.000 C 
ATOM     10  N   UNL     1       2.513   7.009  19.427  0.00  0.00    +0.000 N 
ATOM     11  C   UNL     1       1.550   7.640  20.264  0.00  0.00    +0.000 C 
ATOM     12  O   UNL     1       1.159   7.136  21.314  0.00  0.00    +0.000 OA
ATOM     13  H   UNL     1       5.096   3.666  20.245  0.00  0.00    +0.000 HD
ENDROOT
BRANCH  11  14
ATOM     14  C   UNL     1       1.005   8.987  19.890  0.00  0.00    +0.000 A 
ATOM     15  C   UNL     1       1.085   9.378  18.546  0.00  0.00    +0.000 A 
ATOM     16  C   UNL     1       0.426  10.506  18.082  0.00  0.00    +0.000 A 
ATOM     17  C   UNL     1      -0.218  11.339  18.989  0.00  0.00    +0.000 A 
ATOM     18  C   UNL     1      -0.174  11.067  20.370  0.00  0.00    +0.000 A 
ATOM     19  C   UNL     1       0.443   9.880  20.821  0.00  0.00    +0.000 A 
ATOM     20 CL   UNL     1       0.503   9.550  22.521  0.00  0.00    +0.000 Cl
BRANCH  18  21
ATOM     21  C   UNL     1      -0.772  12.088  21.311  0.00  0.00    +0.000 C 
ATOM     22  F   UNL     1      -1.694  11.555  22.160  0.00  0.00    +0.000 F 
ATOM     23  F   UNL     1       0.150  12.689  22.114  0.00  0.00    +0.000 F 
ATOM     24  F   UNL     1      -1.430  13.088  20.656  0.00  0.00    +0.000 F 
ENDBRANCH  18  21
ENDBRANCH  11  14
BRANCH   6  25
ATOM     25  C   UNL     1       6.826   5.393  16.470  0.00  0.00    +0.000 C 
ATOM     26  F   UNL     1       6.151   5.509  15.298  0.00  0.00    +0.000 F 
ATOM     27  F   UNL     1       7.562   6.531  16.614  0.00  0.00    +0.000 F 
ATOM     28  F   UNL     1       7.728   4.385  16.308  0.00  0.00    +0.000 F 
ENDBRANCH   6  25
TORSDOF 3
ENDMDL
