MODEL 1
REMARK VINA RESULT:      -7.8      0.000      0.000
REMARK  Name = 
REMARK  8 active torsions:
REMARK  status: ('A' for Active; 'I' for Inactive)
REMARK    1  A    between atoms: C_1  and  O_2
REMARK    2  A    between atoms: O_2  and  C_3
REMARK    3  A    between atoms: C_5  and  C_6
REMARK    4  A    between atoms: C_11  and  O_12
REMARK    5  A    between atoms: C_14  and  O_15
REMARK    6  A    between atoms: C_20  and  O_21
REMARK    7  A    between atoms: C_22  and  O_23
REMARK    8  A    between atoms: O_23  and  C_24
REMARK                            x       y       z     vdW  Elec       q    Type
REMARK                         _______ _______ _______ _____ _____    ______ ____
ROOT
ATOM      1  C   UNL     1       2.262   7.160  19.444  0.00  0.00    +0.000 A 
ATOM      2  C   UNL     1       2.220   5.999  20.096  0.00  0.00    +0.000 A 
ATOM      3  C   UNL     1       2.901   4.853  19.531  0.00  0.00    +0.000 A 
ATOM      4  O   UNL     1       2.642   3.705  19.849  0.00  0.00    +0.000 OA
ATOM      5  C   UNL     1       3.968   5.188  18.605  0.00  0.00    +0.000 A 
ATOM      6  C   UNL     1       5.081   4.360  18.497  0.00  0.00    +0.000 A 
ATOM      7  C   UNL     1       6.030   4.620  17.527  0.00  0.00    +0.000 A 
ATOM      8  C   UNL     1       5.830   5.699  16.666  0.00  0.00    +0.000 A 
ATOM      9  C   UNL     1       4.764   6.596  16.841  0.00  0.00    +0.000 A 
ATOM     10  C   UNL     1       3.857   6.372  17.877  0.00  0.00    +0.000 A 
ATOM     11  O   UNL     1       2.923   7.338  18.224  0.00  0.00    +0.000 OA
ENDROOT
BRANCH   1  14
ATOM     12  C   UNL     1       0.575  10.574  19.923  0.00  0.00    +0.000 A 
ATOM     13  C   UNL     1       1.159   9.436  19.310  0.00  0.00    +0.000 A 
ATOM     14  C   UNL     1       1.592   8.336  20.061  0.00  0.00    +0.000 A 
ATOM     15  C   UNL     1       1.437   8.398  21.454  0.00  0.00    +0.000 A 
ATOM     16  C   UNL     1       0.911   9.525  22.065  0.00  0.00    +0.000 A 
ATOM     17  C   UNL     1       0.472  10.635  21.324  0.00  0.00    +0.000 A 
BRANCH  12  19
ATOM     18  C   UNL     1      -1.135  11.545  18.601  0.00  0.00    +0.000 C 
ATOM     19  O   UNL     1       0.164  11.650  19.176  0.00  0.00    +0.000 OA
ENDBRANCH  12  19
BRANCH  16  20
ATOM     20  O   UNL     1       0.825   9.556  23.434  0.00  0.00    +0.000 OA
ATOM     21  H   UNL     1       1.701   9.722  23.812  0.00  0.00    +0.000 HD
ENDBRANCH  16  20
BRANCH  17  22
ATOM     22  O   UNL     1       0.047  11.661  22.120  0.00  0.00    +0.000 OA
ATOM     23  C   UNL     1      -1.321  11.909  22.361  0.00  0.00    +0.000 C 
ENDBRANCH  17  22
ENDBRANCH   1  14
BRANCH   6  24
ATOM     24  O   UNL     1       5.318   3.333  19.369  0.00  0.00    +0.000 OA
ATOM     25  H   UNL     1       6.286   3.184  19.423  0.00  0.00    +0.000 HD
ENDBRANCH   6  24
BRANCH   8  26
ATOM     26  O   UNL     1       6.708   5.932  15.637  0.00  0.00    +0.000 OA
ATOM     27  H   UNL     1       6.553   6.850  15.323  0.00  0.00    +0.000 HD
ENDBRANCH   8  26
TORSDOF 6
ENDMDL
MODEL 2
REMARK VINA RESULT:      -7.7      1.010      2.191
REMARK  Name = 
REMARK  8 active torsions:
REMARK  status: ('A' for Active; 'I' for Inactive)
REMARK    1  A    between atoms: C_1  and  O_2
REMARK    2  A    between atoms: O_2  and  C_3
REMARK    3  A    between atoms: C_5  and  C_6
REMARK    4  A    between atoms: C_11  and  O_12
REMARK    5  A    between atoms: C_14  and  O_15
REMARK    6  A    between atoms: C_20  and  O_21
REMARK    7  A    between atoms: C_22  and  O_23
REMARK    8  A    between atoms: O_23  and  C_24
REMARK                            x       y       z     vdW  Elec       q    Type
REMARK                         _______ _______ _______ _____ _____    ______ ____
ROOT
ATOM      1  C   UNL     1       2.539   7.191  18.769  0.00  0.00    +0.000 A 
ATOM      2  C   UNL     1       2.411   6.049  19.442  0.00  0.00    +0.000 A 
ATOM      3  C   UNL     1       3.164   4.891  19.008  0.00  0.00    +0.000 A 
ATOM      4  O   UNL     1       2.866   3.751  19.321  0.00  0.00    +0.000 OA
ATOM      5  C   UNL     1       4.346   5.205  18.224  0.00  0.00    +0.000 A 
ATOM      6  C   UNL     1       5.464   4.381  18.292  0.00  0.00    +0.000 A 
ATOM      7  C   UNL     1       6.534   4.618  17.451  0.00  0.00    +0.000 A 
ATOM      8  C   UNL     1       6.451   5.670  16.540  0.00  0.00    +0.000 A 
ATOM      9  C   UNL     1       5.369   6.566  16.543  0.00  0.00    +0.000 A 
ATOM     10  C   UNL     1       4.331   6.367  17.454  0.00  0.00    +0.000 A 
ATOM     11  O   UNL     1       3.357   7.337  17.644  0.00  0.00    +0.000 OA
ENDROOT
BRANCH   1  14
ATOM     12  C   UNL     1       0.867   9.774  21.063  0.00  0.00    +0.000 A 
ATOM     13  C   UNL     1       1.634   8.667  20.617  0.00  0.00    +0.000 A 
ATOM     14  C   UNL     1       1.790   8.381  19.255  0.00  0.00    +0.000 A 
ATOM     15  C   UNL     1       1.151   9.225  18.336  0.00  0.00    +0.000 A 
ATOM     16  C   UNL     1       0.362  10.281  18.763  0.00  0.00    +0.000 A 
ATOM     17  C   UNL     1       0.197  10.580  20.126  0.00  0.00    +0.000 A 
BRANCH  12  19
ATOM     18  C   UNL     1      -0.417   9.434  23.026  0.00  0.00    +0.000 C 
ATOM     19  O   UNL     1       0.713  10.038  22.402  0.00  0.00    +0.000 OA
ENDBRANCH  12  19
BRANCH  16  20
ATOM     20  O   UNL     1      -0.281  11.049  17.825  0.00  0.00    +0.000 OA
ATOM     21  H   UNL     1      -1.229  11.075  18.020  0.00  0.00    +0.000 HD
ENDBRANCH  16  20
BRANCH  17  22
ATOM     22  O   UNL     1      -0.668  11.617  20.333  0.00  0.00    +0.000 OA
ATOM     23  C   UNL     1      -0.226  12.895  20.740  0.00  0.00    +0.000 C 
ENDBRANCH  17  22
ENDBRANCH   1  14
BRANCH   6  24
ATOM     24  O   UNL     1       5.583   3.381  19.218  0.00  0.00    +0.000 OA
ATOM     25  H   UNL     1       6.531   3.140  19.299  0.00  0.00    +0.000 HD
ENDBRANCH   6  24
BRANCH   8  26
ATOM     26  O   UNL     1       7.459   5.879  15.632  0.00  0.00    +0.000 OA
ATOM     27  H   UNL     1       8.049   5.094  15.666  0.00  0.00    +0.000 HD
ENDBRANCH   8  26
TORSDOF 6
ENDMDL
MODEL 3
REMARK VINA RESULT:      -7.6      1.310      7.858
REMARK  Name = 
REMARK  8 active torsions:
REMARK  status: ('A' for Active; 'I' for Inactive)
REMARK    1  A    between atoms: C_1  and  O_2
REMARK    2  A    between atoms: O_2  and  C_3
REMARK    3  A    between atoms: C_5  and  C_6
REMARK    4  A    between atoms: C_11  and  O_12
REMARK    5  A    between atoms: C_14  and  O_15
REMARK    6  A    between atoms: C_20  and  O_21
REMARK    7  A    between atoms: C_22  and  O_23
REMARK    8  A    between atoms: O_23  and  C_24
REMARK                            x       y       z     vdW  Elec       q    Type
REMARK                         _______ _______ _______ _____ _____    ______ ____
ROOT
ATOM      1  C   UNL     1       2.298   7.593  18.820  0.00  0.00    +0.000 A 
ATOM      2  C   UNL     1       1.876   8.527  17.970  0.00  0.00    +0.000 A 
ATOM      3  C   UNL     1       0.863   9.466  18.405  0.00  0.00    +0.000 A 
ATOM      4  O   UNL     1       0.178  10.110  17.628  0.00  0.00    +0.000 OA
ATOM      5  C   UNL     1       0.779   9.630  19.846  0.00  0.00    +0.000 A 
ATOM      6  C   UNL     1       0.402  10.855  20.385  0.00  0.00    +0.000 A 
ATOM      7  C   UNL     1       0.205  10.966  21.748  0.00  0.00    +0.000 A 
ATOM      8  C   UNL     1       0.371   9.832  22.543  0.00  0.00    +0.000 A 
ATOM      9  C   UNL     1       0.853   8.624  22.015  0.00  0.00    +0.000 A 
ATOM     10  C   UNL     1       1.129   8.547  20.650  0.00  0.00    +0.000 A 
ATOM     11  O   UNL     1       1.806   7.456  20.123  0.00  0.00    +0.000 OA
ENDROOT
BRANCH   1  14
ATOM     12  C   UNL     1       4.829   4.711  18.702  0.00  0.00    +0.000 A 
ATOM     13  C   UNL     1       3.766   5.552  19.121  0.00  0.00    +0.000 A 
ATOM     14  C   UNL     1       3.369   6.665  18.369  0.00  0.00    +0.000 A 
ATOM     15  C   UNL     1       4.066   6.930  17.182  0.00  0.00    +0.000 A 
ATOM     16  C   UNL     1       5.135   6.142  16.789  0.00  0.00    +0.000 A 
ATOM     17  C   UNL     1       5.545   5.023  17.533  0.00  0.00    +0.000 A 
BRANCH  12  19
ATOM     18  C   UNL     1       4.237   2.607  19.618  0.00  0.00    +0.000 C 
ATOM     19  O   UNL     1       5.216   3.628  19.453  0.00  0.00    +0.000 OA
ENDBRANCH  12  19
BRANCH  16  20
ATOM     20  O   UNL     1       5.816   6.472  15.643  0.00  0.00    +0.000 OA
ATOM     21  H   UNL     1       6.658   6.890  15.875  0.00  0.00    +0.000 HD
ENDBRANCH  16  20
BRANCH  17  22
ATOM     22  O   UNL     1       6.654   4.422  17.007  0.00  0.00    +0.000 OA
ATOM     23  C   UNL     1       7.913   4.480  17.642  0.00  0.00    +0.000 C 
ENDBRANCH  17  22
ENDBRANCH   1  14
BRANCH   6  24
ATOM     24  O   UNL     1       0.291  11.988  19.626  0.00  0.00    +0.000 OA
ATOM     25  H   UNL     1      -0.661  12.160  19.457  0.00  0.00    +0.000 HD
ENDBRANCH   6  24
BRANCH   8  26
ATOM     26  O   UNL     1       0.098   9.886  23.887  0.00  0.00    +0.000 OA
ATOM     27  H   UNL     1       0.653  10.602  24.269  0.00  0.00    +0.000 HD
ENDBRANCH   8  26
TORSDOF 6
ENDMDL
MODEL 4
REMARK VINA RESULT:      -7.5      1.528      7.753
REMARK  Name = 
REMARK  8 active torsions:
REMARK  status: ('A' for Active; 'I' for Inactive)
REMARK    1  A    between atoms: C_1  and  O_2
REMARK    2  A    between atoms: O_2  and  C_3
REMARK    3  A    between atoms: C_5  and  C_6
REMARK    4  A    between atoms: C_11  and  O_12
REMARK    5  A    between atoms: C_14  and  O_15
REMARK    6  A    between atoms: C_20  and  O_21
REMARK    7  A    between atoms: C_22  and  O_23
REMARK    8  A    between atoms: O_23  and  C_24
REMARK                            x       y       z     vdW  Elec       q    Type
REMARK                         _______ _______ _______ _____ _____    ______ ____
ROOT
ATOM      1  C   UNL     1       2.335   7.620  18.567  0.00  0.00    +0.000 A 
ATOM      2  C   UNL     1       1.839   8.570  17.776  0.00  0.00    +0.000 A 
ATOM      3  C   UNL     1       0.832   9.466  18.303  0.00  0.00    +0.000 A 
ATOM      4  O   UNL     1       0.086  10.117  17.591  0.00  0.00    +0.000 OA
ATOM      5  C   UNL     1       0.830   9.580  19.751  0.00  0.00    +0.000 A 
ATOM      6  C   UNL     1       0.456  10.776  20.354  0.00  0.00    +0.000 A 
ATOM      7  C   UNL     1       0.339  10.835  21.729  0.00  0.00    +0.000 A 
ATOM      8  C   UNL     1       0.579   9.680  22.473  0.00  0.00    +0.000 A 
ATOM      9  C   UNL     1       1.058   8.504  21.875  0.00  0.00    +0.000 A 
ATOM     10  C   UNL     1       1.254   8.480  20.494  0.00  0.00    +0.000 A 
ATOM     11  O   UNL     1       1.925   7.425  19.891  0.00  0.00    +0.000 OA
ENDROOT
BRANCH   1  14
ATOM     12  C   UNL     1       5.602   6.378  16.982  0.00  0.00    +0.000 A 
ATOM     13  C   UNL     1       4.622   7.230  17.552  0.00  0.00    +0.000 A 
ATOM     14  C   UNL     1       3.399   6.735  18.021  0.00  0.00    +0.000 A 
ATOM     15  C   UNL     1       3.166   5.358  17.902  0.00  0.00    +0.000 A 
ATOM     16  C   UNL     1       4.097   4.524  17.303  0.00  0.00    +0.000 A 
ATOM     17  C   UNL     1       5.328   5.008  16.828  0.00  0.00    +0.000 A 
BRANCH  12  19
ATOM     18  C   UNL     1       7.613   7.526  17.482  0.00  0.00    +0.000 C 
ATOM     19  O   UNL     1       6.793   6.877  16.515  0.00  0.00    +0.000 OA
ENDBRANCH  12  19
BRANCH  16  20
ATOM     20  O   UNL     1       3.801   3.191  17.166  0.00  0.00    +0.000 OA
ATOM     21  H   UNL     1       2.894   3.091  16.841  0.00  0.00    +0.000 HD
ENDBRANCH  16  20
BRANCH  17  22
ATOM     22  O   UNL     1       6.071   4.036  16.219  0.00  0.00    +0.000 OA
ATOM     23  C   UNL     1       6.219   3.971  14.816  0.00  0.00    +0.000 C 
ENDBRANCH  17  22
ENDBRANCH   1  14
BRANCH   6  24
ATOM     24  O   UNL     1       0.272  11.930  19.643  0.00  0.00    +0.000 OA
ATOM     25  H   UNL     1      -0.691  12.075  19.524  0.00  0.00    +0.000 HD
ENDBRANCH   6  24
BRANCH   8  26
ATOM     26  O   UNL     1       0.386   9.682  23.832  0.00  0.00    +0.000 OA
ATOM     27  H   UNL     1      -0.309  10.349  24.027  0.00  0.00    +0.000 HD
ENDBRANCH   8  26
TORSDOF 6
ENDMDL
MODEL 5
REMARK VINA RESULT:      -7.5      1.552      7.574
REMARK  Name = 
REMARK  8 active torsions:
REMARK  status: ('A' for Active; 'I' for Inactive)
REMARK    1  A    between atoms: C_1  and  O_2
REMARK    2  A    between atoms: O_2  and  C_3
REMARK    3  A    between atoms: C_5  and  C_6
REMARK    4  A    between atoms: C_11  and  O_12
REMARK    5  A    between atoms: C_14  and  O_15
REMARK    6  A    between atoms: C_20  and  O_21
REMARK    7  A    between atoms: C_22  and  O_23
REMARK    8  A    between atoms: O_23  and  C_24
REMARK                            x       y       z     vdW  Elec       q    Type
REMARK                         _______ _______ _______ _____ _____    ______ ____
ROOT
ATOM      1  C   UNL     1       1.753   7.999  20.085  0.00  0.00    +0.000 A 
ATOM      2  C   UNL     1       1.487   8.234  21.369  0.00  0.00    +0.000 A 
ATOM      3  C   UNL     1       0.953   9.525  21.749  0.00  0.00    +0.000 A 
ATOM      4  O   UNL     1       1.005   9.954  22.890  0.00  0.00    +0.000 OA
ATOM      5  C   UNL     1       0.288  10.238  20.673  0.00  0.00    +0.000 A 
ATOM      6  C   UNL     1      -0.781  11.082  20.955  0.00  0.00    +0.000 A 
ATOM      7  C   UNL     1      -1.327  11.848  19.943  0.00  0.00    +0.000 A 
ATOM      8  C   UNL     1      -0.770  11.768  18.667  0.00  0.00    +0.000 A 
ATOM      9  C   UNL     1       0.239  10.841  18.358  0.00  0.00    +0.000 A 
ATOM     10  C   UNL     1       0.724  10.011  19.369  0.00  0.00    +0.000 A 
ATOM     11  O   UNL     1       1.556   8.941  19.070  0.00  0.00    +0.000 OA
ENDROOT
BRANCH   1  14
ATOM     12  C   UNL     1       2.716   4.286  20.212  0.00  0.00    +0.000 A 
ATOM     13  C   UNL     1       2.174   5.548  20.565  0.00  0.00    +0.000 A 
ATOM     14  C   UNL     1       2.261   6.652  19.709  0.00  0.00    +0.000 A 
ATOM     15  C   UNL     1       2.914   6.473  18.481  0.00  0.00    +0.000 A 
ATOM     16  C   UNL     1       3.488   5.257  18.147  0.00  0.00    +0.000 A 
ATOM     17  C   UNL     1       3.408   4.141  18.997  0.00  0.00    +0.000 A 
BRANCH  12  19
ATOM     18  C   UNL     1       1.316   2.793  21.406  0.00  0.00    +0.000 C 
ATOM     19  O   UNL     1       2.634   3.213  21.066  0.00  0.00    +0.000 OA
ENDBRANCH  12  19
BRANCH  16  20
ATOM     20  O   UNL     1       4.158   5.146  16.955  0.00  0.00    +0.000 OA
ATOM     21  H   UNL     1       4.911   5.756  16.947  0.00  0.00    +0.000 HD
ENDBRANCH  16  20
BRANCH  17  22
ATOM     22  O   UNL     1       4.091   3.062  18.509  0.00  0.00    +0.000 OA
ATOM     23  C   UNL     1       3.435   1.889  18.079  0.00  0.00    +0.000 C 
ENDBRANCH  17  22
ENDBRANCH   1  14
BRANCH   6  24
ATOM     24  O   UNL     1      -1.373  11.129  22.187  0.00  0.00    +0.000 OA
ATOM     25  H   UNL     1      -2.036  11.853  22.189  0.00  0.00    +0.000 HD
ENDBRANCH   6  24
BRANCH   8  26
ATOM     26  O   UNL     1      -1.230  12.581  17.661  0.00  0.00    +0.000 OA
ATOM     27  H   UNL     1      -0.503  13.201  17.431  0.00  0.00    +0.000 HD
ENDBRANCH   8  26
TORSDOF 6
ENDMDL
MODEL 6
REMARK VINA RESULT:      -7.4      1.598      7.415
REMARK  Name = 
REMARK  8 active torsions:
REMARK  status: ('A' for Active; 'I' for Inactive)
REMARK    1  A    between atoms: C_1  and  O_2
REMARK    2  A    between atoms: O_2  and  C_3
REMARK    3  A    between atoms: C_5  and  C_6
REMARK    4  A    between atoms: C_11  and  O_12
REMARK    5  A    between atoms: C_14  and  O_15
REMARK    6  A    between atoms: C_20  and  O_21
REMARK    7  A    between atoms: C_22  and  O_23
REMARK    8  A    between atoms: O_23  and  C_24
REMARK                            x       y       z     vdW  Elec       q    Type
REMARK                         _______ _______ _______ _____ _____    ______ ____
ROOT
ATOM      1  C   UNL     1       1.555   7.952  20.424  0.00  0.00    +0.000 A 
ATOM      2  C   UNL     1       1.226   8.297  21.667  0.00  0.00    +0.000 A 
ATOM      3  C   UNL     1       0.730   9.634  21.916  0.00  0.00    +0.000 A 
ATOM      4  O   UNL     1       0.733  10.148  23.022  0.00  0.00    +0.000 OA
ATOM      5  C   UNL     1       0.162  10.288  20.750  0.00  0.00    +0.000 A 
ATOM      6  C   UNL     1      -0.883  11.194  20.901  0.00  0.00    +0.000 A 
ATOM      7  C   UNL     1      -1.332  11.901  19.803  0.00  0.00    +0.000 A 
ATOM      8  C   UNL     1      -0.705  11.700  18.573  0.00  0.00    +0.000 A 
ATOM      9  C   UNL     1       0.276  10.711  18.398  0.00  0.00    +0.000 A 
ATOM     10  C   UNL     1       0.664   9.943  19.496  0.00  0.00    +0.000 A 
ATOM     11  O   UNL     1       1.462   8.820  19.331  0.00  0.00    +0.000 OA
ENDROOT
BRANCH   1  14
ATOM     12  C   UNL     1       3.592   4.940  19.196  0.00  0.00    +0.000 A 
ATOM     13  C   UNL     1       3.193   6.273  19.467  0.00  0.00    +0.000 A 
ATOM     14  C   UNL     1       2.023   6.561  20.181  0.00  0.00    +0.000 A 
ATOM     15  C   UNL     1       1.245   5.479  20.617  0.00  0.00    +0.000 A 
ATOM     16  C   UNL     1       1.602   4.174  20.316  0.00  0.00    +0.000 A 
ATOM     17  C   UNL     1       2.773   3.872  19.601  0.00  0.00    +0.000 A 
BRANCH  12  19
ATOM     18  C   UNL     1       5.948   5.155  19.058  0.00  0.00    +0.000 C 
ATOM     19  O   UNL     1       4.737   4.671  18.486  0.00  0.00    +0.000 OA
ENDBRANCH  12  19
BRANCH  16  20
ATOM     20  O   UNL     1       0.781   3.152  20.724  0.00  0.00    +0.000 OA
ATOM     21  H   UNL     1       1.318   2.420  21.062  0.00  0.00    +0.000 HD
ENDBRANCH  16  20
BRANCH  17  22
ATOM     22  O   UNL     1       2.906   2.533  19.358  0.00  0.00    +0.000 OA
ATOM     23  C   UNL     1       2.736   1.983  18.069  0.00  0.00    +0.000 C 
ENDBRANCH  17  22
ENDBRANCH   1  14
BRANCH   6  24
ATOM     24  O   UNL     1      -1.544  11.360  22.087  0.00  0.00    +0.000 OA
ATOM     25  H   UNL     1      -2.254  10.686  22.148  0.00  0.00    +0.000 HD
ENDBRANCH   6  24
BRANCH   8  26
ATOM     26  O   UNL     1      -1.068  12.451  17.483  0.00  0.00    +0.000 OA
ATOM     27  H   UNL     1      -0.959  13.396  17.729  0.00  0.00    +0.000 HD
ENDBRANCH   8  26
TORSDOF 6
ENDMDL
MODEL 7
REMARK VINA RESULT:      -7.3      1.558      2.912
REMARK  Name = 
REMARK  8 active torsions:
REMARK  status: ('A' for Active; 'I' for Inactive)
REMARK    1  A    between atoms: C_1  and  O_2
REMARK    2  A    between atoms: O_2  and  C_3
REMARK    3  A    between atoms: C_5  and  C_6
REMARK    4  A    between atoms: C_11  and  O_12
REMARK    5  A    between atoms: C_14  and  O_15
REMARK    6  A    between atoms: C_20  and  O_21
REMARK    7  A    between atoms: C_22  and  O_23
REMARK    8  A    between atoms: O_23  and  C_24
REMARK                            x       y       z     vdW  Elec       q    Type
REMARK                         _______ _______ _______ _____ _____    ______ ____
ROOT
ATOM      1  C   UNL     1       3.617   6.488  18.384  0.00  0.00    +0.000 A 
ATOM      2  C   UNL     1       4.221   5.734  19.301  0.00  0.00    +0.000 A 
ATOM      3  C   UNL     1       5.149   4.711  18.868  0.00  0.00    +0.000 A 
ATOM      4  O   UNL     1       5.474   3.769  19.572  0.00  0.00    +0.000 OA
ATOM      5  C   UNL     1       5.717   4.937  17.551  0.00  0.00    +0.000 A 
ATOM      6  C   UNL     1       7.006   4.501  17.265  0.00  0.00    +0.000 A 
ATOM      7  C   UNL     1       7.490   4.610  15.976  0.00  0.00    +0.000 A 
ATOM      8  C   UNL     1       6.657   5.137  14.990  0.00  0.00    +0.000 A 
ATOM      9  C   UNL     1       5.396   5.674  15.297  0.00  0.00    +0.000 A 
ATOM     10  C   UNL     1       4.951   5.635  16.618  0.00  0.00    +0.000 A 
ATOM     11  O   UNL     1       3.820   6.340  17.007  0.00  0.00    +0.000 OA
ENDROOT
BRANCH   1  14
ATOM     12  C   UNL     1       1.060   8.474  20.443  0.00  0.00    +0.000 A 
ATOM     13  C   UNL     1       1.974   7.466  20.044  0.00  0.00    +0.000 A 
ATOM     14  C   UNL     1       2.699   7.561  18.850  0.00  0.00    +0.000 A 
ATOM     15  C   UNL     1       2.485   8.691  18.047  0.00  0.00    +0.000 A 
ATOM     16  C   UNL     1       1.559   9.658  18.405  0.00  0.00    +0.000 A 
ATOM     17  C   UNL     1       0.825   9.575  19.601  0.00  0.00    +0.000 A 
BRANCH  12  19
ATOM     18  C   UNL     1       0.729   9.253  22.657  0.00  0.00    +0.000 C 
ATOM     19  O   UNL     1       0.347   8.364  21.612  0.00  0.00    +0.000 OA
ENDBRANCH  12  19
BRANCH  16  20
ATOM     20  O   UNL     1       1.350  10.720  17.562  0.00  0.00    +0.000 OA
ATOM     21  H   UNL     1       0.641  11.278  17.912  0.00  0.00    +0.000 HD
ENDBRANCH  16  20
BRANCH  17  22
ATOM     22  O   UNL     1      -0.076  10.594  19.733  0.00  0.00    +0.000 OA
ATOM     23  C   UNL     1      -1.380  10.519  19.198  0.00  0.00    +0.000 C 
ENDBRANCH  17  22
ENDBRANCH   1  14
BRANCH   6  24
ATOM     24  O   UNL     1       7.854   4.035  18.232  0.00  0.00    +0.000 OA
ATOM     25  H   UNL     1       8.264   3.202  17.914  0.00  0.00    +0.000 HD
ENDBRANCH   6  24
BRANCH   8  26
ATOM     26  O   UNL     1       7.075   5.178  13.683  0.00  0.00    +0.000 OA
ATOM     27  H   UNL     1       6.349   5.581  13.156  0.00  0.00    +0.000 HD
ENDBRANCH   8  26
TORSDOF 6
ENDMDL
MODEL 8
REMARK VINA RESULT:      -7.3      1.501      7.813
REMARK  Name = 
REMARK  8 active torsions:
REMARK  status: ('A' for Active; 'I' for Inactive)
REMARK    1  A    between atoms: C_1  and  O_2
REMARK    2  A    between atoms: O_2  and  C_3
REMARK    3  A    between atoms: C_5  and  C_6
REMARK    4  A    between atoms: C_11  and  O_12
REMARK    5  A    between atoms: C_14  and  O_15
REMARK    6  A    between atoms: C_20  and  O_21
REMARK    7  A    between atoms: C_22  and  O_23
REMARK    8  A    between atoms: O_23  and  C_24
REMARK                            x       y       z     vdW  Elec       q    Type
REMARK                         _______ _______ _______ _____ _____    ______ ____
ROOT
ATOM      1  C   UNL     1       2.220   7.648  18.511  0.00  0.00    +0.000 A 
ATOM      2  C   UNL     1       1.741   8.635  17.755  0.00  0.00    +0.000 A 
ATOM      3  C   UNL     1       0.777   9.551  18.326  0.00  0.00    +0.000 A 
ATOM      4  O   UNL     1       0.039  10.245  17.648  0.00  0.00    +0.000 OA
ATOM      5  C   UNL     1       0.811   9.628  19.776  0.00  0.00    +0.000 A 
ATOM      6  C   UNL     1       0.492  10.820  20.417  0.00  0.00    +0.000 A 
ATOM      7  C   UNL     1       0.406  10.848  21.796  0.00  0.00    +0.000 A 
ATOM      8  C   UNL     1       0.622   9.667  22.505  0.00  0.00    +0.000 A 
ATOM      9  C   UNL     1       1.047   8.490  21.868  0.00  0.00    +0.000 A 
ATOM     10  C   UNL     1       1.212   8.495  20.483  0.00  0.00    +0.000 A 
ATOM     11  O   UNL     1       1.832   7.434  19.838  0.00  0.00    +0.000 OA
ENDROOT
BRANCH   1  14
ATOM     12  C   UNL     1       4.115   4.498  17.410  0.00  0.00    +0.000 A 
ATOM     13  C   UNL     1       3.105   5.348  17.927  0.00  0.00    +0.000 A 
ATOM     14  C   UNL     1       3.240   6.742  17.920  0.00  0.00    +0.000 A 
ATOM     15  C   UNL     1       4.423   7.277  17.388  0.00  0.00    +0.000 A 
ATOM     16  C   UNL     1       5.436   6.453  16.924  0.00  0.00    +0.000 A 
ATOM     17  C   UNL     1       5.312   5.054  16.925  0.00  0.00    +0.000 A 
BRANCH  12  19
ATOM     18  C   UNL     1       2.651   2.649  17.644  0.00  0.00    +0.000 C 
ATOM     19  O   UNL     1       3.975   3.132  17.433  0.00  0.00    +0.000 OA
ENDBRANCH  12  19
BRANCH  16  20
ATOM     20  O   UNL     1       6.593   7.025  16.458  0.00  0.00    +0.000 OA
ATOM     21  H   UNL     1       6.941   7.639  17.120  0.00  0.00    +0.000 HD
ENDBRANCH  16  20
BRANCH  17  22
ATOM     22  O   UNL     1       6.445   4.428  16.486  0.00  0.00    +0.000 OA
ATOM     23  C   UNL     1       6.593   3.990  15.152  0.00  0.00    +0.000 C 
ENDBRANCH  17  22
ENDBRANCH   1  14
BRANCH   6  24
ATOM     24  O   UNL     1       0.333  11.997  19.739  0.00  0.00    +0.000 OA
ATOM     25  H   UNL     1      -0.069  11.804  18.865  0.00  0.00    +0.000 HD
ENDBRANCH   6  24
BRANCH   8  26
ATOM     26  O   UNL     1       0.458   9.640  23.868  0.00  0.00    +0.000 OA
ATOM     27  H   UNL     1       1.355   9.627  24.270  0.00  0.00    +0.000 HD
ENDBRANCH   8  26
TORSDOF 6
ENDMDL
MODEL 9
REMARK VINA RESULT:      -7.3      2.046      3.994
REMARK  Name = 
REMARK  8 active torsions:
REMARK  status: ('A' for Active; 'I' for Inactive)
REMARK    1  A    between atoms: C_1  and  O_2
REMARK    2  A    between atoms: O_2  and  C_3
REMARK    3  A    between atoms: C_5  and  C_6
REMARK    4  A    between atoms: C_11  and  O_12
REMARK    5  A    between atoms: C_14  and  O_15
REMARK    6  A    between atoms: C_20  and  O_21
REMARK    7  A    between atoms: C_22  and  O_23
REMARK    8  A    between atoms: O_23  and  C_24
REMARK                            x       y       z     vdW  Elec       q    Type
REMARK                         _______ _______ _______ _____ _____    ______ ____
ROOT
ATOM      1  C   UNL     1       2.268   7.234  19.092  0.00  0.00    +0.000 A 
ATOM      2  C   UNL     1       2.633   6.709  17.924  0.00  0.00    +0.000 A 
ATOM      3  C   UNL     1       3.019   5.314  17.872  0.00  0.00    +0.000 A 
ATOM      4  O   UNL     1       3.681   4.844  16.963  0.00  0.00    +0.000 OA
ATOM      5  C   UNL     1       2.491   4.507  18.957  0.00  0.00    +0.000 A 
ATOM      6  C   UNL     1       2.192   3.165  18.743  0.00  0.00    +0.000 A 
ATOM      7  C   UNL     1       1.809   2.376  19.811  0.00  0.00    +0.000 A 
ATOM      8  C   UNL     1       1.754   2.949  21.081  0.00  0.00    +0.000 A 
ATOM      9  C   UNL     1       1.952   4.324  21.281  0.00  0.00    +0.000 A 
ATOM     10  C   UNL     1       2.256   5.128  20.182  0.00  0.00    +0.000 A 
ATOM     11  O   UNL     1       2.246   6.512  20.290  0.00  0.00    +0.000 OA
ENDROOT
BRANCH   1  14
ATOM     12  C   UNL     1       0.370  10.465  19.923  0.00  0.00    +0.000 A 
ATOM     13  C   UNL     1       0.809   9.116  19.953  0.00  0.00    +0.000 A 
ATOM     14  C   UNL     1       1.835   8.657  19.119  0.00  0.00    +0.000 A 
ATOM     15  C   UNL     1       2.416   9.578  18.236  0.00  0.00    +0.000 A 
ATOM     16  C   UNL     1       1.963  10.885  18.165  0.00  0.00    +0.000 A 
ATOM     17  C   UNL     1       0.935  11.359  18.997  0.00  0.00    +0.000 A 
BRANCH  12  19
ATOM     18  C   UNL     1      -0.287  11.139  22.097  0.00  0.00    +0.000 C 
ATOM     19  O   UNL     1      -0.645  10.901  20.739  0.00  0.00    +0.000 OA
ENDBRANCH  12  19
BRANCH  16  20
ATOM     20  O   UNL     1       2.532  11.735  17.251  0.00  0.00    +0.000 OA
ATOM     21  H   UNL     1       2.496  12.644  17.584  0.00  0.00    +0.000 HD
ENDBRANCH  16  20
BRANCH  17  22
ATOM     22  O   UNL     1       0.597  12.656  18.724  0.00  0.00    +0.000 OA
ATOM     23  C   UNL     1      -0.655  13.007  18.174  0.00  0.00    +0.000 C 
ENDBRANCH  17  22
ENDBRANCH   1  14
BRANCH   6  24
ATOM     24  O   UNL     1       2.187   2.605  17.496  0.00  0.00    +0.000 OA
ATOM     25  H   UNL     1       1.276   2.654  17.133  0.00  0.00    +0.000 HD
ENDBRANCH   6  24
BRANCH   8  26
ATOM     26  O   UNL     1       1.462   2.173  22.176  0.00  0.00    +0.000 OA
ATOM     27  H   UNL     1       2.312   1.809  22.511  0.00  0.00    +0.000 HD
ENDBRANCH   8  26
TORSDOF 6
ENDMDL
