MODEL 1
REMARK VINA RESULT:      -7.8      0.000      0.000
REMARK  Name = 
REMARK  11 active torsions:
REMARK  status: ('A' for Active; 'I' for Inactive)
REMARK    1  A    between atoms: C_1  and  N_2
REMARK    2  A    between atoms: C_3  and  C_5
REMARK    3  A    between atoms: C_5  and  C_6
REMARK    4  A    between atoms: C_6  and  C_7
REMARK    5  A    between atoms: C_7  and  C_8
REMARK    6  A    between atoms: C_7  and  C_9
REMARK    7  A    between atoms: C_7  and  N_10
REMARK    8  A    between atoms: C_11  and  C_13
REMARK    9  A    between atoms: C_13  and  C_14
REMARK   10  A    between atoms: C_14  and  C_15
REMARK   11  A    between atoms: C_19  and  O_20
REMARK                            x       y       z     vdW  Elec       q    Type
REMARK                         _______ _______ _______ _____ _____    ______ ____
ROOT
ATOM      1  N   UNL     1       5.569   5.942  18.171  0.00  0.00    +0.000 N 
ATOM      2  C   UNL     1       4.674   6.627  17.379  0.00  0.00    +0.000 C 
ATOM      3  O   UNL     1       4.963   7.223  16.346  0.00  0.00    +0.000 OA
ATOM      4  H   UNL     1       5.200   5.476  18.983  0.00  0.00    +0.000 HD
ENDROOT
BRANCH   1   5
ATOM      5  C   UNL     1       7.040   5.879  18.047  0.00  0.00    +0.000 C 
ATOM      6  C   UNL     1       7.639   5.732  19.461  0.00  0.00    +0.000 C 
ATOM      7  C   UNL     1       7.657   7.134  17.409  0.00  0.00    +0.000 C 
BRANCH   5   8
ATOM      8  C   UNL     1       7.408   4.656  17.160  0.00  0.00    +0.000 C 
BRANCH   8   9
ATOM      9  C   UNL     1       6.337   4.217  16.152  0.00  0.00    +0.000 C 
BRANCH   9  12
ATOM     10  C   UNL     1       6.504   3.608  12.428  0.00  0.00    +0.000 C 
ATOM     11  N   UNL     1       6.204   3.555  13.836  0.00  0.00    +0.000 N 
ATOM     12  C   UNL     1       6.762   4.458  14.715  0.00  0.00    +0.000 C 
ATOM     13  O   UNL     1       7.523   5.355  14.370  0.00  0.00    +0.000 OA
ATOM     14  H   UNL     1       5.599   2.820  14.180  0.00  0.00    +0.000 HD
ENDBRANCH   9  12
ENDBRANCH   8   9
ENDBRANCH   5   8
ENDBRANCH   1   5
BRANCH   2  15
ATOM     15  C   UNL     1       3.222   6.540  17.817  0.00  0.00    +0.000 C 
BRANCH  15  16
ATOM     16  C   UNL     1       3.052   6.153  19.280  0.00  0.00    +0.000 C 
BRANCH  16  17
ATOM     17  C   UNL     1       2.398   4.813  19.449  0.00  0.00    +0.000 A 
ATOM     18  C   UNL     1       1.590   4.550  20.563  0.00  0.00    +0.000 A 
ATOM     19  C   UNL     1       1.029   3.284  20.734  0.00  0.00    +0.000 A 
ATOM     20  C   UNL     1       1.266   2.276  19.796  0.00  0.00    +0.000 A 
ATOM     21  C   UNL     1       2.049   2.550  18.682  0.00  0.00    +0.000 A 
ATOM     22  C   UNL     1       2.605   3.807  18.498  0.00  0.00    +0.000 A 
BRANCH  21  23
ATOM     23  O   UNL     1       2.313   1.599  17.740  0.00  0.00    +0.000 OA
ATOM     24  H   UNL     1       1.525   1.492  17.185  0.00  0.00    +0.000 HD
ENDBRANCH  21  23
ENDBRANCH  16  17
ENDBRANCH  15  16
ENDBRANCH   2  15
TORSDOF 8
ENDMDL
MODEL 2
REMARK VINA RESULT:      -7.6      3.739      7.473
REMARK  Name = 
REMARK  11 active torsions:
REMARK  status: ('A' for Active; 'I' for Inactive)
REMARK    1  A    between atoms: C_1  and  N_2
REMARK    2  A    between atoms: C_3  and  C_5
REMARK    3  A    between atoms: C_5  and  C_6
REMARK    4  A    between atoms: C_6  and  C_7
REMARK    5  A    between atoms: C_7  and  C_8
REMARK    6  A    between atoms: C_7  and  C_9
REMARK    7  A    between atoms: C_7  and  N_10
REMARK    8  A    between atoms: C_11  and  C_13
REMARK    9  A    between atoms: C_13  and  C_14
REMARK   10  A    between atoms: C_14  and  C_15
REMARK   11  A    between atoms: C_19  and  O_20
REMARK                            x       y       z     vdW  Elec       q    Type
REMARK                         _______ _______ _______ _____ _____    ______ ____
ROOT
ATOM      1  N   UNL     1       6.742   6.425  18.407  0.00  0.00    +0.000 N 
ATOM      2  C   UNL     1       7.644   7.222  17.736  0.00  0.00    +0.000 C 
ATOM      3  O   UNL     1       7.807   7.230  16.520  0.00  0.00    +0.000 OA
ATOM      4  H   UNL     1       6.691   6.530  19.407  0.00  0.00    +0.000 HD
ENDROOT
BRANCH   1   5
ATOM      5  C   UNL     1       5.892   5.345  17.862  0.00  0.00    +0.000 C 
ATOM      6  C   UNL     1       4.693   5.991  17.139  0.00  0.00    +0.000 C 
ATOM      7  C   UNL     1       5.333   4.402  18.940  0.00  0.00    +0.000 C 
BRANCH   5   8
ATOM      8  C   UNL     1       6.744   4.499  16.874  0.00  0.00    +0.000 C 
BRANCH   8   9
ATOM      9  C   UNL     1       5.975   3.852  15.714  0.00  0.00    +0.000 C 
BRANCH   9  12
ATOM     10  C   UNL     1       6.656   3.538  12.012  0.00  0.00    +0.000 C 
ATOM     11  N   UNL     1       6.199   3.350  13.365  0.00  0.00    +0.000 N 
ATOM     12  C   UNL     1       6.537   4.243  14.360  0.00  0.00    +0.000 C 
ATOM     13  O   UNL     1       7.222   5.241  14.166  0.00  0.00    +0.000 OA
ATOM     14  H   UNL     1       5.649   2.529  13.587  0.00  0.00    +0.000 HD
ENDBRANCH   9  12
ENDBRANCH   8   9
ENDBRANCH   5   8
ENDBRANCH   1   5
BRANCH   2  15
ATOM     15  C   UNL     1       8.413   8.202  18.605  0.00  0.00    +0.000 C 
BRANCH  15  16
ATOM     16  C   UNL     1       8.336   9.641  18.110  0.00  0.00    +0.000 C 
BRANCH  16  17
ATOM     17  C   UNL     1       9.440  10.497  18.656  0.00  0.00    +0.000 A 
ATOM     18  C   UNL     1       9.497  10.802  20.022  0.00  0.00    +0.000 A 
ATOM     19  C   UNL     1      10.500  11.641  20.508  0.00  0.00    +0.000 A 
ATOM     20  C   UNL     1      11.453  12.177  19.638  0.00  0.00    +0.000 A 
ATOM     21  C   UNL     1      11.405  11.852  18.289  0.00  0.00    +0.000 A 
ATOM     22  C   UNL     1      10.417  11.013  17.796  0.00  0.00    +0.000 A 
BRANCH  21  23
ATOM     23  O   UNL     1      12.310  12.353  17.399  0.00  0.00    +0.000 OA
ATOM     24  H   UNL     1      13.088  12.655  17.891  0.00  0.00    +0.000 HD
ENDBRANCH  21  23
ENDBRANCH  16  17
ENDBRANCH  15  16
ENDBRANCH   2  15
TORSDOF 8
ENDMDL
MODEL 3
REMARK VINA RESULT:      -7.5      1.083      1.552
REMARK  Name = 
REMARK  11 active torsions:
REMARK  status: ('A' for Active; 'I' for Inactive)
REMARK    1  A    between atoms: C_1  and  N_2
REMARK    2  A    between atoms: C_3  and  C_5
REMARK    3  A    between atoms: C_5  and  C_6
REMARK    4  A    between atoms: C_6  and  C_7
REMARK    5  A    between atoms: C_7  and  C_8
REMARK    6  A    between atoms: C_7  and  C_9
REMARK    7  A    between atoms: C_7  and  N_10
REMARK    8  A    between atoms: C_11  and  C_13
REMARK    9  A    between atoms: C_13  and  C_14
REMARK   10  A    between atoms: C_14  and  C_15
REMARK   11  A    between atoms: C_19  and  O_20
REMARK                            x       y       z     vdW  Elec       q    Type
REMARK                         _______ _______ _______ _____ _____    ______ ____
ROOT
ATOM      1  N   UNL     1       5.455   5.984  18.379  0.00  0.00    +0.000 N 
ATOM      2  C   UNL     1       4.457   6.704  17.759  0.00  0.00    +0.000 C 
ATOM      3  O   UNL     1       4.574   7.285  16.684  0.00  0.00    +0.000 OA
ATOM      4  H   UNL     1       5.224   5.535  19.250  0.00  0.00    +0.000 HD
ENDROOT
BRANCH   1   5
ATOM      5  C   UNL     1       6.874   5.859  17.986  0.00  0.00    +0.000 C 
ATOM      6  C   UNL     1       7.723   5.743  19.268  0.00  0.00    +0.000 C 
ATOM      7  C   UNL     1       7.398   7.065  17.189  0.00  0.00    +0.000 C 
BRANCH   5   8
ATOM      8  C   UNL     1       7.031   4.590  17.101  0.00  0.00    +0.000 C 
BRANCH   8   9
ATOM      9  C   UNL     1       5.998   4.428  15.977  0.00  0.00    +0.000 C 
BRANCH   9  12
ATOM     10  C   UNL     1       6.556   3.499  12.359  0.00  0.00    +0.000 C 
ATOM     11  N   UNL     1       6.076   3.598  13.713  0.00  0.00    +0.000 N 
ATOM     12  C   UNL     1       6.629   4.499  14.599  0.00  0.00    +0.000 C 
ATOM     13  O   UNL     1       7.534   5.270  14.301  0.00  0.00    +0.000 OA
ATOM     14  H   UNL     1       5.345   2.969  14.021  0.00  0.00    +0.000 HD
ENDBRANCH   9  12
ENDBRANCH   8   9
ENDBRANCH   5   8
ENDBRANCH   1   5
BRANCH   2  15
ATOM     15  C   UNL     1       3.109   6.678  18.458  0.00  0.00    +0.000 C 
BRANCH  15  16
ATOM     16  C   UNL     1       2.070   5.826  17.740  0.00  0.00    +0.000 C 
BRANCH  16  17
ATOM     17  C   UNL     1       1.998   4.428  18.282  0.00  0.00    +0.000 A 
ATOM     18  C   UNL     1       2.454   3.344  17.521  0.00  0.00    +0.000 A 
ATOM     19  C   UNL     1       2.334   2.045  18.015  0.00  0.00    +0.000 A 
ATOM     20  C   UNL     1       1.766   1.820  19.272  0.00  0.00    +0.000 A 
ATOM     21  C   UNL     1       1.338   2.900  20.032  0.00  0.00    +0.000 A 
ATOM     22  C   UNL     1       1.459   4.196  19.553  0.00  0.00    +0.000 A 
BRANCH  21  23
ATOM     23  O   UNL     1       0.773   2.732  21.262  0.00  0.00    +0.000 OA
ATOM     24  H   UNL     1       1.480   2.712  21.924  0.00  0.00    +0.000 HD
ENDBRANCH  21  23
ENDBRANCH  16  17
ENDBRANCH  15  16
ENDBRANCH   2  15
TORSDOF 8
ENDMDL
MODEL 4
REMARK VINA RESULT:      -7.4      1.484      2.048
REMARK  Name = 
REMARK  11 active torsions:
REMARK  status: ('A' for Active; 'I' for Inactive)
REMARK    1  A    between atoms: C_1  and  N_2
REMARK    2  A    between atoms: C_3  and  C_5
REMARK    3  A    between atoms: C_5  and  C_6
REMARK    4  A    between atoms: C_6  and  C_7
REMARK    5  A    between atoms: C_7  and  C_8
REMARK    6  A    between atoms: C_7  and  C_9
REMARK    7  A    between atoms: C_7  and  N_10
REMARK    8  A    between atoms: C_11  and  C_13
REMARK    9  A    between atoms: C_13  and  C_14
REMARK   10  A    between atoms: C_14  and  C_15
REMARK   11  A    between atoms: C_19  and  O_20
REMARK                            x       y       z     vdW  Elec       q    Type
REMARK                         _______ _______ _______ _____ _____    ______ ____
ROOT
ATOM      1  N   UNL     1       4.535   5.787  18.744  0.00  0.00    +0.000 N 
ATOM      2  C   UNL     1       3.285   6.368  18.751  0.00  0.00    +0.000 C 
ATOM      3  O   UNL     1       2.746   6.886  17.778  0.00  0.00    +0.000 OA
ATOM      4  H   UNL     1       4.854   5.376  19.606  0.00  0.00    +0.000 HD
ENDROOT
BRANCH   1   5
ATOM      5  C   UNL     1       5.532   5.772  17.654  0.00  0.00    +0.000 C 
ATOM      6  C   UNL     1       6.809   5.083  18.176  0.00  0.00    +0.000 C 
ATOM      7  C   UNL     1       5.927   7.174  17.164  0.00  0.00    +0.000 C 
BRANCH   5   8
ATOM      8  C   UNL     1       4.934   4.990  16.450  0.00  0.00    +0.000 C 
BRANCH   8   9
ATOM      9  C   UNL     1       5.828   3.894  15.855  0.00  0.00    +0.000 C 
BRANCH   9  12
ATOM     10  C   UNL     1       6.685   3.609  12.187  0.00  0.00    +0.000 C 
ATOM     11  N   UNL     1       6.173   3.404  13.518  0.00  0.00    +0.000 N 
ATOM     12  C   UNL     1       6.439   4.305  14.527  0.00  0.00    +0.000 C 
ATOM     13  O   UNL     1       7.099   5.324  14.366  0.00  0.00    +0.000 OA
ATOM     14  H   UNL     1       5.640   2.566  13.714  0.00  0.00    +0.000 HD
ENDBRANCH   9  12
ENDBRANCH   8   9
ENDBRANCH   5   8
ENDBRANCH   1   5
BRANCH   2  15
ATOM     15  C   UNL     1       2.527   6.259  20.063  0.00  0.00    +0.000 C 
BRANCH  15  16
ATOM     16  C   UNL     1       1.720   4.974  20.193  0.00  0.00    +0.000 C 
BRANCH  16  17
ATOM     17  C   UNL     1       2.371   3.814  19.499  0.00  0.00    +0.000 A 
ATOM     18  C   UNL     1       1.860   3.329  18.289  0.00  0.00    +0.000 A 
ATOM     19  C   UNL     1       2.444   2.217  17.681  0.00  0.00    +0.000 A 
ATOM     20  C   UNL     1       3.542   1.587  18.271  0.00  0.00    +0.000 A 
ATOM     21  C   UNL     1       4.059   2.087  19.459  0.00  0.00    +0.000 A 
ATOM     22  C   UNL     1       3.492   3.196  20.068  0.00  0.00    +0.000 A 
BRANCH  21  23
ATOM     23  O   UNL     1       5.127   1.505  20.077  0.00  0.00    +0.000 OA
ATOM     24  H   UNL     1       5.399   2.071  20.816  0.00  0.00    +0.000 HD
ENDBRANCH  21  23
ENDBRANCH  16  17
ENDBRANCH  15  16
ENDBRANCH   2  15
TORSDOF 8
ENDMDL
MODEL 5
REMARK VINA RESULT:      -7.3      2.247      3.685
REMARK  Name = 
REMARK  11 active torsions:
REMARK  status: ('A' for Active; 'I' for Inactive)
REMARK    1  A    between atoms: C_1  and  N_2
REMARK    2  A    between atoms: C_3  and  C_5
REMARK    3  A    between atoms: C_5  and  C_6
REMARK    4  A    between atoms: C_6  and  C_7
REMARK    5  A    between atoms: C_7  and  C_8
REMARK    6  A    between atoms: C_7  and  C_9
REMARK    7  A    between atoms: C_7  and  N_10
REMARK    8  A    between atoms: C_11  and  C_13
REMARK    9  A    between atoms: C_13  and  C_14
REMARK   10  A    between atoms: C_14  and  C_15
REMARK   11  A    between atoms: C_19  and  O_20
REMARK                            x       y       z     vdW  Elec       q    Type
REMARK                         _______ _______ _______ _____ _____    ______ ____
ROOT
ATOM      1  N   UNL     1       5.695   5.783  18.567  0.00  0.00    +0.000 N 
ATOM      2  C   UNL     1       5.076   4.718  19.186  0.00  0.00    +0.000 C 
ATOM      3  O   UNL     1       5.633   3.676  19.515  0.00  0.00    +0.000 OA
ATOM      4  H   UNL     1       5.129   6.591  18.370  0.00  0.00    +0.000 HD
ENDROOT
BRANCH   1   5
ATOM      5  C   UNL     1       7.078   5.865  18.052  0.00  0.00    +0.000 C 
ATOM      6  C   UNL     1       8.047   5.676  19.236  0.00  0.00    +0.000 C 
ATOM      7  C   UNL     1       7.407   7.214  17.392  0.00  0.00    +0.000 C 
BRANCH   5   8
ATOM      8  C   UNL     1       7.275   4.746  16.991  0.00  0.00    +0.000 C 
BRANCH   8   9
ATOM      9  C   UNL     1       6.111   4.543  16.010  0.00  0.00    +0.000 C 
BRANCH   9  12
ATOM     10  C   UNL     1       8.159   5.476  12.977  0.00  0.00    +0.000 C 
ATOM     11  N   UNL     1       7.596   5.371  14.298  0.00  0.00    +0.000 N 
ATOM     12  C   UNL     1       6.577   4.482  14.567  0.00  0.00    +0.000 C 
ATOM     13  O   UNL     1       6.099   3.728  13.727  0.00  0.00    +0.000 OA
ATOM     14  H   UNL     1       7.936   5.986  15.026  0.00  0.00    +0.000 HD
ENDBRANCH   9  12
ENDBRANCH   8   9
ENDBRANCH   5   8
ENDBRANCH   1   5
BRANCH   2  15
ATOM     15  C   UNL     1       3.614   4.935  19.540  0.00  0.00    +0.000 C 
BRANCH  15  16
ATOM     16  C   UNL     1       2.821   5.626  18.439  0.00  0.00    +0.000 C 
BRANCH  16  17
ATOM     17  C   UNL     1       2.327   6.982  18.850  0.00  0.00    +0.000 A 
ATOM     18  C   UNL     1       1.853   7.204  20.150  0.00  0.00    +0.000 A 
ATOM     19  C   UNL     1       1.349   8.456  20.504  0.00  0.00    +0.000 A 
ATOM     20  C   UNL     1       1.320   9.494  19.569  0.00  0.00    +0.000 A 
ATOM     21  C   UNL     1       1.813   9.274  18.289  0.00  0.00    +0.000 A 
ATOM     22  C   UNL     1       2.323   8.036  17.929  0.00  0.00    +0.000 A 
BRANCH  21  23
ATOM     23  O   UNL     1       1.803  10.253  17.339  0.00  0.00    +0.000 OA
ATOM     24  H   UNL     1       2.718  10.522  17.166  0.00  0.00    +0.000 HD
ENDBRANCH  21  23
ENDBRANCH  16  17
ENDBRANCH  15  16
ENDBRANCH   2  15
TORSDOF 8
ENDMDL
MODEL 6
REMARK VINA RESULT:      -7.3      2.716      6.391
REMARK  Name = 
REMARK  11 active torsions:
REMARK  status: ('A' for Active; 'I' for Inactive)
REMARK    1  A    between atoms: C_1  and  N_2
REMARK    2  A    between atoms: C_3  and  C_5
REMARK    3  A    between atoms: C_5  and  C_6
REMARK    4  A    between atoms: C_6  and  C_7
REMARK    5  A    between atoms: C_7  and  C_8
REMARK    6  A    between atoms: C_7  and  C_9
REMARK    7  A    between atoms: C_7  and  N_10
REMARK    8  A    between atoms: C_11  and  C_13
REMARK    9  A    between atoms: C_13  and  C_14
REMARK   10  A    between atoms: C_14  and  C_15
REMARK   11  A    between atoms: C_19  and  O_20
REMARK                            x       y       z     vdW  Elec       q    Type
REMARK                         _______ _______ _______ _____ _____    ______ ____
ROOT
ATOM      1  N   UNL     1       3.110   3.675  19.283  0.00  0.00    +0.000 N 
ATOM      2  C   UNL     1       3.402   2.949  18.148  0.00  0.00    +0.000 C 
ATOM      3  O   UNL     1       2.629   2.176  17.591  0.00  0.00    +0.000 OA
ATOM      4  H   UNL     1       3.825   4.292  19.629  0.00  0.00    +0.000 HD
ENDROOT
BRANCH   1   5
ATOM      5  C   UNL     1       1.905   3.598  20.135  0.00  0.00    +0.000 C 
ATOM      6  C   UNL     1       2.245   2.751  21.378  0.00  0.00    +0.000 C 
ATOM      7  C   UNL     1       0.702   2.940  19.438  0.00  0.00    +0.000 C 
BRANCH   5   8
ATOM      8  C   UNL     1       1.497   5.042  20.543  0.00  0.00    +0.000 C 
BRANCH   8   9
ATOM      9  C   UNL     1       2.535   6.135  20.256  0.00  0.00    +0.000 C 
BRANCH   9  12
ATOM     10  C   UNL     1       1.728   9.039  17.980  0.00  0.00    +0.000 C 
ATOM     11  N   UNL     1       2.020   8.194  19.108  0.00  0.00    +0.000 N 
ATOM     12  C   UNL     1       2.274   6.849  18.942  0.00  0.00    +0.000 C 
ATOM     13  O   UNL     1       2.283   6.294  17.850  0.00  0.00    +0.000 OA
ATOM     14  H   UNL     1       2.003   8.595  20.038  0.00  0.00    +0.000 HD
ENDBRANCH   9  12
ENDBRANCH   8   9
ENDBRANCH   5   8
ENDBRANCH   1   5
BRANCH   2  15
ATOM     15  C   UNL     1       4.765   3.223  17.537  0.00  0.00    +0.000 C 
BRANCH  15  16
ATOM     16  C   UNL     1       4.880   4.605  16.907  0.00  0.00    +0.000 C 
BRANCH  16  17
ATOM     17  C   UNL     1       5.965   5.433  17.531  0.00  0.00    +0.000 A 
ATOM     18  C   UNL     1       6.484   6.549  16.861  0.00  0.00    +0.000 A 
ATOM     19  C   UNL     1       7.528   7.280  17.430  0.00  0.00    +0.000 A 
ATOM     20  C   UNL     1       8.056   6.907  18.668  0.00  0.00    +0.000 A 
ATOM     21  C   UNL     1       7.521   5.814  19.338  0.00  0.00    +0.000 A 
ATOM     22  C   UNL     1       6.478   5.085  18.786  0.00  0.00    +0.000 A 
BRANCH  21  23
ATOM     23  O   UNL     1       8.004   5.408  20.547  0.00  0.00    +0.000 OA
ATOM     24  H   UNL     1       8.841   4.942  20.402  0.00  0.00    +0.000 HD
ENDBRANCH  21  23
ENDBRANCH  16  17
ENDBRANCH  15  16
ENDBRANCH   2  15
TORSDOF 8
ENDMDL
MODEL 7
REMARK VINA RESULT:      -7.2      2.719      6.913
REMARK  Name = 
REMARK  11 active torsions:
REMARK  status: ('A' for Active; 'I' for Inactive)
REMARK    1  A    between atoms: C_1  and  N_2
REMARK    2  A    between atoms: C_3  and  C_5
REMARK    3  A    between atoms: C_5  and  C_6
REMARK    4  A    between atoms: C_6  and  C_7
REMARK    5  A    between atoms: C_7  and  C_8
REMARK    6  A    between atoms: C_7  and  C_9
REMARK    7  A    between atoms: C_7  and  N_10
REMARK    8  A    between atoms: C_11  and  C_13
REMARK    9  A    between atoms: C_13  and  C_14
REMARK   10  A    between atoms: C_14  and  C_15
REMARK   11  A    between atoms: C_19  and  O_20
REMARK                            x       y       z     vdW  Elec       q    Type
REMARK                         _______ _______ _______ _____ _____    ______ ____
ROOT
ATOM      1  N   UNL     1       2.999   4.481  18.542  0.00  0.00    +0.000 N 
ATOM      2  C   UNL     1       3.390   3.587  17.570  0.00  0.00    +0.000 C 
ATOM      3  O   UNL     1       3.055   2.408  17.524  0.00  0.00    +0.000 OA
ATOM      4  H   UNL     1       3.326   5.429  18.453  0.00  0.00    +0.000 HD
ENDROOT
BRANCH   1   5
ATOM      5  C   UNL     1       2.231   4.215  19.777  0.00  0.00    +0.000 C 
ATOM      6  C   UNL     1       3.069   3.285  20.676  0.00  0.00    +0.000 C 
ATOM      7  C   UNL     1       0.881   3.523  19.522  0.00  0.00    +0.000 C 
BRANCH   5   8
ATOM      8  C   UNL     1       1.954   5.570  20.486  0.00  0.00    +0.000 C 
BRANCH   8   9
ATOM      9  C   UNL     1       2.343   6.828  19.698  0.00  0.00    +0.000 C 
BRANCH   9  12
ATOM     10  C   UNL     1       1.061   9.209  22.335  0.00  0.00    +0.000 C 
ATOM     11  N   UNL     1       1.663   8.110  21.626  0.00  0.00    +0.000 N 
ATOM     12  C   UNL     1       1.685   8.081  20.247  0.00  0.00    +0.000 C 
ATOM     13  O   UNL     1       1.218   8.971  19.546  0.00  0.00    +0.000 OA
ATOM     14  H   UNL     1       2.044   7.335  22.155  0.00  0.00    +0.000 HD
ENDBRANCH   9  12
ENDBRANCH   8   9
ENDBRANCH   5   8
ENDBRANCH   1   5
BRANCH   2  15
ATOM     15  C   UNL     1       4.233   4.174  16.450  0.00  0.00    +0.000 C 
BRANCH  15  16
ATOM     16  C   UNL     1       5.718   3.861  16.581  0.00  0.00    +0.000 C 
BRANCH  16  17
ATOM     17  C   UNL     1       6.473   4.944  17.294  0.00  0.00    +0.000 A 
ATOM     18  C   UNL     1       6.764   6.153  16.650  0.00  0.00    +0.000 A 
ATOM     19  C   UNL     1       7.511   7.131  17.306  0.00  0.00    +0.000 A 
ATOM     20  C   UNL     1       7.968   6.913  18.609  0.00  0.00    +0.000 A 
ATOM     21  C   UNL     1       7.656   5.722  19.251  0.00  0.00    +0.000 A 
ATOM     22  C   UNL     1       6.907   4.746  18.611  0.00  0.00    +0.000 A 
BRANCH  21  23
ATOM     23  O   UNL     1       8.081   5.459  20.520  0.00  0.00    +0.000 OA
ATOM     24  H   UNL     1       7.719   4.603  20.794  0.00  0.00    +0.000 HD
ENDBRANCH  21  23
ENDBRANCH  16  17
ENDBRANCH  15  16
ENDBRANCH   2  15
TORSDOF 8
ENDMDL
MODEL 8
REMARK VINA RESULT:      -7.1      2.447      3.835
REMARK  Name = 
REMARK  11 active torsions:
REMARK  status: ('A' for Active; 'I' for Inactive)
REMARK    1  A    between atoms: C_1  and  N_2
REMARK    2  A    between atoms: C_3  and  C_5
REMARK    3  A    between atoms: C_5  and  C_6
REMARK    4  A    between atoms: C_6  and  C_7
REMARK    5  A    between atoms: C_7  and  C_8
REMARK    6  A    between atoms: C_7  and  C_9
REMARK    7  A    between atoms: C_7  and  N_10
REMARK    8  A    between atoms: C_11  and  C_13
REMARK    9  A    between atoms: C_13  and  C_14
REMARK   10  A    between atoms: C_14  and  C_15
REMARK   11  A    between atoms: C_19  and  O_20
REMARK                            x       y       z     vdW  Elec       q    Type
REMARK                         _______ _______ _______ _____ _____    ______ ____
ROOT
ATOM      1  N   UNL     1       5.556   5.718  18.267  0.00  0.00    +0.000 N 
ATOM      2  C   UNL     1       4.825   4.677  18.798  0.00  0.00    +0.000 C 
ATOM      3  O   UNL     1       5.305   3.654  19.277  0.00  0.00    +0.000 OA
ATOM      4  H   UNL     1       5.041   6.513  17.926  0.00  0.00    +0.000 HD
ENDROOT
BRANCH   1   5
ATOM      5  C   UNL     1       7.013   5.788  18.033  0.00  0.00    +0.000 C 
ATOM      6  C   UNL     1       7.728   5.673  19.395  0.00  0.00    +0.000 C 
ATOM      7  C   UNL     1       7.467   7.103  17.380  0.00  0.00    +0.000 C 
BRANCH   5   8
ATOM      8  C   UNL     1       7.418   4.616  17.095  0.00  0.00    +0.000 C 
BRANCH   8   9
ATOM      9  C   UNL     1       7.411   4.932  15.592  0.00  0.00    +0.000 C 
BRANCH   9  12
ATOM     10  C   UNL     1       5.451   3.461  12.718  0.00  0.00    +0.000 C 
ATOM     11  N   UNL     1       6.472   4.022  13.565  0.00  0.00    +0.000 N 
ATOM     12  C   UNL     1       6.211   4.333  14.882  0.00  0.00    +0.000 C 
ATOM     13  O   UNL     1       5.124   4.147  15.417  0.00  0.00    +0.000 OA
ATOM     14  H   UNL     1       7.383   4.218  13.169  0.00  0.00    +0.000 HD
ENDBRANCH   9  12
ENDBRANCH   8   9
ENDBRANCH   5   8
ENDBRANCH   1   5
BRANCH   2  15
ATOM     15  C   UNL     1       3.323   4.898  18.845  0.00  0.00    +0.000 C 
BRANCH  15  16
ATOM     16  C   UNL     1       2.877   5.792  19.995  0.00  0.00    +0.000 C 
BRANCH  16  17
ATOM     17  C   UNL     1       2.301   7.094  19.521  0.00  0.00    +0.000 A 
ATOM     18  C   UNL     1       2.450   7.496  18.188  0.00  0.00    +0.000 A 
ATOM     19  C   UNL     1       1.954   8.732  17.772  0.00  0.00    +0.000 A 
ATOM     20  C   UNL     1       1.303   9.571  18.680  0.00  0.00    +0.000 A 
ATOM     21  C   UNL     1       1.137   9.156  19.995  0.00  0.00    +0.000 A 
ATOM     22  C   UNL     1       1.619   7.926  20.417  0.00  0.00    +0.000 A 
BRANCH  21  23
ATOM     23  O   UNL     1       0.512   9.939  20.920  0.00  0.00    +0.000 OA
ATOM     24  H   UNL     1       1.076   9.994  21.707  0.00  0.00    +0.000 HD
ENDBRANCH  21  23
ENDBRANCH  16  17
ENDBRANCH  15  16
ENDBRANCH   2  15
TORSDOF 8
ENDMDL
MODEL 9
REMARK VINA RESULT:      -7.1      2.509      6.425
REMARK  Name = 
REMARK  11 active torsions:
REMARK  status: ('A' for Active; 'I' for Inactive)
REMARK    1  A    between atoms: C_1  and  N_2
REMARK    2  A    between atoms: C_3  and  C_5
REMARK    3  A    between atoms: C_5  and  C_6
REMARK    4  A    between atoms: C_6  and  C_7
REMARK    5  A    between atoms: C_7  and  C_8
REMARK    6  A    between atoms: C_7  and  C_9
REMARK    7  A    between atoms: C_7  and  N_10
REMARK    8  A    between atoms: C_11  and  C_13
REMARK    9  A    between atoms: C_13  and  C_14
REMARK   10  A    between atoms: C_14  and  C_15
REMARK   11  A    between atoms: C_19  and  O_20
REMARK                            x       y       z     vdW  Elec       q    Type
REMARK                         _______ _______ _______ _____ _____    ______ ____
ROOT
ATOM      1  N   UNL     1       3.119   3.516  19.216  0.00  0.00    +0.000 N 
ATOM      2  C   UNL     1       2.966   3.576  17.848  0.00  0.00    +0.000 C 
ATOM      3  O   UNL     1       1.916   3.837  17.270  0.00  0.00    +0.000 OA
ATOM      4  H   UNL     1       4.041   3.313  19.566  0.00  0.00    +0.000 HD
ENDROOT
BRANCH   1   5
ATOM      5  C   UNL     1       2.077   3.610  20.260  0.00  0.00    +0.000 C 
ATOM      6  C   UNL     1       2.550   2.808  21.489  0.00  0.00    +0.000 C 
ATOM      7  C   UNL     1       0.719   3.037  19.824  0.00  0.00    +0.000 C 
BRANCH   5   8
ATOM      8  C   UNL     1       1.877   5.109  20.621  0.00  0.00    +0.000 C 
BRANCH   8   9
ATOM      9  C   UNL     1       2.872   6.088  19.984  0.00  0.00    +0.000 C 
BRANCH   9  12
ATOM     10  C   UNL     1       2.033   9.099  17.863  0.00  0.00    +0.000 C 
ATOM     11  N   UNL     1       2.531   7.845  18.365  0.00  0.00    +0.000 N 
ATOM     12  C   UNL     1       2.233   7.422  19.643  0.00  0.00    +0.000 C 
ATOM     13  O   UNL     1       1.530   8.060  20.418  0.00  0.00    +0.000 OA
ATOM     14  H   UNL     1       3.137   7.287  17.775  0.00  0.00    +0.000 HD
ENDBRANCH   9  12
ENDBRANCH   8   9
ENDBRANCH   5   8
ENDBRANCH   1   5
BRANCH   2  15
ATOM     15  C   UNL     1       4.239   3.378  17.044  0.00  0.00    +0.000 C 
BRANCH  15  16
ATOM     16  C   UNL     1       4.729   4.649  16.362  0.00  0.00    +0.000 C 
BRANCH  16  17
ATOM     17  C   UNL     1       5.859   5.300  17.103  0.00  0.00    +0.000 A 
ATOM     18  C   UNL     1       6.550   4.605  18.104  0.00  0.00    +0.000 A 
ATOM     19  C   UNL     1       7.565   5.240  18.821  0.00  0.00    +0.000 A 
ATOM     20  C   UNL     1       7.901   6.567  18.541  0.00  0.00    +0.000 A 
ATOM     21  C   UNL     1       7.229   7.243  17.531  0.00  0.00    +0.000 A 
ATOM     22  C   UNL     1       6.224   6.619  16.807  0.00  0.00    +0.000 A 
BRANCH  21  23
ATOM     23  O   UNL     1       7.517   8.540  17.222  0.00  0.00    +0.000 OA
ATOM     24  H   UNL     1       7.263   9.097  17.974  0.00  0.00    +0.000 HD
ENDBRANCH  21  23
ENDBRANCH  16  17
ENDBRANCH  15  16
ENDBRANCH   2  15
TORSDOF 8
ENDMDL
