MODEL 1
REMARK VINA RESULT:      -7.3      0.000      0.000
REMARK  Name = 
REMARK  5 active torsions:
REMARK  status: ('A' for Active; 'I' for Inactive)
REMARK    1  A    between atoms: N_1  and  S_2
REMARK    2  A    between atoms: S_2  and  C_5
REMARK    3  A    between atoms: C_8  and  C_9
REMARK    4  A    between atoms: C_15  and  C_17
REMARK    5  A    between atoms: C_20  and  N_21
REMARK                            x       y       z     vdW  Elec       q    Type
REMARK                         _______ _______ _______ _____ _____    ______ ____
ROOT
ATOM      1  C   UNL     1       1.095   7.666  20.807  0.00  0.00    +0.000 C 
ATOM      2  O   UNL     1       0.298   7.375  21.697  0.00  0.00    +0.000 OA
ATOM      3  N   UNL     1       1.956   6.729  20.241  0.00  0.00    +0.000 N 
ATOM      4  C   UNL     1       1.749   5.297  20.511  0.00  0.00    +0.000 C 
ATOM      5  C   UNL     1       1.838   4.470  19.210  0.00  0.00    +0.000 C 
ATOM      6  N   UNL     1       3.043   4.814  18.430  0.00  0.00    +0.000 N 
ATOM      7  C   UNL     1       3.731   3.798  17.762  0.00  0.00    +0.000 C 
ATOM      8  O   UNL     1       3.307   2.642  17.783  0.00  0.00    +0.000 OA
ATOM      9  C   UNL     1       3.183   6.253  18.176  0.00  0.00    +0.000 C 
ATOM     10  C   UNL     1       3.192   7.015  19.506  0.00  0.00    +0.000 C 
ENDROOT
BRANCH   1  14
ATOM     11  C   UNL     1       0.873  11.684  19.324  0.00  0.00    +0.000 A 
ATOM     12  C   UNL     1       0.791  11.448  20.699  0.00  0.00    +0.000 A 
ATOM     13  C   UNL     1       0.899  10.135  21.181  0.00  0.00    +0.000 A 
ATOM     14  C   UNL     1       1.070   9.065  20.286  0.00  0.00    +0.000 A 
ATOM     15  C   UNL     1       1.092   9.325  18.910  0.00  0.00    +0.000 A 
ATOM     16  C   UNL     1       1.040  10.628  18.429  0.00  0.00    +0.000 A 
BRANCH  11  17
ATOM     17  S   UNL     1       0.734  13.318  18.665  0.00  0.00    +0.000 S 
ATOM     18  O   UNL     1       1.864  13.564  17.803  0.00  0.00    +0.000 OA
ATOM     19  O   UNL     1       0.349  14.220  19.726  0.00  0.00    +0.000 OA
BRANCH  17  20
ATOM     20  N   UNL     1      -0.622  13.204  17.683  0.00  0.00    +0.000 NA
ATOM     21  H   UNL     1      -0.642  14.016  17.065  0.00  0.00    +0.000 HD
ATOM     22  H   UNL     1      -1.461  13.121  18.255  0.00  0.00    +0.000 HD
ENDBRANCH  17  20
ENDBRANCH  11  17
ENDBRANCH   1  14
BRANCH   7  23
ATOM     23  C   UNL     1       4.973   4.143  17.066  0.00  0.00    +0.000 A 
ATOM     24  C   UNL     1       6.224   4.460  17.568  0.00  0.00    +0.000 A 
ATOM     25  C   UNL     1       7.148   4.838  16.551  0.00  0.00    +0.000 A 
ATOM     26  C   UNL     1       6.609   4.662  15.304  0.00  0.00    +0.000 A 
ATOM     27  S   UNL     1       5.003   4.121  15.344  0.00  0.00    +0.000 S 
BRANCH  26  28
ATOM     28  N   UNL     1       7.270   4.908  14.047  0.00  0.00    +0.000 N 
ATOM     29  O   UNL     1       6.805   4.298  13.067  0.00  0.00    +0.000 OA
ATOM     30  O   UNL     1       8.222   5.691  14.020  0.00  0.00    +0.000 OA
ENDBRANCH  26  28
ENDBRANCH   7  23
TORSDOF 5
ENDMDL
MODEL 2
REMARK VINA RESULT:      -7.2      0.790      1.041
REMARK  Name = 
REMARK  5 active torsions:
REMARK  status: ('A' for Active; 'I' for Inactive)
REMARK    1  A    between atoms: N_1  and  S_2
REMARK    2  A    between atoms: S_2  and  C_5
REMARK    3  A    between atoms: C_8  and  C_9
REMARK    4  A    between atoms: C_15  and  C_17
REMARK    5  A    between atoms: C_20  and  N_21
REMARK                            x       y       z     vdW  Elec       q    Type
REMARK                         _______ _______ _______ _____ _____    ______ ____
ROOT
ATOM      1  C   UNL     1       1.374   7.421  20.621  0.00  0.00    +0.000 C 
ATOM      2  O   UNL     1       0.595   7.085  21.511  0.00  0.00    +0.000 OA
ATOM      3  N   UNL     1       2.230   6.517  19.997  0.00  0.00    +0.000 N 
ATOM      4  C   UNL     1       2.038   5.074  20.205  0.00  0.00    +0.000 C 
ATOM      5  C   UNL     1       2.107   4.307  18.866  0.00  0.00    +0.000 C 
ATOM      6  N   UNL     1       3.297   4.695  18.082  0.00  0.00    +0.000 N 
ATOM      7  C   UNL     1       3.979   3.715  17.356  0.00  0.00    +0.000 C 
ATOM      8  O   UNL     1       3.562   2.556  17.331  0.00  0.00    +0.000 OA
ATOM      9  C   UNL     1       3.423   6.145  17.891  0.00  0.00    +0.000 C 
ATOM     10  C   UNL     1       3.451   6.846  19.254  0.00  0.00    +0.000 C 
ENDROOT
BRANCH   1  14
ATOM     11  C   UNL     1       1.099  11.497  19.315  0.00  0.00    +0.000 A 
ATOM     12  C   UNL     1       0.941  11.192  20.670  0.00  0.00    +0.000 A 
ATOM     13  C   UNL     1       1.066   9.861  21.096  0.00  0.00    +0.000 A 
ATOM     14  C   UNL     1       1.331   8.843  20.165  0.00  0.00    +0.000 A 
ATOM     15  C   UNL     1       1.429   9.170  18.807  0.00  0.00    +0.000 A 
ATOM     16  C   UNL     1       1.360  10.492  18.385  0.00  0.00    +0.000 A 
BRANCH  11  17
ATOM     17  S   UNL     1       0.942  13.156  18.725  0.00  0.00    +0.000 S 
ATOM     18  O   UNL     1       1.346  14.058  19.776  0.00  0.00    +0.000 OA
ATOM     19  O   UNL     1      -0.313  13.287  18.023  0.00  0.00    +0.000 OA
BRANCH  17  20
ATOM     20  N   UNL     1       2.116  13.233  17.529  0.00  0.00    +0.000 NA
ATOM     21  H   UNL     1       2.825  12.527  17.726  0.00  0.00    +0.000 HD
ATOM     22  H   UNL     1       2.498  14.176  17.476  0.00  0.00    +0.000 HD
ENDBRANCH  17  20
ENDBRANCH  11  17
ENDBRANCH   1  14
BRANCH   7  23
ATOM     23  C   UNL     1       5.206   4.101  16.654  0.00  0.00    +0.000 A 
ATOM     24  C   UNL     1       6.453   4.441  17.150  0.00  0.00    +0.000 A 
ATOM     25  C   UNL     1       7.358   4.856  16.130  0.00  0.00    +0.000 A 
ATOM     26  C   UNL     1       6.813   4.685  14.886  0.00  0.00    +0.000 A 
ATOM     27  S   UNL     1       5.221   4.103  14.932  0.00  0.00    +0.000 S 
BRANCH  26  28
ATOM     28  N   UNL     1       7.457   4.964  13.627  0.00  0.00    +0.000 N 
ATOM     29  O   UNL     1       8.383   5.794  13.669  0.00  0.00    +0.000 OA
ATOM     30  O   UNL     1       7.066   4.376  12.617  0.00  0.00    +0.000 OA
ENDBRANCH  26  28
ENDBRANCH   7  23
TORSDOF 5
ENDMDL
MODEL 3
REMARK VINA RESULT:      -7.1      0.725      1.197
REMARK  Name = 
REMARK  5 active torsions:
REMARK  status: ('A' for Active; 'I' for Inactive)
REMARK    1  A    between atoms: N_1  and  S_2
REMARK    2  A    between atoms: S_2  and  C_5
REMARK    3  A    between atoms: C_8  and  C_9
REMARK    4  A    between atoms: C_15  and  C_17
REMARK    5  A    between atoms: C_20  and  N_21
REMARK                            x       y       z     vdW  Elec       q    Type
REMARK                         _______ _______ _______ _____ _____    ______ ____
ROOT
ATOM      1  C   UNL     1       1.061   7.669  20.809  0.00  0.00    +0.000 C 
ATOM      2  O   UNL     1       0.263   7.381  21.700  0.00  0.00    +0.000 OA
ATOM      3  N   UNL     1       1.934   6.735  20.259  0.00  0.00    +0.000 N 
ATOM      4  C   UNL     1       1.744   5.305  20.547  0.00  0.00    +0.000 C 
ATOM      5  C   UNL     1       1.847   4.461  19.258  0.00  0.00    +0.000 C 
ATOM      6  N   UNL     1       3.051   4.808  18.478  0.00  0.00    +0.000 N 
ATOM      7  C   UNL     1       3.754   3.792  17.827  0.00  0.00    +0.000 C 
ATOM      8  O   UNL     1       3.343   2.631  17.862  0.00  0.00    +0.000 OA
ATOM      9  C   UNL     1       3.175   6.245  18.205  0.00  0.00    +0.000 C 
ATOM     10  C   UNL     1       3.170   7.025  19.525  0.00  0.00    +0.000 C 
ENDROOT
BRANCH   1  14
ATOM     11  C   UNL     1       1.098  11.662  19.244  0.00  0.00    +0.000 A 
ATOM     12  C   UNL     1       1.174  10.574  18.369  0.00  0.00    +0.000 A 
ATOM     13  C   UNL     1       1.127   9.270  18.884  0.00  0.00    +0.000 A 
ATOM     14  C   UNL     1       1.022   9.061  20.269  0.00  0.00    +0.000 A 
ATOM     15  C   UNL     1       1.004  10.168  21.127  0.00  0.00    +0.000 A 
ATOM     16  C   UNL     1       0.995  11.463  20.620  0.00  0.00    +0.000 A 
BRANCH  11  17
ATOM     17  S   UNL     1       1.163  13.324  18.647  0.00  0.00    +0.000 S 
ATOM     18  O   UNL     1       1.707  14.165  19.685  0.00  0.00    +0.000 OA
ATOM     19  O   UNL     1      -0.075  13.626  17.967  0.00  0.00    +0.000 OA
BRANCH  17  20
ATOM     20  N   UNL     1       2.313  13.233  17.429  0.00  0.00    +0.000 NA
ATOM     21  H   UNL     1       2.550  14.182  17.137  0.00  0.00    +0.000 HD
ATOM     22  H   UNL     1       1.965  12.659  16.663  0.00  0.00    +0.000 HD
ENDBRANCH  17  20
ENDBRANCH  11  17
ENDBRANCH   1  14
BRANCH   7  23
ATOM     23  C   UNL     1       4.994   4.142  17.130  0.00  0.00    +0.000 A 
ATOM     24  C   UNL     1       6.234   4.499  17.633  0.00  0.00    +0.000 A 
ATOM     25  C   UNL     1       7.159   4.866  16.613  0.00  0.00    +0.000 A 
ATOM     26  C   UNL     1       6.634   4.643  15.367  0.00  0.00    +0.000 A 
ATOM     27  S   UNL     1       5.039   4.070  15.410  0.00  0.00    +0.000 S 
BRANCH  26  28
ATOM     28  N   UNL     1       7.301   4.865  14.109  0.00  0.00    +0.000 N 
ATOM     29  O   UNL     1       6.871   4.202  13.148  0.00  0.00    +0.000 OA
ATOM     30  O   UNL     1       8.224   5.681  14.061  0.00  0.00    +0.000 OA
ENDBRANCH  26  28
ENDBRANCH   7  23
TORSDOF 5
ENDMDL
MODEL 4
REMARK VINA RESULT:      -6.9      6.004     10.006
REMARK  Name = 
REMARK  5 active torsions:
REMARK  status: ('A' for Active; 'I' for Inactive)
REMARK    1  A    between atoms: N_1  and  S_2
REMARK    2  A    between atoms: S_2  and  C_5
REMARK    3  A    between atoms: C_8  and  C_9
REMARK    4  A    between atoms: C_15  and  C_17
REMARK    5  A    between atoms: C_20  and  N_21
REMARK                            x       y       z     vdW  Elec       q    Type
REMARK                         _______ _______ _______ _____ _____    ______ ____
ROOT
ATOM      1  C   UNL     1       5.011  16.282  19.303  0.00  0.00    +0.000 C 
ATOM      2  O   UNL     1       5.096  17.508  19.244  0.00  0.00    +0.000 OA
ATOM      3  N   UNL     1       3.813  15.630  19.583  0.00  0.00    +0.000 N 
ATOM      4  C   UNL     1       2.551  16.386  19.556  0.00  0.00    +0.000 C 
ATOM      5  C   UNL     1       1.461  15.619  18.777  0.00  0.00    +0.000 C 
ATOM      6  N   UNL     1       1.365  14.214  19.221  0.00  0.00    +0.000 N 
ATOM      7  C   UNL     1       0.106  13.613  19.301  0.00  0.00    +0.000 C 
ATOM      8  O   UNL     1      -0.901  14.233  18.956  0.00  0.00    +0.000 OA
ATOM      9  C   UNL     1       2.651  13.507  19.206  0.00  0.00    +0.000 C 
ATOM     10  C   UNL     1       3.664  14.258  20.078  0.00  0.00    +0.000 C 
ENDROOT
BRANCH   1  14
ATOM     11  C   UNL     1       8.459  13.879  18.452  0.00  0.00    +0.000 A 
ATOM     12  C   UNL     1       7.397  13.913  17.543  0.00  0.00    +0.000 A 
ATOM     13  C   UNL     1       6.287  14.728  17.810  0.00  0.00    +0.000 A 
ATOM     14  C   UNL     1       6.236  15.489  18.990  0.00  0.00    +0.000 A 
ATOM     15  C   UNL     1       7.289  15.392  19.909  0.00  0.00    +0.000 A 
ATOM     16  C   UNL     1       8.416  14.629  19.626  0.00  0.00    +0.000 A 
BRANCH  11  17
ATOM     17  S   UNL     1       9.877  12.862  18.167  0.00  0.00    +0.000 S 
ATOM     18  O   UNL     1       9.430  11.538  17.810  0.00  0.00    +0.000 OA
ATOM     19  O   UNL     1      10.845  13.105  19.211  0.00  0.00    +0.000 OA
BRANCH  17  20
ATOM     20  N   UNL     1      10.548  13.545  16.789  0.00  0.00    +0.000 NA
ATOM     21  H   UNL     1      10.015  13.228  15.979  0.00  0.00    +0.000 HD
ATOM     22  H   UNL     1      11.537  13.310  16.730  0.00  0.00    +0.000 HD
ENDBRANCH  17  20
ENDBRANCH  11  17
ENDBRANCH   1  14
BRANCH   7  23
ATOM     23  C   UNL     1       0.021  12.249  19.827  0.00  0.00    +0.000 A 
ATOM     24  C   UNL     1      -0.022  11.034  19.164  0.00  0.00    +0.000 A 
ATOM     25  C   UNL     1      -0.209   9.929  20.045  0.00  0.00    +0.000 A 
ATOM     26  C   UNL     1      -0.163  10.329  21.355  0.00  0.00    +0.000 A 
ATOM     27  S   UNL     1       0.030  12.005  21.532  0.00  0.00    +0.000 S 
BRANCH  26  28
ATOM     28  N   UNL     1      -0.279   9.477  22.511  0.00  0.00    +0.000 N 
ATOM     29  O   UNL     1      -0.766   8.351  22.303  0.00  0.00    +0.000 OA
ATOM     30  O   UNL     1       0.108   9.901  23.602  0.00  0.00    +0.000 OA
ENDBRANCH  26  28
ENDBRANCH   7  23
TORSDOF 5
ENDMDL
MODEL 5
REMARK VINA RESULT:      -6.9      0.763      1.334
REMARK  Name = 
REMARK  5 active torsions:
REMARK  status: ('A' for Active; 'I' for Inactive)
REMARK    1  A    between atoms: N_1  and  S_2
REMARK    2  A    between atoms: S_2  and  C_5
REMARK    3  A    between atoms: C_8  and  C_9
REMARK    4  A    between atoms: C_15  and  C_17
REMARK    5  A    between atoms: C_20  and  N_21
REMARK                            x       y       z     vdW  Elec       q    Type
REMARK                         _______ _______ _______ _____ _____    ______ ____
ROOT
ATOM      1  C   UNL     1       1.549   7.126  20.480  0.00  0.00    +0.000 C 
ATOM      2  O   UNL     1       0.842   6.730  21.406  0.00  0.00    +0.000 OA
ATOM      3  N   UNL     1       2.458   6.298  19.828  0.00  0.00    +0.000 N 
ATOM      4  C   UNL     1       2.410   4.846  20.055  0.00  0.00    +0.000 C 
ATOM      5  C   UNL     1       2.494   4.073  18.721  0.00  0.00    +0.000 C 
ATOM      6  N   UNL     1       3.607   4.559  17.882  0.00  0.00    +0.000 N 
ATOM      7  C   UNL     1       4.346   3.639  17.135  0.00  0.00    +0.000 C 
ATOM      8  O   UNL     1       4.038   2.446  17.138  0.00  0.00    +0.000 OA
ATOM      9  C   UNL     1       3.590   6.013  17.675  0.00  0.00    +0.000 C 
ATOM     10  C   UNL     1       3.610   6.729  19.030  0.00  0.00    +0.000 C 
ENDROOT
BRANCH   1  14
ATOM     11  C   UNL     1       1.140  11.184  19.154  0.00  0.00    +0.000 A 
ATOM     12  C   UNL     1       1.522  10.194  18.245  0.00  0.00    +0.000 A 
ATOM     13  C   UNL     1       1.621   8.863  18.677  0.00  0.00    +0.000 A 
ATOM     14  C   UNL     1       1.354   8.532  20.016  0.00  0.00    +0.000 A 
ATOM     15  C   UNL     1       1.027   9.553  20.918  0.00  0.00    +0.000 A 
ATOM     16  C   UNL     1       0.875  10.865  20.485  0.00  0.00    +0.000 A 
BRANCH  11  17
ATOM     17  S   UNL     1       1.009  12.878  18.663  0.00  0.00    +0.000 S 
ATOM     18  O   UNL     1       2.155  13.213  17.855  0.00  0.00    +0.000 OA
ATOM     19  O   UNL     1       0.600  13.665  19.803  0.00  0.00    +0.000 OA
BRANCH  17  20
ATOM     20  N   UNL     1      -0.326  12.864  17.647  0.00  0.00    +0.000 NA
ATOM     21  H   UNL     1      -0.385  13.768  17.178  0.00  0.00    +0.000 HD
ATOM     22  H   UNL     1      -1.166  12.638  18.179  0.00  0.00    +0.000 HD
ENDBRANCH  17  20
ENDBRANCH  11  17
ENDBRANCH   1  14
BRANCH   7  23
ATOM     23  C   UNL     1       5.501   4.128  16.378  0.00  0.00    +0.000 A 
ATOM     24  C   UNL     1       6.697   4.672  16.818  0.00  0.00    +0.000 A 
ATOM     25  C   UNL     1       7.525   5.121  15.749  0.00  0.00    +0.000 A 
ATOM     26  C   UNL     1       6.994   4.778  14.534  0.00  0.00    +0.000 A 
ATOM     27  S   UNL     1       5.495   3.994  14.661  0.00  0.00    +0.000 S 
BRANCH  26  28
ATOM     28  N   UNL     1       7.579   5.040  13.243  0.00  0.00    +0.000 N 
ATOM     29  O   UNL     1       8.507   5.868  13.231  0.00  0.00    +0.000 OA
ATOM     30  O   UNL     1       7.141   4.438  12.260  0.00  0.00    +0.000 OA
ENDBRANCH  26  28
ENDBRANCH   7  23
TORSDOF 5
ENDMDL
MODEL 6
REMARK VINA RESULT:      -6.8      3.803     10.323
REMARK  Name = 
REMARK  5 active torsions:
REMARK  status: ('A' for Active; 'I' for Inactive)
REMARK    1  A    between atoms: N_1  and  S_2
REMARK    2  A    between atoms: S_2  and  C_5
REMARK    3  A    between atoms: C_8  and  C_9
REMARK    4  A    between atoms: C_15  and  C_17
REMARK    5  A    between atoms: C_20  and  N_21
REMARK                            x       y       z     vdW  Elec       q    Type
REMARK                         _______ _______ _______ _____ _____    ______ ____
ROOT
ATOM      1  C   UNL     1       2.374   8.281  18.241  0.00  0.00    +0.000 C 
ATOM      2  O   UNL     1       3.092   8.432  17.254  0.00  0.00    +0.000 OA
ATOM      3  N   UNL     1       1.641   9.326  18.797  0.00  0.00    +0.000 N 
ATOM      4  C   UNL     1       1.501  10.589  18.057  0.00  0.00    +0.000 C 
ATOM      5  C   UNL     1       0.036  11.077  18.065  0.00  0.00    +0.000 C 
ATOM      6  N   UNL     1      -0.533  11.060  19.427  0.00  0.00    +0.000 N 
ATOM      7  C   UNL     1      -1.397  12.087  19.815  0.00  0.00    +0.000 C 
ATOM      8  O   UNL     1      -1.718  12.965  19.012  0.00  0.00    +0.000 OA
ATOM      9  C   UNL     1      -0.381   9.767  20.107  0.00  0.00    +0.000 C 
ATOM     10  C   UNL     1       1.102   9.382  20.160  0.00  0.00    +0.000 C 
ENDROOT
BRANCH   1  14
ATOM     11  C   UNL     1       2.158   4.323  19.878  0.00  0.00    +0.000 A 
ATOM     12  C   UNL     1       2.153   5.428  20.734  0.00  0.00    +0.000 A 
ATOM     13  C   UNL     1       2.189   6.721  20.192  0.00  0.00    +0.000 A 
ATOM     14  C   UNL     1       2.247   6.902  18.800  0.00  0.00    +0.000 A 
ATOM     15  C   UNL     1       2.308   5.776  17.968  0.00  0.00    +0.000 A 
ATOM     16  C   UNL     1       2.218   4.494  18.496  0.00  0.00    +0.000 A 
BRANCH  11  17
ATOM     17  S   UNL     1       2.123   2.673  20.511  0.00  0.00    +0.000 S 
ATOM     18  O   UNL     1       1.061   2.574  21.482  0.00  0.00    +0.000 OA
ATOM     19  O   UNL     1       3.476   2.248  20.788  0.00  0.00    +0.000 OA
BRANCH  17  20
ATOM     20  N   UNL     1       1.655   1.776  19.173  0.00  0.00    +0.000 NA
ATOM     21  H   UNL     1       0.894   1.155  19.450  0.00  0.00    +0.000 HD
ATOM     22  H   UNL     1       2.456   1.275  18.791  0.00  0.00    +0.000 HD
ENDBRANCH  17  20
ENDBRANCH  11  17
ENDBRANCH   1  14
BRANCH   7  23
ATOM     23  C   UNL     1      -1.883  12.101  21.197  0.00  0.00    +0.000 A 
ATOM     24  C   UNL     1      -1.286  11.646  22.361  0.00  0.00    +0.000 A 
ATOM     25  C   UNL     1      -2.141  11.752  23.497  0.00  0.00    +0.000 A 
ATOM     26  C   UNL     1      -3.301  12.408  23.183  0.00  0.00    +0.000 A 
ATOM     27  S   UNL     1      -3.403  12.832  21.544  0.00  0.00    +0.000 S 
BRANCH  26  28
ATOM     28  N   UNL     1      -4.375  12.724  24.091  0.00  0.00    +0.000 N 
ATOM     29  O   UNL     1      -4.939  13.817  23.897  0.00  0.00    +0.000 OA
ATOM     30  O   UNL     1      -4.665  11.914  24.973  0.00  0.00    +0.000 OA
ENDBRANCH  26  28
ENDBRANCH   7  23
TORSDOF 5
ENDMDL
MODEL 7
REMARK VINA RESULT:      -6.8      6.391     10.572
REMARK  Name = 
REMARK  5 active torsions:
REMARK  status: ('A' for Active; 'I' for Inactive)
REMARK    1  A    between atoms: N_1  and  S_2
REMARK    2  A    between atoms: S_2  and  C_5
REMARK    3  A    between atoms: C_8  and  C_9
REMARK    4  A    between atoms: C_15  and  C_17
REMARK    5  A    between atoms: C_20  and  N_21
REMARK                            x       y       z     vdW  Elec       q    Type
REMARK                         _______ _______ _______ _____ _____    ______ ____
ROOT
ATOM      1  C   UNL     1       5.830  16.208  18.994  0.00  0.00    +0.000 C 
ATOM      2  O   UNL     1       6.142  17.376  18.765  0.00  0.00    +0.000 OA
ATOM      3  N   UNL     1       4.525  15.831  19.296  0.00  0.00    +0.000 N 
ATOM      4  C   UNL     1       3.426  16.787  19.089  0.00  0.00    +0.000 C 
ATOM      5  C   UNL     1       2.237  16.118  18.366  0.00  0.00    +0.000 C 
ATOM      6  N   UNL     1       1.868  14.837  19.002  0.00  0.00    +0.000 N 
ATOM      7  C   UNL     1       0.518  14.490  19.095  0.00  0.00    +0.000 C 
ATOM      8  O   UNL     1      -0.346  15.219  18.607  0.00  0.00    +0.000 OA
ATOM      9  C   UNL     1       3.001  13.917  19.162  0.00  0.00    +0.000 C 
ATOM     10  C   UNL     1       4.109  14.598  19.974  0.00  0.00    +0.000 C 
ENDROOT
BRANCH   1  14
ATOM     11  C   UNL     1       8.790  13.122  18.670  0.00  0.00    +0.000 A 
ATOM     12  C   UNL     1       7.912  13.353  17.607  0.00  0.00    +0.000 A 
ATOM     13  C   UNL     1       6.969  14.387  17.705  0.00  0.00    +0.000 A 
ATOM     14  C   UNL     1       6.896  15.170  18.869  0.00  0.00    +0.000 A 
ATOM     15  C   UNL     1       7.751  14.880  19.940  0.00  0.00    +0.000 A 
ATOM     16  C   UNL     1       8.724  13.893  19.829  0.00  0.00    +0.000 A 
BRANCH  11  17
ATOM     17  S   UNL     1       9.991  11.827  18.601  0.00  0.00    +0.000 S 
ATOM     18  O   UNL     1      10.548  11.644  19.919  0.00  0.00    +0.000 OA
ATOM     19  O   UNL     1      10.810  12.010  17.425  0.00  0.00    +0.000 OA
BRANCH  17  20
ATOM     20  N   UNL     1       9.055  10.475  18.268  0.00  0.00    +0.000 NA
ATOM     21  H   UNL     1       8.071  10.741  18.321  0.00  0.00    +0.000 HD
ATOM     22  H   UNL     1       9.296   9.718  18.907  0.00  0.00    +0.000 HD
ENDBRANCH  17  20
ENDBRANCH  11  17
ENDBRANCH   1  14
BRANCH   7  23
ATOM     23  C   UNL     1       0.166  13.258  19.806  0.00  0.00    +0.000 A 
ATOM     24  C   UNL     1      -0.026  11.972  19.329  0.00  0.00    +0.000 A 
ATOM     25  C   UNL     1      -0.464  11.068  20.341  0.00  0.00    +0.000 A 
ATOM     26  C   UNL     1      -0.454  11.664  21.573  0.00  0.00    +0.000 A 
ATOM     27  S   UNL     1       0.002  13.297  21.519  0.00  0.00    +0.000 S 
BRANCH  26  28
ATOM     28  N   UNL     1      -0.800  11.040  22.826  0.00  0.00    +0.000 N 
ATOM     29  O   UNL     1       0.064  10.286  23.307  0.00  0.00    +0.000 OA
ATOM     30  O   UNL     1      -1.896  11.290  23.331  0.00  0.00    +0.000 OA
ENDBRANCH  26  28
ENDBRANCH   7  23
TORSDOF 5
ENDMDL
MODEL 8
REMARK VINA RESULT:      -6.7      6.118     10.255
REMARK  Name = 
REMARK  5 active torsions:
REMARK  status: ('A' for Active; 'I' for Inactive)
REMARK    1  A    between atoms: N_1  and  S_2
REMARK    2  A    between atoms: S_2  and  C_5
REMARK    3  A    between atoms: C_8  and  C_9
REMARK    4  A    between atoms: C_15  and  C_17
REMARK    5  A    between atoms: C_20  and  N_21
REMARK                            x       y       z     vdW  Elec       q    Type
REMARK                         _______ _______ _______ _____ _____    ______ ____
ROOT
ATOM      1  C   UNL     1       5.398  16.554  19.211  0.00  0.00    +0.000 C 
ATOM      2  O   UNL     1       5.492  17.779  19.151  0.00  0.00    +0.000 OA
ATOM      3  N   UNL     1       4.193  15.910  19.474  0.00  0.00    +0.000 N 
ATOM      4  C   UNL     1       2.936  16.673  19.425  0.00  0.00    +0.000 C 
ATOM      5  C   UNL     1       1.854  15.910  18.630  0.00  0.00    +0.000 C 
ATOM      6  N   UNL     1       1.742  14.508  19.078  0.00  0.00    +0.000 N 
ATOM      7  C   UNL     1       0.478  13.915  19.140  0.00  0.00    +0.000 C 
ATOM      8  O   UNL     1      -0.520  14.539  18.776  0.00  0.00    +0.000 OA
ATOM      9  C   UNL     1       3.024  13.793  19.086  0.00  0.00    +0.000 C 
ATOM     10  C   UNL     1       4.028  14.540  19.972  0.00  0.00    +0.000 C 
ENDROOT
BRANCH   1  14
ATOM     11  C   UNL     1       8.966  14.361  18.287  0.00  0.00    +0.000 A 
ATOM     12  C   UNL     1       9.011  15.389  19.234  0.00  0.00    +0.000 A 
ATOM     13  C   UNL     1       7.834  16.080  19.557  0.00  0.00    +0.000 A 
ATOM     14  C   UNL     1       6.624  15.752  18.921  0.00  0.00    +0.000 A 
ATOM     15  C   UNL     1       6.620  14.756  17.936  0.00  0.00    +0.000 A 
ATOM     16  C   UNL     1       7.771  14.031  17.650  0.00  0.00    +0.000 A 
BRANCH  11  17
ATOM     17  S   UNL     1      10.423  13.466  17.837  0.00  0.00    +0.000 S 
ATOM     18  O   UNL     1      10.055  12.099  17.558  0.00  0.00    +0.000 OA
ATOM     19  O   UNL     1      11.488  13.817  18.747  0.00  0.00    +0.000 OA
BRANCH  17  20
ATOM     20  N   UNL     1      10.851  14.171  16.377  0.00  0.00    +0.000 NA
ATOM     21  H   UNL     1      11.805  13.888  16.149  0.00  0.00    +0.000 HD
ATOM     22  H   UNL     1      10.742  15.183  16.433  0.00  0.00    +0.000 HD
ENDBRANCH  17  20
ENDBRANCH  11  17
ENDBRANCH   1  14
BRANCH   7  23
ATOM     23  C   UNL     1       0.377  12.552  19.669  0.00  0.00    +0.000 A 
ATOM     24  C   UNL     1       0.540  11.331  19.036  0.00  0.00    +0.000 A 
ATOM     25  C   UNL     1       0.252  10.225  19.889  0.00  0.00    +0.000 A 
ATOM     26  C   UNL     1       0.015  10.640  21.172  0.00  0.00    +0.000 A 
ATOM     27  S   UNL     1       0.067  12.326  21.347  0.00  0.00    +0.000 S 
BRANCH  26  28
ATOM     28  N   UNL     1      -0.272   9.792  22.303  0.00  0.00    +0.000 N 
ATOM     29  O   UNL     1      -0.182  10.336  23.419  0.00  0.00    +0.000 OA
ATOM     30  O   UNL     1      -0.587   8.618  22.100  0.00  0.00    +0.000 OA
ENDBRANCH  26  28
ENDBRANCH   7  23
TORSDOF 5
ENDMDL
MODEL 9
REMARK VINA RESULT:      -6.7      3.871     10.314
REMARK  Name = 
REMARK  5 active torsions:
REMARK  status: ('A' for Active; 'I' for Inactive)
REMARK    1  A    between atoms: N_1  and  S_2
REMARK    2  A    between atoms: S_2  and  C_5
REMARK    3  A    between atoms: C_8  and  C_9
REMARK    4  A    between atoms: C_15  and  C_17
REMARK    5  A    between atoms: C_20  and  N_21
REMARK                            x       y       z     vdW  Elec       q    Type
REMARK                         _______ _______ _______ _____ _____    ______ ____
ROOT
ATOM      1  C   UNL     1       2.431   8.406  18.255  0.00  0.00    +0.000 C 
ATOM      2  O   UNL     1       3.255   8.596  17.362  0.00  0.00    +0.000 OA
ATOM      3  N   UNL     1       1.737   9.448  18.863  0.00  0.00    +0.000 N 
ATOM      4  C   UNL     1       1.776  10.792  18.267  0.00  0.00    +0.000 C 
ATOM      5  C   UNL     1       0.363  11.412  18.201  0.00  0.00    +0.000 C 
ATOM      6  N   UNL     1      -0.338  11.299  19.496  0.00  0.00    +0.000 N 
ATOM      7  C   UNL     1      -1.148  12.354  19.922  0.00  0.00    +0.000 C 
ATOM      8  O   UNL     1      -1.314  13.341  19.203  0.00  0.00    +0.000 OA
ATOM      9  C   UNL     1      -0.362   9.932  20.029  0.00  0.00    +0.000 C 
ATOM     10  C   UNL     1       1.071   9.405  20.169  0.00  0.00    +0.000 C 
ENDROOT
BRANCH   1  14
ATOM     11  C   UNL     1       1.730   4.324  19.369  0.00  0.00    +0.000 A 
ATOM     12  C   UNL     1       1.908   5.292  20.362  0.00  0.00    +0.000 A 
ATOM     13  C   UNL     1       2.102   6.631  19.992  0.00  0.00    +0.000 A 
ATOM     14  C   UNL     1       2.136   6.992  18.635  0.00  0.00    +0.000 A 
ATOM     15  C   UNL     1       2.011   5.993  17.660  0.00  0.00    +0.000 A 
ATOM     16  C   UNL     1       1.764   4.673  18.020  0.00  0.00    +0.000 A 
BRANCH  11  17
ATOM     17  S   UNL     1       1.491   2.622  19.781  0.00  0.00    +0.000 S 
ATOM     18  O   UNL     1       2.765   1.949  19.718  0.00  0.00    +0.000 OA
ATOM     19  O   UNL     1       0.316   2.135  19.096  0.00  0.00    +0.000 OA
BRANCH  17  20
ATOM     20  N   UNL     1       1.048   2.694  21.398  0.00  0.00    +0.000 NA
ATOM     21  H   UNL     1       0.368   1.955  21.579  0.00  0.00    +0.000 HD
ATOM     22  H   UNL     1       0.694   3.623  21.621  0.00  0.00    +0.000 HD
ENDBRANCH  17  20
ENDBRANCH  11  17
ENDBRANCH   1  14
BRANCH   7  23
ATOM     23  C   UNL     1      -1.766  12.263  21.247  0.00  0.00    +0.000 A 
ATOM     24  C   UNL     1      -1.278  11.730  22.429  0.00  0.00    +0.000 A 
ATOM     25  C   UNL     1      -2.241  11.745  23.480  0.00  0.00    +0.000 A 
ATOM     26  C   UNL     1      -3.376  12.411  23.101  0.00  0.00    +0.000 A 
ATOM     27  S   UNL     1      -3.325  12.952  21.495  0.00  0.00    +0.000 S 
BRANCH  26  28
ATOM     28  N   UNL     1      -4.538  12.650  23.920  0.00  0.00    +0.000 N 
ATOM     29  O   UNL     1      -4.677  11.885  24.892  0.00  0.00    +0.000 OA
ATOM     30  O   UNL     1      -5.295  13.575  23.621  0.00  0.00    +0.000 OA
ENDBRANCH  26  28
ENDBRANCH   7  23
TORSDOF 5
ENDMDL
