MODEL 1
REMARK VINA RESULT:      -7.2      0.000      0.000
REMARK  Name = 
REMARK  7 active torsions:
REMARK  status: ('A' for Active; 'I' for Inactive)
REMARK    1  A    between atoms: C_1  and  C_2
REMARK    2  A    between atoms: C_2  and  N_3
REMARK    3  A    between atoms: C_7  and  C_8
REMARK    4  A    between atoms: C_11  and  O_12
REMARK    5  A    between atoms: O_12  and  C_13
REMARK    6  A    between atoms: N_18  and  N_19
REMARK    7  A    between atoms: C_20  and  C_22
REMARK                            x       y       z     vdW  Elec       q    Type
REMARK                         _______ _______ _______ _____ _____    ______ ____
ROOT
ATOM      1  N   UNL     1       1.017   8.573  19.818  0.00  0.00    +0.000 N 
ATOM      2  C   UNL     1       1.710   7.415  20.128  0.00  0.00    +0.000 C 
ATOM      3  O   UNL     1       1.581   6.753  21.151  0.00  0.00    +0.000 OA
ATOM      4  C   UNL     1       2.703   7.090  19.077  0.00  0.00    +0.000 C 
ATOM      5  C   UNL     1       3.445   5.980  19.157  0.00  0.00    +0.000 C 
ATOM      6  S   UNL     1       2.742   8.334  17.904  0.00  0.00    +0.000 S 
ATOM      7  C   UNL     1       1.383   9.182  18.639  0.00  0.00    +0.000 C 
ATOM      8  N   UNL     1       0.916  10.217  18.018  0.00  0.00    +0.000 NA
ENDROOT
BRANCH   5   9
ATOM      9  C   UNL     1       4.527   5.599  18.253  0.00  0.00    +0.000 A 
ATOM     10  C   UNL     1       4.212   5.196  16.953  0.00  0.00    +0.000 A 
ATOM     11  C   UNL     1       5.229   4.857  16.060  0.00  0.00    +0.000 A 
ATOM     12  C   UNL     1       6.566   4.938  16.448  0.00  0.00    +0.000 A 
ATOM     13  C   UNL     1       6.883   5.327  17.750  0.00  0.00    +0.000 A 
ATOM     14  C   UNL     1       5.864   5.658  18.653  0.00  0.00    +0.000 A 
BRANCH  12  15
ATOM     15  O   UNL     1       7.471   4.578  15.487  0.00  0.00    +0.000 OA
ATOM     16  C   UNL     1       7.036   4.738  14.142  0.00  0.00    +0.000 C 
ENDBRANCH  12  15
ENDBRANCH   5   9
BRANCH   8  17
ATOM     17  N   UNL     1      -0.265  10.776  18.389  0.00  0.00    +0.000 N 
ATOM     18  C   UNL     1      -1.443  10.387  17.768  0.00  0.00    +0.000 C 
ATOM     19  O   UNL     1      -1.526   9.617  16.818  0.00  0.00    +0.000 OA
ATOM     20  H   UNL     1      -0.261  11.428  19.159  0.00  0.00    +0.000 HD
BRANCH  18  21
ATOM     21  C   UNL     1      -2.675  11.050  18.274  0.00  0.00    +0.000 A 
ATOM     22  C   UNL     1      -2.549  11.957  19.326  0.00  0.00    +0.000 A 
ATOM     23  C   UNL     1      -3.696  12.545  19.822  0.00  0.00    +0.000 A 
ATOM     24  N   UNL     1      -4.931  12.294  19.336  0.00  0.00    +0.000 NA
ATOM     25  C   UNL     1      -5.023  11.438  18.298  0.00  0.00    +0.000 A 
ATOM     26  C   UNL     1      -3.937  10.794  17.731  0.00  0.00    +0.000 A 
ENDBRANCH  18  21
ENDBRANCH   8  17
BRANCH   1  28
ATOM     27  C   UNL     1       0.956  10.184  21.708  0.00  0.00    +0.000 C 
ATOM     28  C   UNL     1       0.201   9.153  20.881  0.00  0.00    +0.000 C 
ENDBRANCH   1  28
TORSDOF 5
ENDMDL
MODEL 2
REMARK VINA RESULT:      -7.1      1.640      2.175
REMARK  Name = 
REMARK  7 active torsions:
REMARK  status: ('A' for Active; 'I' for Inactive)
REMARK    1  A    between atoms: C_1  and  C_2
REMARK    2  A    between atoms: C_2  and  N_3
REMARK    3  A    between atoms: C_7  and  C_8
REMARK    4  A    between atoms: C_11  and  O_12
REMARK    5  A    between atoms: O_12  and  C_13
REMARK    6  A    between atoms: N_18  and  N_19
REMARK    7  A    between atoms: C_20  and  C_22
REMARK                            x       y       z     vdW  Elec       q    Type
REMARK                         _______ _______ _______ _____ _____    ______ ____
ROOT
ATOM      1  N   UNL     1       1.263   8.046  20.070  0.00  0.00    +0.000 N 
ATOM      2  C   UNL     1       1.993   6.869  20.069  0.00  0.00    +0.000 C 
ATOM      3  O   UNL     1       1.974   6.011  20.943  0.00  0.00    +0.000 OA
ATOM      4  C   UNL     1       2.877   6.792  18.882  0.00  0.00    +0.000 C 
ATOM      5  C   UNL     1       3.633   5.710  18.662  0.00  0.00    +0.000 C 
ATOM      6  S   UNL     1       2.787   8.248  17.989  0.00  0.00    +0.000 S 
ATOM      7  C   UNL     1       1.503   8.890  19.009  0.00  0.00    +0.000 C 
ATOM      8  N   UNL     1       0.966  10.015  18.661  0.00  0.00    +0.000 NA
ENDROOT
BRANCH   5   9
ATOM      9  C   UNL     1       4.621   5.551  17.597  0.00  0.00    +0.000 A 
ATOM     10  C   UNL     1       5.797   6.304  17.648  0.00  0.00    +0.000 A 
ATOM     11  C   UNL     1       6.770   6.149  16.661  0.00  0.00    +0.000 A 
ATOM     12  C   UNL     1       6.590   5.227  15.630  0.00  0.00    +0.000 A 
ATOM     13  C   UNL     1       5.411   4.483  15.569  0.00  0.00    +0.000 A 
ATOM     14  C   UNL     1       4.426   4.644  16.553  0.00  0.00    +0.000 A 
BRANCH  12  15
ATOM     15  O   UNL     1       7.611   5.166  14.723  0.00  0.00    +0.000 OA
ATOM     16  C   UNL     1       7.238   4.797  13.400  0.00  0.00    +0.000 C 
ENDBRANCH  12  15
ENDBRANCH   5   9
BRANCH   8  17
ATOM     17  N   UNL     1      -0.176  10.454  19.251  0.00  0.00    +0.000 N 
ATOM     18  C   UNL     1      -0.155  11.592  20.043  0.00  0.00    +0.000 C 
ATOM     19  O   UNL     1       0.847  12.227  20.351  0.00  0.00    +0.000 OA
ATOM     20  H   UNL     1      -1.035   9.966  19.046  0.00  0.00    +0.000 HD
BRANCH  18  21
ATOM     21  C   UNL     1      -1.470  11.991  20.616  0.00  0.00    +0.000 A 
ATOM     22  C   UNL     1      -2.499  12.317  19.733  0.00  0.00    +0.000 A 
ATOM     23  C   UNL     1      -3.709  12.723  20.263  0.00  0.00    +0.000 A 
ATOM     24  N   UNL     1      -3.948  12.813  21.588  0.00  0.00    +0.000 NA
ATOM     25  C   UNL     1      -2.947  12.462  22.421  0.00  0.00    +0.000 A 
ATOM     26  C   UNL     1      -1.698  12.045  21.993  0.00  0.00    +0.000 A 
ENDBRANCH  18  21
ENDBRANCH   8  17
BRANCH   1  28
ATOM     27  C   UNL     1       1.422   9.131  22.299  0.00  0.00    +0.000 C 
ATOM     28  C   UNL     1       0.553   8.376  21.303  0.00  0.00    +0.000 C 
ENDBRANCH   1  28
TORSDOF 5
ENDMDL
MODEL 3
REMARK VINA RESULT:      -7.0      0.564      1.004
REMARK  Name = 
REMARK  7 active torsions:
REMARK  status: ('A' for Active; 'I' for Inactive)
REMARK    1  A    between atoms: C_1  and  C_2
REMARK    2  A    between atoms: C_2  and  N_3
REMARK    3  A    between atoms: C_7  and  C_8
REMARK    4  A    between atoms: C_11  and  O_12
REMARK    5  A    between atoms: O_12  and  C_13
REMARK    6  A    between atoms: N_18  and  N_19
REMARK    7  A    between atoms: C_20  and  C_22
REMARK                            x       y       z     vdW  Elec       q    Type
REMARK                         _______ _______ _______ _____ _____    ______ ____
ROOT
ATOM      1  N   UNL     1       1.078   8.562  19.875  0.00  0.00    +0.000 N 
ATOM      2  C   UNL     1       1.712   7.341  20.036  0.00  0.00    +0.000 C 
ATOM      3  O   UNL     1       1.583   6.585  20.992  0.00  0.00    +0.000 OA
ATOM      4  C   UNL     1       2.643   7.072  18.914  0.00  0.00    +0.000 C 
ATOM      5  C   UNL     1       3.320   5.920  18.850  0.00  0.00    +0.000 C 
ATOM      6  S   UNL     1       2.711   8.427  17.872  0.00  0.00    +0.000 S 
ATOM      7  C   UNL     1       1.434   9.268  18.747  0.00  0.00    +0.000 C 
ATOM      8  N   UNL     1       1.006  10.385  18.255  0.00  0.00    +0.000 NA
ENDROOT
BRANCH   5   9
ATOM      9  C   UNL     1       4.343   5.575  17.864  0.00  0.00    +0.000 A 
ATOM     10  C   UNL     1       5.547   6.284  17.863  0.00  0.00    +0.000 A 
ATOM     11  C   UNL     1       6.551   5.955  16.953  0.00  0.00    +0.000 A 
ATOM     12  C   UNL     1       6.373   4.903  16.054  0.00  0.00    +0.000 A 
ATOM     13  C   UNL     1       5.166   4.203  16.044  0.00  0.00    +0.000 A 
ATOM     14  C   UNL     1       4.151   4.538  16.949  0.00  0.00    +0.000 A 
BRANCH  12  15
ATOM     15  O   UNL     1       7.426   4.677  15.212  0.00  0.00    +0.000 OA
ATOM     16  C   UNL     1       7.111   4.656  13.824  0.00  0.00    +0.000 C 
ENDBRANCH  12  15
ENDBRANCH   5   9
BRANCH   8  17
ATOM     17  N   UNL     1      -0.125  10.968  18.732  0.00  0.00    +0.000 N 
ATOM     18  C   UNL     1      -1.342  10.734  18.109  0.00  0.00    +0.000 C 
ATOM     19  O   UNL     1      -1.502  10.094  17.076  0.00  0.00    +0.000 OA
ATOM     20  H   UNL     1      -0.057  11.518  19.576  0.00  0.00    +0.000 HD
BRANCH  18  21
ATOM     21  C   UNL     1      -2.514  11.405  18.734  0.00  0.00    +0.000 A 
ATOM     22  C   UNL     1      -2.303  12.145  19.898  0.00  0.00    +0.000 A 
ATOM     23  C   UNL     1      -3.395  12.738  20.501  0.00  0.00    +0.000 A 
ATOM     24  N   UNL     1      -4.653  12.646  20.019  0.00  0.00    +0.000 NA
ATOM     25  C   UNL     1      -4.825  11.953  18.874  0.00  0.00    +0.000 A 
ATOM     26  C   UNL     1      -3.799  11.319  18.195  0.00  0.00    +0.000 A 
ENDBRANCH  18  21
ENDBRANCH   8  17
BRANCH   1  28
ATOM     27  C   UNL     1       1.250   9.615  22.118  0.00  0.00    +0.000 C 
ATOM     28  C   UNL     1       0.339   9.073  21.025  0.00  0.00    +0.000 C 
ENDBRANCH   1  28
TORSDOF 5
ENDMDL
MODEL 4
REMARK VINA RESULT:      -7.0      1.559      1.751
REMARK  Name = 
REMARK  7 active torsions:
REMARK  status: ('A' for Active; 'I' for Inactive)
REMARK    1  A    between atoms: C_1  and  C_2
REMARK    2  A    between atoms: C_2  and  N_3
REMARK    3  A    between atoms: C_7  and  C_8
REMARK    4  A    between atoms: C_11  and  O_12
REMARK    5  A    between atoms: O_12  and  C_13
REMARK    6  A    between atoms: N_18  and  N_19
REMARK    7  A    between atoms: C_20  and  C_22
REMARK                            x       y       z     vdW  Elec       q    Type
REMARK                         _______ _______ _______ _____ _____    ______ ____
ROOT
ATOM      1  N   UNL     1       1.228   8.084  20.041  0.00  0.00    +0.000 N 
ATOM      2  C   UNL     1       1.957   6.908  20.086  0.00  0.00    +0.000 C 
ATOM      3  O   UNL     1       1.896   6.058  20.968  0.00  0.00    +0.000 OA
ATOM      4  C   UNL     1       2.896   6.818  18.942  0.00  0.00    +0.000 C 
ATOM      5  C   UNL     1       3.661   5.734  18.770  0.00  0.00    +0.000 C 
ATOM      6  S   UNL     1       2.848   8.264  18.031  0.00  0.00    +0.000 S 
ATOM      7  C   UNL     1       1.518   8.917  18.983  0.00  0.00    +0.000 C 
ATOM      8  N   UNL     1       0.998  10.038  18.598  0.00  0.00    +0.000 NA
ENDROOT
BRANCH   5   9
ATOM      9  C   UNL     1       4.698   5.564  17.755  0.00  0.00    +0.000 A 
ATOM     10  C   UNL     1       4.428   4.767  16.639  0.00  0.00    +0.000 A 
ATOM     11  C   UNL     1       5.391   4.613  15.641  0.00  0.00    +0.000 A 
ATOM     12  C   UNL     1       6.618   5.269  15.736  0.00  0.00    +0.000 A 
ATOM     13  C   UNL     1       6.895   6.054  16.856  0.00  0.00    +0.000 A 
ATOM     14  C   UNL     1       5.935   6.202  17.865  0.00  0.00    +0.000 A 
BRANCH  12  15
ATOM     15  O   UNL     1       7.479   5.039  14.698  0.00  0.00    +0.000 OA
ATOM     16  C   UNL     1       6.886   4.533  13.507  0.00  0.00    +0.000 C 
ENDBRANCH  12  15
ENDBRANCH   5   9
BRANCH   8  17
ATOM     17  N   UNL     1      -0.170  10.483  19.129  0.00  0.00    +0.000 N 
ATOM     18  C   UNL     1      -0.180  11.605  19.944  0.00  0.00    +0.000 C 
ATOM     19  O   UNL     1       0.812  12.217  20.324  0.00  0.00    +0.000 OA
ATOM     20  H   UNL     1      -1.023  10.012  18.863  0.00  0.00    +0.000 HD
BRANCH  18  21
ATOM     21  C   UNL     1      -1.519  12.012  20.447  0.00  0.00    +0.000 A 
ATOM     22  C   UNL     1      -1.696  12.129  21.826  0.00  0.00    +0.000 A 
ATOM     23  C   UNL     1      -2.949  12.471  22.297  0.00  0.00    +0.000 A 
ATOM     24  N   UNL     1      -4.008  12.704  21.494  0.00  0.00    +0.000 NA
ATOM     25  C   UNL     1      -3.803  12.616  20.163  0.00  0.00    +0.000 A 
ATOM     26  C   UNL     1      -2.590  12.278  19.590  0.00  0.00    +0.000 A 
ENDBRANCH  18  21
ENDBRANCH   8  17
BRANCH   1  28
ATOM     27  C   UNL     1       1.298   9.144  22.286  0.00  0.00    +0.000 C 
ATOM     28  C   UNL     1       0.461   8.427  21.235  0.00  0.00    +0.000 C 
ENDBRANCH   1  28
TORSDOF 5
ENDMDL
MODEL 5
REMARK VINA RESULT:      -7.0      0.773      1.473
REMARK  Name = 
REMARK  7 active torsions:
REMARK  status: ('A' for Active; 'I' for Inactive)
REMARK    1  A    between atoms: C_1  and  C_2
REMARK    2  A    between atoms: C_2  and  N_3
REMARK    3  A    between atoms: C_7  and  C_8
REMARK    4  A    between atoms: C_11  and  O_12
REMARK    5  A    between atoms: O_12  and  C_13
REMARK    6  A    between atoms: N_18  and  N_19
REMARK    7  A    between atoms: C_20  and  C_22
REMARK                            x       y       z     vdW  Elec       q    Type
REMARK                         _______ _______ _______ _____ _____    ______ ____
ROOT
ATOM      1  N   UNL     1       1.185   8.868  19.917  0.00  0.00    +0.000 N 
ATOM      2  C   UNL     1       1.854   7.689  20.202  0.00  0.00    +0.000 C 
ATOM      3  O   UNL     1       1.899   7.135  21.295  0.00  0.00    +0.000 OA
ATOM      4  C   UNL     1       2.584   7.189  19.013  0.00  0.00    +0.000 C 
ATOM      5  C   UNL     1       3.255   6.033  19.061  0.00  0.00    +0.000 C 
ATOM      6  S   UNL     1       2.456   8.314  17.732  0.00  0.00    +0.000 S 
ATOM      7  C   UNL     1       1.336   9.335  18.630  0.00  0.00    +0.000 C 
ATOM      8  N   UNL     1       0.816  10.344  18.010  0.00  0.00    +0.000 NA
ENDROOT
BRANCH   5   9
ATOM      9  C   UNL     1       4.100   5.483  18.003  0.00  0.00    +0.000 A 
ATOM     10  C   UNL     1       5.286   6.143  17.673  0.00  0.00    +0.000 A 
ATOM     11  C   UNL     1       6.125   5.623  16.688  0.00  0.00    +0.000 A 
ATOM     12  C   UNL     1       5.801   4.430  16.042  0.00  0.00    +0.000 A 
ATOM     13  C   UNL     1       4.610   3.776  16.359  0.00  0.00    +0.000 A 
ATOM     14  C   UNL     1       3.759   4.301  17.341  0.00  0.00    +0.000 A 
BRANCH  12  15
ATOM     15  O   UNL     1       6.700   4.021  15.095  0.00  0.00    +0.000 OA
ATOM     16  C   UNL     1       6.206   3.965  13.761  0.00  0.00    +0.000 C 
ENDBRANCH  12  15
ENDBRANCH   5   9
BRANCH   8  17
ATOM     17  N   UNL     1      -0.225  11.031  18.549  0.00  0.00    +0.000 N 
ATOM     18  C   UNL     1      -1.525  10.736  18.165  0.00  0.00    +0.000 C 
ATOM     19  O   UNL     1      -1.845   9.942  17.288  0.00  0.00    +0.000 OA
ATOM     20  H   UNL     1      -0.025  11.709  19.269  0.00  0.00    +0.000 HD
BRANCH  18  21
ATOM     21  C   UNL     1      -2.583  11.536  18.839  0.00  0.00    +0.000 A 
ATOM     22  C   UNL     1      -3.872  11.502  18.307  0.00  0.00    +0.000 A 
ATOM     23  C   UNL     1      -4.847  12.274  18.909  0.00  0.00    +0.000 A 
ATOM     24  N   UNL     1      -4.619  13.052  19.988  0.00  0.00    +0.000 NA
ATOM     25  C   UNL     1      -3.372  13.042  20.504  0.00  0.00    +0.000 A 
ATOM     26  C   UNL     1      -2.325  12.308  19.975  0.00  0.00    +0.000 A 
ENDBRANCH  18  21
ENDBRANCH   8  17
BRANCH   1  28
ATOM     27  C   UNL     1      -0.681   9.047  21.547  0.00  0.00    +0.000 C 
ATOM     28  C   UNL     1       0.646   9.608  21.054  0.00  0.00    +0.000 C 
ENDBRANCH   1  28
TORSDOF 5
ENDMDL
MODEL 6
REMARK VINA RESULT:      -6.9      3.295      4.351
REMARK  Name = 
REMARK  7 active torsions:
REMARK  status: ('A' for Active; 'I' for Inactive)
REMARK    1  A    between atoms: C_1  and  C_2
REMARK    2  A    between atoms: C_2  and  N_3
REMARK    3  A    between atoms: C_7  and  C_8
REMARK    4  A    between atoms: C_11  and  O_12
REMARK    5  A    between atoms: O_12  and  C_13
REMARK    6  A    between atoms: N_18  and  N_19
REMARK    7  A    between atoms: C_20  and  C_22
REMARK                            x       y       z     vdW  Elec       q    Type
REMARK                         _______ _______ _______ _____ _____    ______ ____
ROOT
ATOM      1  N   UNL     1       1.039  10.050  19.316  0.00  0.00    +0.000 N 
ATOM      2  C   UNL     1       1.712   9.311  18.357  0.00  0.00    +0.000 C 
ATOM      3  O   UNL     1       1.888   9.642  17.190  0.00  0.00    +0.000 OA
ATOM      4  C   UNL     1       2.155   8.006  18.903  0.00  0.00    +0.000 C 
ATOM      5  C   UNL     1       2.869   7.160  18.153  0.00  0.00    +0.000 C 
ATOM      6  S   UNL     1       1.565   7.807  20.496  0.00  0.00    +0.000 S 
ATOM      7  C   UNL     1       0.908   9.441  20.545  0.00  0.00    +0.000 C 
ATOM      8  N   UNL     1       0.409   9.853  21.665  0.00  0.00    +0.000 NA
ENDROOT
BRANCH   5   9
ATOM      9  C   UNL     1       3.273   5.806  18.528  0.00  0.00    +0.000 A 
ATOM     10  C   UNL     1       2.335   4.774  18.449  0.00  0.00    +0.000 A 
ATOM     11  C   UNL     1       2.704   3.468  18.773  0.00  0.00    +0.000 A 
ATOM     12  C   UNL     1       4.013   3.178  19.155  0.00  0.00    +0.000 A 
ATOM     13  C   UNL     1       4.949   4.209  19.248  0.00  0.00    +0.000 A 
ATOM     14  C   UNL     1       4.580   5.524  18.934  0.00  0.00    +0.000 A 
BRANCH  12  15
ATOM     15  O   UNL     1       4.253   1.864  19.449  0.00  0.00    +0.000 OA
ATOM     16  C   UNL     1       4.845   1.615  20.718  0.00  0.00    +0.000 C 
ENDBRANCH  12  15
ENDBRANCH   5   9
BRANCH   8  17
ATOM     17  N   UNL     1       0.104  11.164  21.851  0.00  0.00    +0.000 N 
ATOM     18  C   UNL     1      -0.899  11.524  22.739  0.00  0.00    +0.000 C 
ATOM     19  O   UNL     1      -1.632  10.745  23.339  0.00  0.00    +0.000 OA
ATOM     20  H   UNL     1       0.664  11.855  21.375  0.00  0.00    +0.000 HD
BRANCH  18  21
ATOM     21  C   UNL     1      -1.128  12.988  22.878  0.00  0.00    +0.000 A 
ATOM     22  C   UNL     1      -0.223  13.855  22.266  0.00  0.00    +0.000 A 
ATOM     23  C   UNL     1      -0.412  15.214  22.425  0.00  0.00    +0.000 A 
ATOM     24  N   UNL     1      -1.430  15.746  23.136  0.00  0.00    +0.000 NA
ATOM     25  C   UNL     1      -2.310  14.886  23.691  0.00  0.00    +0.000 A 
ATOM     26  C   UNL     1      -2.208  13.509  23.594  0.00  0.00    +0.000 A 
ENDBRANCH  18  21
ENDBRANCH   8  17
BRANCH   1  28
ATOM     27  C   UNL     1      -1.124  10.936  18.476  0.00  0.00    +0.000 C 
ATOM     28  C   UNL     1       0.322  11.233  18.850  0.00  0.00    +0.000 C 
ENDBRANCH   1  28
TORSDOF 5
ENDMDL
MODEL 7
REMARK VINA RESULT:      -6.9      3.257      4.291
REMARK  Name = 
REMARK  7 active torsions:
REMARK  status: ('A' for Active; 'I' for Inactive)
REMARK    1  A    between atoms: C_1  and  C_2
REMARK    2  A    between atoms: C_2  and  N_3
REMARK    3  A    between atoms: C_7  and  C_8
REMARK    4  A    between atoms: C_11  and  O_12
REMARK    5  A    between atoms: O_12  and  C_13
REMARK    6  A    between atoms: N_18  and  N_19
REMARK    7  A    between atoms: C_20  and  C_22
REMARK                            x       y       z     vdW  Elec       q    Type
REMARK                         _______ _______ _______ _____ _____    ______ ____
ROOT
ATOM      1  N   UNL     1       1.009  10.166  19.332  0.00  0.00    +0.000 N 
ATOM      2  C   UNL     1       1.712   9.455  18.374  0.00  0.00    +0.000 C 
ATOM      3  O   UNL     1       1.907   9.808  17.216  0.00  0.00    +0.000 OA
ATOM      4  C   UNL     1       2.163   8.146  18.905  0.00  0.00    +0.000 C 
ATOM      5  C   UNL     1       2.905   7.324  18.155  0.00  0.00    +0.000 C 
ATOM      6  S   UNL     1       1.544   7.910  20.482  0.00  0.00    +0.000 S 
ATOM      7  C   UNL     1       0.862   9.533  20.546  0.00  0.00    +0.000 C 
ATOM      8  N   UNL     1       0.334   9.918  21.663  0.00  0.00    +0.000 NA
ENDROOT
BRANCH   5   9
ATOM      9  C   UNL     1       3.321   5.970  18.514  0.00  0.00    +0.000 A 
ATOM     10  C   UNL     1       2.453   4.905  18.259  0.00  0.00    +0.000 A 
ATOM     11  C   UNL     1       2.838   3.600  18.565  0.00  0.00    +0.000 A 
ATOM     12  C   UNL     1       4.099   3.344  19.105  0.00  0.00    +0.000 A 
ATOM     13  C   UNL     1       4.962   4.407  19.374  0.00  0.00    +0.000 A 
ATOM     14  C   UNL     1       4.574   5.720  19.078  0.00  0.00    +0.000 A 
BRANCH  12  15
ATOM     15  O   UNL     1       4.361   2.027  19.363  0.00  0.00    +0.000 OA
ATOM     16  C   UNL     1       3.639   1.089  18.573  0.00  0.00    +0.000 C 
ENDBRANCH  12  15
ENDBRANCH   5   9
BRANCH   8  17
ATOM     17  N   UNL     1       0.006  11.220  21.866  0.00  0.00    +0.000 N 
ATOM     18  C   UNL     1      -0.987  11.552  22.776  0.00  0.00    +0.000 C 
ATOM     19  O   UNL     1      -1.692  10.753  23.383  0.00  0.00    +0.000 OA
ATOM     20  H   UNL     1       0.543  11.926  21.385  0.00  0.00    +0.000 HD
BRANCH  18  21
ATOM     21  C   UNL     1      -1.243  13.009  22.932  0.00  0.00    +0.000 A 
ATOM     22  C   UNL     1      -2.451  13.406  23.507  0.00  0.00    +0.000 A 
ATOM     23  C   UNL     1      -2.707  14.759  23.619  0.00  0.00    +0.000 A 
ATOM     24  N   UNL     1      -1.847  15.716  23.208  0.00  0.00    +0.000 NA
ATOM     25  C   UNL     1      -0.673  15.306  22.685  0.00  0.00    +0.000 A 
ATOM     26  C   UNL     1      -0.321  13.977  22.526  0.00  0.00    +0.000 A 
ENDBRANCH  18  21
ENDBRANCH   8  17
BRANCH   1  28
ATOM     27  C   UNL     1      -1.146  11.034  18.453  0.00  0.00    +0.000 C 
ATOM     28  C   UNL     1       0.284  11.347  18.871  0.00  0.00    +0.000 C 
ENDBRANCH   1  28
TORSDOF 5
ENDMDL
MODEL 8
REMARK VINA RESULT:      -6.9      0.914      1.047
REMARK  Name = 
REMARK  7 active torsions:
REMARK  status: ('A' for Active; 'I' for Inactive)
REMARK    1  A    between atoms: C_1  and  C_2
REMARK    2  A    between atoms: C_2  and  N_3
REMARK    3  A    between atoms: C_7  and  C_8
REMARK    4  A    between atoms: C_11  and  O_12
REMARK    5  A    between atoms: O_12  and  C_13
REMARK    6  A    between atoms: N_18  and  N_19
REMARK    7  A    between atoms: C_20  and  C_22
REMARK                            x       y       z     vdW  Elec       q    Type
REMARK                         _______ _______ _______ _____ _____    ______ ____
ROOT
ATOM      1  N   UNL     1       1.235   8.750  19.977  0.00  0.00    +0.000 N 
ATOM      2  C   UNL     1       1.869   7.536  20.181  0.00  0.00    +0.000 C 
ATOM      3  O   UNL     1       1.878   6.898  21.227  0.00  0.00    +0.000 OA
ATOM      4  C   UNL     1       2.614   7.114  18.971  0.00  0.00    +0.000 C 
ATOM      5  C   UNL     1       3.257   5.941  18.940  0.00  0.00    +0.000 C 
ATOM      6  S   UNL     1       2.540   8.339  17.781  0.00  0.00    +0.000 S 
ATOM      7  C   UNL     1       1.424   9.313  18.734  0.00  0.00    +0.000 C 
ATOM      8  N   UNL     1       0.940  10.380  18.186  0.00  0.00    +0.000 NA
ENDROOT
BRANCH   5   9
ATOM      9  C   UNL     1       4.112   5.456  17.859  0.00  0.00    +0.000 A 
ATOM     10  C   UNL     1       3.921   4.159  17.377  0.00  0.00    +0.000 A 
ATOM     11  C   UNL     1       4.704   3.682  16.325  0.00  0.00    +0.000 A 
ATOM     12  C   UNL     1       5.665   4.500  15.732  0.00  0.00    +0.000 A 
ATOM     13  C   UNL     1       5.867   5.791  16.221  0.00  0.00    +0.000 A 
ATOM     14  C   UNL     1       5.091   6.270  17.285  0.00  0.00    +0.000 A 
BRANCH  12  15
ATOM     15  O   UNL     1       6.370   3.921  14.713  0.00  0.00    +0.000 OA
ATOM     16  C   UNL     1       7.095   4.817  13.879  0.00  0.00    +0.000 C 
ENDBRANCH  12  15
ENDBRANCH   5   9
BRANCH   8  17
ATOM     17  N   UNL     1      -0.096  11.048  18.756  0.00  0.00    +0.000 N 
ATOM     18  C   UNL     1      -1.389  10.848  18.295  0.00  0.00    +0.000 C 
ATOM     19  O   UNL     1      -1.701  10.165  17.327  0.00  0.00    +0.000 OA
ATOM     20  H   UNL     1       0.098  11.637  19.553  0.00  0.00    +0.000 HD
BRANCH  18  21
ATOM     21  C   UNL     1      -2.444  11.615  19.012  0.00  0.00    +0.000 A 
ATOM     22  C   UNL     1      -2.079  12.318  20.161  0.00  0.00    +0.000 A 
ATOM     23  C   UNL     1      -3.064  12.999  20.849  0.00  0.00    +0.000 A 
ATOM     24  N   UNL     1      -4.358  13.027  20.464  0.00  0.00    +0.000 NA
ATOM     25  C   UNL     1      -4.679  12.366  19.332  0.00  0.00    +0.000 A 
ATOM     26  C   UNL     1      -3.769  11.651  18.573  0.00  0.00    +0.000 A 
ENDBRANCH  18  21
ENDBRANCH   8  17
BRANCH   1  28
ATOM     27  C   UNL     1      -0.616   8.784  21.634  0.00  0.00    +0.000 C 
ATOM     28  C   UNL     1       0.687   9.411  21.158  0.00  0.00    +0.000 C 
ENDBRANCH   1  28
TORSDOF 5
ENDMDL
MODEL 9
REMARK VINA RESULT:      -6.8      1.166      1.600
REMARK  Name = 
REMARK  7 active torsions:
REMARK  status: ('A' for Active; 'I' for Inactive)
REMARK    1  A    between atoms: C_1  and  C_2
REMARK    2  A    between atoms: C_2  and  N_3
REMARK    3  A    between atoms: C_7  and  C_8
REMARK    4  A    between atoms: C_11  and  O_12
REMARK    5  A    between atoms: O_12  and  C_13
REMARK    6  A    between atoms: N_18  and  N_19
REMARK    7  A    between atoms: C_20  and  C_22
REMARK                            x       y       z     vdW  Elec       q    Type
REMARK                         _______ _______ _______ _____ _____    ______ ____
ROOT
ATOM      1  N   UNL     1       1.032   9.065  20.146  0.00  0.00    +0.000 N 
ATOM      2  C   UNL     1       1.737   7.886  20.324  0.00  0.00    +0.000 C 
ATOM      3  O   UNL     1       1.873   7.283  21.383  0.00  0.00    +0.000 OA
ATOM      4  C   UNL     1       2.381   7.454  19.061  0.00  0.00    +0.000 C 
ATOM      5  C   UNL     1       3.070   6.309  19.002  0.00  0.00    +0.000 C 
ATOM      6  S   UNL     1       2.139   8.635  17.847  0.00  0.00    +0.000 S 
ATOM      7  C   UNL     1       1.077   9.593  18.875  0.00  0.00    +0.000 C 
ATOM      8  N   UNL     1       0.496  10.620  18.345  0.00  0.00    +0.000 NA
ENDROOT
BRANCH   5   9
ATOM      9  C   UNL     1       3.839   5.823  17.858  0.00  0.00    +0.000 A 
ATOM     10  C   UNL     1       3.787   4.465  17.536  0.00  0.00    +0.000 A 
ATOM     11  C   UNL     1       4.487   3.981  16.431  0.00  0.00    +0.000 A 
ATOM     12  C   UNL     1       5.226   4.850  15.627  0.00  0.00    +0.000 A 
ATOM     13  C   UNL     1       5.291   6.204  15.955  0.00  0.00    +0.000 A 
ATOM     14  C   UNL     1       4.597   6.692  17.070  0.00  0.00    +0.000 A 
BRANCH  12  15
ATOM     15  O   UNL     1       5.870   4.258  14.575  0.00  0.00    +0.000 OA
ATOM     16  C   UNL     1       7.102   4.858  14.192  0.00  0.00    +0.000 C 
ENDBRANCH  12  15
ENDBRANCH   5   9
BRANCH   8  17
ATOM     17  N   UNL     1      -0.510  11.263  18.992  0.00  0.00    +0.000 N 
ATOM     18  C   UNL     1      -1.767  11.345  18.413  0.00  0.00    +0.000 C 
ATOM     19  O   UNL     1      -2.060  10.955  17.289  0.00  0.00    +0.000 OA
ATOM     20  H   UNL     1      -0.328  11.618  19.919  0.00  0.00    +0.000 HD
BRANCH  18  21
ATOM     21  C   UNL     1      -2.795  12.052  19.226  0.00  0.00    +0.000 A 
ATOM     22  C   UNL     1      -4.131  11.927  18.847  0.00  0.00    +0.000 A 
ATOM     23  C   UNL     1      -5.083  12.612  19.577  0.00  0.00    +0.000 A 
ATOM     24  N   UNL     1      -4.788  13.389  20.641  0.00  0.00    +0.000 NA
ATOM     25  C   UNL     1      -3.492  13.467  21.007  0.00  0.00    +0.000 A 
ATOM     26  C   UNL     1      -2.463  12.823  20.342  0.00  0.00    +0.000 A 
ENDBRANCH  18  21
ENDBRANCH   8  17
BRANCH   1  28
ATOM     27  C   UNL     1      -0.607   9.036  22.013  0.00  0.00    +0.000 C 
ATOM     28  C   UNL     1       0.571   9.742  21.355  0.00  0.00    +0.000 C 
ENDBRANCH   1  28
TORSDOF 5
ENDMDL
