MODEL 1
REMARK VINA RESULT:      -7.0      0.000      0.000
REMARK  Name = 
REMARK  4 active torsions:
REMARK  status: ('A' for Active; 'I' for Inactive)
REMARK    1  A    between atoms: C_1  and  S_2
REMARK    2  A    between atoms: S_2  and  C_3
REMARK    3  A    between atoms: C_8  and  C_9
REMARK    4  A    between atoms: C_15  and  C_16
REMARK                            x       y       z     vdW  Elec       q    Type
REMARK                         _______ _______ _______ _____ _____    ______ ____
ROOT
ATOM      1  C   UNL     1       2.279   6.336  19.697  0.00  0.00    +0.000 C 
ATOM      2  O   UNL     1       1.826   5.780  20.699  0.00  0.00    +0.000 OA
ATOM      3  N   UNL     1       2.159   7.681  19.449  0.00  0.00    +0.000 N 
ATOM      4  C   UNL     1       1.470   8.554  20.297  0.00  0.00    +0.000 A 
ATOM      5  C   UNL     1       1.552   8.454  21.680  0.00  0.00    +0.000 A 
ATOM      6  C   UNL     1       0.757   9.287  22.462  0.00  0.00    +0.000 A 
ATOM      7  C   UNL     1      -0.114  10.177  21.841  0.00  0.00    +0.000 A 
ATOM      8  C   UNL     1      -1.087  10.998  22.624  0.00  0.00    +0.000 C 
ATOM      9  C   UNL     1      -0.085  10.235  20.451  0.00  0.00    +0.000 A 
ATOM     10  N   UNL     1       0.718   9.477  19.670  0.00  0.00    +0.000 NA
ATOM     11  H   UNL     1       2.195   8.004  18.492  0.00  0.00    +0.000 HD
ENDROOT
BRANCH   1  17
ATOM     12  C   UNL     1       5.038   5.290  17.358  0.00  0.00    +0.000 A 
ATOM     13  C   UNL     1       4.522   4.148  16.750  0.00  0.00    +0.000 A 
ATOM     14  C   UNL     1       3.270   3.657  17.128  0.00  0.00    +0.000 A 
ATOM     15  C   UNL     1       2.504   4.312  18.102  0.00  0.00    +0.000 A 
ATOM     16 CL   UNL     1       0.996   3.568  18.501  0.00  0.00    +0.000 Cl
ATOM     17  C   UNL     1       2.992   5.480  18.699  0.00  0.00    +0.000 A 
ATOM     18  C   UNL     1       4.272   5.945  18.324  0.00  0.00    +0.000 A 
BRANCH  12  20
ATOM     19  C   UNL     1       6.870   4.950  15.320  0.00  0.00    +0.000 C 
ATOM     20  S   UNL     1       6.613   5.929  16.825  0.00  0.00    +0.000 S 
ENDBRANCH  12  20
ENDBRANCH   1  17
TORSDOF 2
ENDMDL
MODEL 2
REMARK VINA RESULT:      -7.0      5.118      6.099
REMARK  Name = 
REMARK  4 active torsions:
REMARK  status: ('A' for Active; 'I' for Inactive)
REMARK    1  A    between atoms: C_1  and  S_2
REMARK    2  A    between atoms: S_2  and  C_3
REMARK    3  A    between atoms: C_8  and  C_9
REMARK    4  A    between atoms: C_15  and  C_16
REMARK                            x       y       z     vdW  Elec       q    Type
REMARK                         _______ _______ _______ _____ _____    ______ ____
ROOT
ATOM      1  C   UNL     1       4.646   4.451  16.662  0.00  0.00    +0.000 C 
ATOM      2  O   UNL     1       3.933   5.423  16.912  0.00  0.00    +0.000 OA
ATOM      3  N   UNL     1       4.580   3.260  17.343  0.00  0.00    +0.000 N 
ATOM      4  C   UNL     1       3.716   3.045  18.421  0.00  0.00    +0.000 A 
ATOM      5  C   UNL     1       2.415   3.532  18.431  0.00  0.00    +0.000 A 
ATOM      6  C   UNL     1       1.648   3.373  19.580  0.00  0.00    +0.000 A 
ATOM      7  C   UNL     1       2.207   2.756  20.694  0.00  0.00    +0.000 A 
ATOM      8  C   UNL     1       1.480   2.679  21.998  0.00  0.00    +0.000 C 
ATOM      9  C   UNL     1       3.501   2.259  20.567  0.00  0.00    +0.000 A 
ATOM     10  N   UNL     1       4.249   2.351  19.444  0.00  0.00    +0.000 NA
ATOM     11  H   UNL     1       5.398   2.667  17.366  0.00  0.00    +0.000 HD
ENDROOT
BRANCH   1  17
ATOM     12  C   UNL     1       6.219   3.822  13.299  0.00  0.00    +0.000 A 
ATOM     13  C   UNL     1       7.395   4.566  13.355  0.00  0.00    +0.000 A 
ATOM     14  C   UNL     1       7.683   5.338  14.483  0.00  0.00    +0.000 A 
ATOM     15  C   UNL     1       6.812   5.362  15.581  0.00  0.00    +0.000 A 
ATOM     16 CL   UNL     1       7.274   6.396  16.887  0.00  0.00    +0.000 Cl
ATOM     17  C   UNL     1       5.642   4.594  15.555  0.00  0.00    +0.000 A 
ATOM     18  C   UNL     1       5.355   3.841  14.395  0.00  0.00    +0.000 A 
BRANCH  12  20
ATOM     19  C   UNL     1       4.210   3.339  11.466  0.00  0.00    +0.000 C 
ATOM     20  S   UNL     1       5.895   2.803  11.875  0.00  0.00    +0.000 S 
ENDBRANCH  12  20
ENDBRANCH   1  17
TORSDOF 2
ENDMDL
MODEL 3
REMARK VINA RESULT:      -6.5      1.596      1.676
REMARK  Name = 
REMARK  4 active torsions:
REMARK  status: ('A' for Active; 'I' for Inactive)
REMARK    1  A    between atoms: C_1  and  S_2
REMARK    2  A    between atoms: S_2  and  C_3
REMARK    3  A    between atoms: C_8  and  C_9
REMARK    4  A    between atoms: C_15  and  C_16
REMARK                            x       y       z     vdW  Elec       q    Type
REMARK                         _______ _______ _______ _____ _____    ______ ____
ROOT
ATOM      1  C   UNL     1       2.066   5.762  20.142  0.00  0.00    +0.000 C 
ATOM      2  O   UNL     1       1.100   5.477  20.850  0.00  0.00    +0.000 OA
ATOM      3  N   UNL     1       2.412   7.047  19.803  0.00  0.00    +0.000 N 
ATOM      4  C   UNL     1       1.673   8.165  20.202  0.00  0.00    +0.000 A 
ATOM      5  C   UNL     1       1.121   8.270  21.472  0.00  0.00    +0.000 A 
ATOM      6  C   UNL     1       0.308   9.361  21.764  0.00  0.00    +0.000 A 
ATOM      7  C   UNL     1       0.050  10.303  20.773  0.00  0.00    +0.000 A 
ATOM      8  C   UNL     1      -0.920  11.420  20.986  0.00  0.00    +0.000 C 
ATOM      9  C   UNL     1       0.690  10.134  19.549  0.00  0.00    +0.000 A 
ATOM     10  N   UNL     1       1.529   9.114  19.257  0.00  0.00    +0.000 NA
ATOM     11  H   UNL     1       2.939   7.202  18.955  0.00  0.00    +0.000 HD
ENDROOT
BRANCH   1  17
ATOM     12  C   UNL     1       4.335   3.925  17.763  0.00  0.00    +0.000 A 
ATOM     13  C   UNL     1       4.434   2.659  18.334  0.00  0.00    +0.000 A 
ATOM     14  C   UNL     1       3.798   2.385  19.547  0.00  0.00    +0.000 A 
ATOM     15  C   UNL     1       3.034   3.364  20.197  0.00  0.00    +0.000 A 
ATOM     16 CL   UNL     1       2.341   2.898  21.711  0.00  0.00    +0.000 Cl
ATOM     17  C   UNL     1       2.896   4.632  19.621  0.00  0.00    +0.000 A 
ATOM     18  C   UNL     1       3.569   4.899  18.408  0.00  0.00    +0.000 A 
BRANCH  12  20
ATOM     19  C   UNL     1       6.819   4.535  16.723  0.00  0.00    +0.000 C 
ATOM     20  S   UNL     1       5.110   4.240  16.191  0.00  0.00    +0.000 S 
ENDBRANCH  12  20
ENDBRANCH   1  17
TORSDOF 2
ENDMDL
MODEL 4
REMARK VINA RESULT:      -6.5      1.618      1.938
REMARK  Name = 
REMARK  4 active torsions:
REMARK  status: ('A' for Active; 'I' for Inactive)
REMARK    1  A    between atoms: C_1  and  S_2
REMARK    2  A    between atoms: S_2  and  C_3
REMARK    3  A    between atoms: C_8  and  C_9
REMARK    4  A    between atoms: C_15  and  C_16
REMARK                            x       y       z     vdW  Elec       q    Type
REMARK                         _______ _______ _______ _____ _____    ______ ____
ROOT
ATOM      1  C   UNL     1       2.904   7.140  18.461  0.00  0.00    +0.000 C 
ATOM      2  O   UNL     1       3.150   8.134  17.776  0.00  0.00    +0.000 OA
ATOM      3  N   UNL     1       2.076   7.153  19.557  0.00  0.00    +0.000 N 
ATOM      4  C   UNL     1       1.457   8.314  20.030  0.00  0.00    +0.000 A 
ATOM      5  C   UNL     1       0.924   9.267  19.172  0.00  0.00    +0.000 A 
ATOM      6  C   UNL     1       0.419  10.447  19.709  0.00  0.00    +0.000 A 
ATOM      7  C   UNL     1       0.482  10.652  21.083  0.00  0.00    +0.000 A 
ATOM      8  C   UNL     1       0.080  11.952  21.703  0.00  0.00    +0.000 C 
ATOM      9  C   UNL     1       0.989   9.616  21.862  0.00  0.00    +0.000 A 
ATOM     10  N   UNL     1       1.435   8.437  21.370  0.00  0.00    +0.000 NA
ATOM     11  H   UNL     1       2.207   6.453  20.273  0.00  0.00    +0.000 HD
ENDROOT
BRANCH   1  17
ATOM     12  C   UNL     1       5.730   4.764  17.721  0.00  0.00    +0.000 A 
ATOM     13  C   UNL     1       5.073   3.622  17.269  0.00  0.00    +0.000 A 
ATOM     14  C   UNL     1       3.678   3.580  17.241  0.00  0.00    +0.000 A 
ATOM     15  C   UNL     1       2.916   4.686  17.643  0.00  0.00    +0.000 A 
ATOM     16 CL   UNL     1       1.200   4.477  17.598  0.00  0.00    +0.000 Cl
ATOM     17  C   UNL     1       3.559   5.854  18.068  0.00  0.00    +0.000 A 
ATOM     18  C   UNL     1       4.971   5.868  18.115  0.00  0.00    +0.000 A 
BRANCH  12  20
ATOM     19  C   UNL     1       7.815   6.063  18.983  0.00  0.00    +0.000 C 
ATOM     20  S   UNL     1       7.510   4.817  17.699  0.00  0.00    +0.000 S 
ENDBRANCH  12  20
ENDBRANCH   1  17
TORSDOF 2
ENDMDL
MODEL 5
REMARK VINA RESULT:      -6.5      3.018      7.270
REMARK  Name = 
REMARK  4 active torsions:
REMARK  status: ('A' for Active; 'I' for Inactive)
REMARK    1  A    between atoms: C_1  and  S_2
REMARK    2  A    between atoms: S_2  and  C_3
REMARK    3  A    between atoms: C_8  and  C_9
REMARK    4  A    between atoms: C_15  and  C_16
REMARK                            x       y       z     vdW  Elec       q    Type
REMARK                         _______ _______ _______ _____ _____    ______ ____
ROOT
ATOM      1  C   UNL     1       2.607   7.810  18.172  0.00  0.00    +0.000 C 
ATOM      2  O   UNL     1       2.606   8.393  17.087  0.00  0.00    +0.000 OA
ATOM      3  N   UNL     1       3.330   6.671  18.428  0.00  0.00    +0.000 N 
ATOM      4  C   UNL     1       4.114   6.034  17.462  0.00  0.00    +0.000 A 
ATOM      5  C   UNL     1       4.883   6.746  16.549  0.00  0.00    +0.000 A 
ATOM      6  C   UNL     1       5.554   6.050  15.549  0.00  0.00    +0.000 A 
ATOM      7  C   UNL     1       5.419   4.667  15.472  0.00  0.00    +0.000 A 
ATOM      8  C   UNL     1       6.004   3.883  14.341  0.00  0.00    +0.000 C 
ATOM      9  C   UNL     1       4.666   4.043  16.462  0.00  0.00    +0.000 A 
ATOM     10  N   UNL     1       4.050   4.689  17.477  0.00  0.00    +0.000 NA
ATOM     11  H   UNL     1       3.013   6.047  19.156  0.00  0.00    +0.000 HD
ENDROOT
BRANCH   1  17
ATOM     12  C   UNL     1       0.594  10.414  20.002  0.00  0.00    +0.000 A 
ATOM     13  C   UNL     1       0.253   9.773  21.191  0.00  0.00    +0.000 A 
ATOM     14  C   UNL     1       0.632   8.446  21.406  0.00  0.00    +0.000 A 
ATOM     15  C   UNL     1       1.378   7.746  20.447  0.00  0.00    +0.000 A 
ATOM     16 CL   UNL     1       1.738   6.098  20.828  0.00  0.00    +0.000 Cl
ATOM     17  C   UNL     1       1.758   8.385  19.262  0.00  0.00    +0.000 A 
ATOM     18  C   UNL     1       1.341   9.718  19.050  0.00  0.00    +0.000 A 
BRANCH  12  20
ATOM     19  C   UNL     1      -1.059  11.962  18.423  0.00  0.00    +0.000 C 
ATOM     20  S   UNL     1       0.147  12.122  19.769  0.00  0.00    +0.000 S 
ENDBRANCH  12  20
ENDBRANCH   1  17
TORSDOF 2
ENDMDL
MODEL 6
REMARK VINA RESULT:      -6.4      1.399      1.599
REMARK  Name = 
REMARK  4 active torsions:
REMARK  status: ('A' for Active; 'I' for Inactive)
REMARK    1  A    between atoms: C_1  and  S_2
REMARK    2  A    between atoms: S_2  and  C_3
REMARK    3  A    between atoms: C_8  and  C_9
REMARK    4  A    between atoms: C_15  and  C_16
REMARK                            x       y       z     vdW  Elec       q    Type
REMARK                         _______ _______ _______ _____ _____    ______ ____
ROOT
ATOM      1  C   UNL     1       2.138   6.577  19.968  0.00  0.00    +0.000 C 
ATOM      2  O   UNL     1       1.371   6.401  20.915  0.00  0.00    +0.000 OA
ATOM      3  N   UNL     1       2.199   7.741  19.241  0.00  0.00    +0.000 N 
ATOM      4  C   UNL     1       1.362   8.835  19.482  0.00  0.00    +0.000 A 
ATOM      5  C   UNL     1       1.028   9.238  20.768  0.00  0.00    +0.000 A 
ATOM      6  C   UNL     1       0.107  10.267  20.932  0.00  0.00    +0.000 A 
ATOM      7  C   UNL     1      -0.473  10.848  19.809  0.00  0.00    +0.000 A 
ATOM      8  C   UNL     1      -1.566  11.861  19.924  0.00  0.00    +0.000 C 
ATOM      9  C   UNL     1      -0.035  10.407  18.563  0.00  0.00    +0.000 A 
ATOM     10  N   UNL     1       0.899   9.448  18.376  0.00  0.00    +0.000 NA
ATOM     11  H   UNL     1       2.538   7.702  18.290  0.00  0.00    +0.000 HD
ENDROOT
BRANCH   1  17
ATOM     12  C   UNL     1       5.345   4.880  18.962  0.00  0.00    +0.000 A 
ATOM     13  C   UNL     1       4.954   3.557  18.764  0.00  0.00    +0.000 A 
ATOM     14  C   UNL     1       3.634   3.173  19.004  0.00  0.00    +0.000 A 
ATOM     15  C   UNL     1       2.677   4.107  19.424  0.00  0.00    +0.000 A 
ATOM     16 CL   UNL     1       1.094   3.480  19.726  0.00  0.00    +0.000 Cl
ATOM     17  C   UNL     1       3.043   5.446  19.595  0.00  0.00    +0.000 A 
ATOM     18  C   UNL     1       4.389   5.811  19.374  0.00  0.00    +0.000 A 
BRANCH  12  20
ATOM     19  C   UNL     1       7.243   4.576  16.979  0.00  0.00    +0.000 C 
ATOM     20  S   UNL     1       7.021   5.362  18.599  0.00  0.00    +0.000 S 
ENDBRANCH  12  20
ENDBRANCH   1  17
TORSDOF 2
ENDMDL
MODEL 7
REMARK VINA RESULT:      -6.4      3.299      7.366
REMARK  Name = 
REMARK  4 active torsions:
REMARK  status: ('A' for Active; 'I' for Inactive)
REMARK    1  A    between atoms: C_1  and  S_2
REMARK    2  A    between atoms: S_2  and  C_3
REMARK    3  A    between atoms: C_8  and  C_9
REMARK    4  A    between atoms: C_15  and  C_16
REMARK                            x       y       z     vdW  Elec       q    Type
REMARK                         _______ _______ _______ _____ _____    ______ ____
ROOT
ATOM      1  C   UNL     1       2.190   8.396  18.200  0.00  0.00    +0.000 C 
ATOM      2  O   UNL     1       2.535   8.923  17.142  0.00  0.00    +0.000 OA
ATOM      3  N   UNL     1       2.656   7.179  18.636  0.00  0.00    +0.000 N 
ATOM      4  C   UNL     1       3.548   6.396  17.896  0.00  0.00    +0.000 A 
ATOM      5  C   UNL     1       4.609   6.952  17.192  0.00  0.00    +0.000 A 
ATOM      6  C   UNL     1       5.391   6.126  16.392  0.00  0.00    +0.000 A 
ATOM      7  C   UNL     1       5.078   4.774  16.297  0.00  0.00    +0.000 A 
ATOM      8  C   UNL     1       5.796   3.866  15.352  0.00  0.00    +0.000 C 
ATOM      9  C   UNL     1       4.027   4.305  17.080  0.00  0.00    +0.000 A 
ATOM     10  N   UNL     1       3.286   5.076  17.908  0.00  0.00    +0.000 NA
ATOM     11  H   UNL     1       2.086   6.639  19.271  0.00  0.00    +0.000 HD
ENDROOT
BRANCH   1  17
ATOM     12  C   UNL     1      -0.446  10.953  19.033  0.00  0.00    +0.000 A 
ATOM     13  C   UNL     1      -0.651  10.763  20.397  0.00  0.00    +0.000 A 
ATOM     14  C   UNL     1       0.034   9.753  21.076  0.00  0.00    +0.000 A 
ATOM     15  C   UNL     1       0.953   8.933  20.408  0.00  0.00    +0.000 A 
ATOM     16 CL   UNL     1       1.694   7.697  21.364  0.00  0.00    +0.000 Cl
ATOM     17  C   UNL     1       1.198   9.131  19.045  0.00  0.00    +0.000 A 
ATOM     18  C   UNL     1       0.474  10.138  18.369  0.00  0.00    +0.000 A 
BRANCH  12  20
ATOM     19  C   UNL     1      -2.602  11.350  17.353  0.00  0.00    +0.000 C 
ATOM     20  S   UNL     1      -1.290  12.279  18.196  0.00  0.00    +0.000 S 
ENDBRANCH  12  20
ENDBRANCH   1  17
TORSDOF 2
ENDMDL
MODEL 8
REMARK VINA RESULT:      -6.3      2.072      2.541
REMARK  Name = 
REMARK  4 active torsions:
REMARK  status: ('A' for Active; 'I' for Inactive)
REMARK    1  A    between atoms: C_1  and  S_2
REMARK    2  A    between atoms: S_2  and  C_3
REMARK    3  A    between atoms: C_8  and  C_9
REMARK    4  A    between atoms: C_15  and  C_16
REMARK                            x       y       z     vdW  Elec       q    Type
REMARK                         _______ _______ _______ _____ _____    ______ ____
ROOT
ATOM      1  C   UNL     1       1.952   6.755  20.031  0.00  0.00    +0.000 C 
ATOM      2  O   UNL     1       1.453   6.146  20.978  0.00  0.00    +0.000 OA
ATOM      3  N   UNL     1       1.845   8.113  19.854  0.00  0.00    +0.000 N 
ATOM      4  C   UNL     1       1.121   8.939  20.719  0.00  0.00    +0.000 A 
ATOM      5  C   UNL     1       1.139   8.761  22.097  0.00  0.00    +0.000 A 
ATOM      6  C   UNL     1       0.311   9.552  22.887  0.00  0.00    +0.000 A 
ATOM      7  C   UNL     1      -0.529  10.479  22.280  0.00  0.00    +0.000 A 
ATOM      8  C   UNL     1      -1.535  11.259  23.064  0.00  0.00    +0.000 C 
ATOM      9  C   UNL     1      -0.437  10.616  20.898  0.00  0.00    +0.000 A 
ATOM     10  N   UNL     1       0.399   9.900  20.112  0.00  0.00    +0.000 NA
ATOM     11  H   UNL     1       1.925   8.490  18.920  0.00  0.00    +0.000 HD
ENDROOT
BRANCH   1  17
ATOM     12  C   UNL     1       3.429   3.684  18.429  0.00  0.00    +0.000 A 
ATOM     13  C   UNL     1       4.147   4.202  17.354  0.00  0.00    +0.000 A 
ATOM     14  C   UNL     1       4.127   5.574  17.093  0.00  0.00    +0.000 A 
ATOM     15  C   UNL     1       3.408   6.453  17.915  0.00  0.00    +0.000 A 
ATOM     16 CL   UNL     1       3.437   8.117  17.446  0.00  0.00    +0.000 Cl
ATOM     17  C   UNL     1       2.708   5.954  19.019  0.00  0.00    +0.000 A 
ATOM     18  C   UNL     1       2.717   4.561  19.251  0.00  0.00    +0.000 A 
BRANCH  12  20
ATOM     19  C   UNL     1       4.547   1.951  20.265  0.00  0.00    +0.000 C 
ATOM     20  S   UNL     1       3.509   1.939  18.777  0.00  0.00    +0.000 S 
ENDBRANCH  12  20
ENDBRANCH   1  17
TORSDOF 2
ENDMDL
MODEL 9
REMARK VINA RESULT:      -6.3      2.578      3.411
REMARK  Name = 
REMARK  4 active torsions:
REMARK  status: ('A' for Active; 'I' for Inactive)
REMARK    1  A    between atoms: C_1  and  S_2
REMARK    2  A    between atoms: S_2  and  C_3
REMARK    3  A    between atoms: C_8  and  C_9
REMARK    4  A    between atoms: C_15  and  C_16
REMARK                            x       y       z     vdW  Elec       q    Type
REMARK                         _______ _______ _______ _____ _____    ______ ____
ROOT
ATOM      1  C   UNL     1       2.607   7.393  18.344  0.00  0.00    +0.000 C 
ATOM      2  O   UNL     1       2.937   8.320  17.604  0.00  0.00    +0.000 OA
ATOM      3  N   UNL     1       1.794   7.543  19.441  0.00  0.00    +0.000 N 
ATOM      4  C   UNL     1       1.286   8.779  19.849  0.00  0.00    +0.000 A 
ATOM      5  C   UNL     1       0.834   9.728  18.940  0.00  0.00    +0.000 A 
ATOM      6  C   UNL     1       0.442  10.976  19.411  0.00  0.00    +0.000 A 
ATOM      7  C   UNL     1       0.535  11.253  20.771  0.00  0.00    +0.000 A 
ATOM      8  C   UNL     1       0.258  12.616  21.316  0.00  0.00    +0.000 C 
ATOM      9  C   UNL     1       0.953  10.220  21.605  0.00  0.00    +0.000 A 
ATOM     10  N   UNL     1       1.287   8.980  21.180  0.00  0.00    +0.000 NA
ATOM     11  H   UNL     1       1.867   6.875  20.196  0.00  0.00    +0.000 HD
ENDROOT
BRANCH   1  17
ATOM     12  C   UNL     1       2.673   3.631  18.205  0.00  0.00    +0.000 A 
ATOM     13  C   UNL     1       3.923   3.356  17.655  0.00  0.00    +0.000 A 
ATOM     14  C   UNL     1       4.762   4.401  17.265  0.00  0.00    +0.000 A 
ATOM     15  C   UNL     1       4.378   5.738  17.441  0.00  0.00    +0.000 A 
ATOM     16 CL   UNL     1       5.498   6.926  16.873  0.00  0.00    +0.000 Cl
ATOM     17  C   UNL     1       3.140   6.033  18.023  0.00  0.00    +0.000 A 
ATOM     18  C   UNL     1       2.292   4.962  18.385  0.00  0.00    +0.000 A 
BRANCH  12  20
ATOM     19  C   UNL     1       1.035   2.947  20.321  0.00  0.00    +0.000 C 
ATOM     20  S   UNL     1       1.638   2.285  18.743  0.00  0.00    +0.000 S 
ENDBRANCH  12  20
ENDBRANCH   1  17
TORSDOF 2
ENDMDL
