MODEL 1
REMARK VINA RESULT:      -7.6      0.000      0.000
REMARK  Name = 
REMARK  6 active torsions:
REMARK  status: ('A' for Active; 'I' for Inactive)
REMARK    1  A    between atoms: C_1  and  N_2
REMARK    2  A    between atoms: C_4  and  C_5
REMARK    3  A    between atoms: C_6  and  O_7
REMARK    4  A    between atoms: N_8  and  C_9
REMARK    5  A    between atoms: N_12  and  C_13
REMARK    6  A    between atoms: C_17  and  C_18
REMARK                            x       y       z     vdW  Elec       q    Type
REMARK                         _______ _______ _______ _____ _____    ______ ____
ROOT
ATOM      1  C   UNL     1       3.053   4.011  17.714  0.00  0.00    +0.000 C 
ATOM      2  N   UNL     1       3.085   5.434  17.945  0.00  0.00    +0.000 N 
ATOM      3  N   UNL     1       2.285   6.081  18.806  0.00  0.00    +0.000 NA
ATOM      4  C   UNL     1       2.448   7.347  18.514  0.00  0.00    +0.000 C 
ATOM      5  C   UNL     1       3.358   7.607  17.336  0.00  0.00    +0.000 C 
ATOM      6  C   UNL     1       4.049   6.248  17.209  0.00  0.00    +0.000 C 
ENDROOT
BRANCH   4   7
ATOM      7  C   UNL     1       1.805   8.445  19.255  0.00  0.00    +0.000 A 
ATOM      8  C   UNL     1       1.562   8.310  20.567  0.00  0.00    +0.000 A 
ATOM      9  N   UNL     1       1.021   9.340  21.311  0.00  0.00    +0.000 N 
ATOM     10  C   UNL     1       0.778   9.195  22.739  0.00  0.00    +0.000 C 
ATOM     11  C   UNL     1       0.635  10.551  20.742  0.00  0.00    +0.000 A 
ATOM     12  O   UNL     1       0.120  11.448  21.413  0.00  0.00    +0.000 OA
ATOM     13  N   UNL     1       0.865  10.682  19.380  0.00  0.00    +0.000 N 
ATOM     14  C   UNL     1       0.462  11.907  18.716  0.00  0.00    +0.000 C 
ATOM     15  C   UNL     1       1.480   9.725  18.599  0.00  0.00    +0.000 A 
ATOM     16  O   UNL     1       1.736   9.895  17.407  0.00  0.00    +0.000 OA
BRANCH   8  17
ATOM     17  O   UNL     1       1.820   7.148  21.267  0.00  0.00    +0.000 OA
ATOM     18  H   UNL     1       2.720   6.833  21.017  0.00  0.00    +0.000 HD
ENDBRANCH   8  17
ENDBRANCH   4   7
BRANCH   6  19
ATOM     19  C   UNL     1       5.437   6.227  17.833  0.00  0.00    +0.000 A 
ATOM     20  C   UNL     1       6.474   7.030  17.326  0.00  0.00    +0.000 A 
ATOM     21  C   UNL     1       7.747   7.002  17.895  0.00  0.00    +0.000 A 
ATOM     22  C   UNL     1       8.013   6.174  18.982  0.00  0.00    +0.000 A 
ATOM     23  C   UNL     1       7.001   5.369  19.503  0.00  0.00    +0.000 A 
ATOM     24  C   UNL     1       5.726   5.398  18.929  0.00  0.00    +0.000 A 
ENDBRANCH   6  19
TORSDOF 3
ENDMDL
MODEL 2
REMARK VINA RESULT:      -7.6      0.036      1.005
REMARK  Name = 
REMARK  6 active torsions:
REMARK  status: ('A' for Active; 'I' for Inactive)
REMARK    1  A    between atoms: C_1  and  N_2
REMARK    2  A    between atoms: C_4  and  C_5
REMARK    3  A    between atoms: C_6  and  O_7
REMARK    4  A    between atoms: N_8  and  C_9
REMARK    5  A    between atoms: N_12  and  C_13
REMARK    6  A    between atoms: C_17  and  C_18
REMARK                            x       y       z     vdW  Elec       q    Type
REMARK                         _______ _______ _______ _____ _____    ______ ____
ROOT
ATOM      1  C   UNL     1       3.063   4.023  17.646  0.00  0.00    +0.000 C 
ATOM      2  N   UNL     1       3.100   5.443  17.895  0.00  0.00    +0.000 N 
ATOM      3  N   UNL     1       2.296   6.084  18.756  0.00  0.00    +0.000 NA
ATOM      4  C   UNL     1       2.470   7.353  18.482  0.00  0.00    +0.000 C 
ATOM      5  C   UNL     1       3.394   7.621  17.318  0.00  0.00    +0.000 C 
ATOM      6  C   UNL     1       4.078   6.260  17.180  0.00  0.00    +0.000 C 
ENDROOT
BRANCH   4   7
ATOM      7  C   UNL     1       1.825   8.444  19.231  0.00  0.00    +0.000 A 
ATOM      8  C   UNL     1       1.578   8.299  20.541  0.00  0.00    +0.000 A 
ATOM      9  N   UNL     1       1.036   9.323  21.292  0.00  0.00    +0.000 N 
ATOM     10  C   UNL     1       0.788   9.165  22.718  0.00  0.00    +0.000 C 
ATOM     11  C   UNL     1       0.653  10.539  20.732  0.00  0.00    +0.000 A 
ATOM     12  O   UNL     1       0.137  11.431  21.409  0.00  0.00    +0.000 OA
ATOM     13  N   UNL     1       0.888  10.682  19.372  0.00  0.00    +0.000 N 
ATOM     14  C   UNL     1       0.488  11.913  18.717  0.00  0.00    +0.000 C 
ATOM     15  C   UNL     1       1.503   9.731  18.585  0.00  0.00    +0.000 A 
ATOM     16  O   UNL     1       1.763   9.910  17.395  0.00  0.00    +0.000 OA
BRANCH   8  17
ATOM     17  O   UNL     1       1.832   7.131  21.231  0.00  0.00    +0.000 OA
ATOM     18  H   UNL     1       2.726   7.204  21.640  0.00  0.00    +0.000 HD
ENDBRANCH   8  17
ENDBRANCH   4   7
BRANCH   6  19
ATOM     19  C   UNL     1       5.459   6.222  17.819  0.00  0.00    +0.000 A 
ATOM     20  C   UNL     1       5.727   5.389  18.920  0.00  0.00    +0.000 A 
ATOM     21  C   UNL     1       6.991   5.362  19.508  0.00  0.00    +0.000 A 
ATOM     22  C   UNL     1       8.014   6.166  19.012  0.00  0.00    +0.000 A 
ATOM     23  C   UNL     1       7.773   6.999  17.922  0.00  0.00    +0.000 A 
ATOM     24  C   UNL     1       6.504   7.025  17.335  0.00  0.00    +0.000 A 
ENDBRANCH   6  19
TORSDOF 3
ENDMDL
MODEL 3
REMARK VINA RESULT:      -7.4      1.794      2.263
REMARK  Name = 
REMARK  6 active torsions:
REMARK  status: ('A' for Active; 'I' for Inactive)
REMARK    1  A    between atoms: C_1  and  N_2
REMARK    2  A    between atoms: C_4  and  C_5
REMARK    3  A    between atoms: C_6  and  O_7
REMARK    4  A    between atoms: N_8  and  C_9
REMARK    5  A    between atoms: N_12  and  C_13
REMARK    6  A    between atoms: C_17  and  C_18
REMARK                            x       y       z     vdW  Elec       q    Type
REMARK                         _______ _______ _______ _____ _____    ______ ____
ROOT
ATOM      1  C   UNL     1       4.559   2.957  19.772  0.00  0.00    +0.000 C 
ATOM      2  N   UNL     1       3.924   4.107  19.177  0.00  0.00    +0.000 N 
ATOM      3  N   UNL     1       3.585   5.218  19.847  0.00  0.00    +0.000 NA
ATOM      4  C   UNL     1       2.813   5.876  19.019  0.00  0.00    +0.000 C 
ATOM      5  C   UNL     1       2.534   5.158  17.719  0.00  0.00    +0.000 C 
ATOM      6  C   UNL     1       3.626   4.088  17.747  0.00  0.00    +0.000 C 
ENDROOT
BRANCH   4   7
ATOM      7  C   UNL     1       2.250   7.205  19.309  0.00  0.00    +0.000 A 
ATOM      8  C   UNL     1       1.662   7.435  20.493  0.00  0.00    +0.000 A 
ATOM      9  N   UNL     1       1.180   8.684  20.829  0.00  0.00    +0.000 N 
ATOM     10  C   UNL     1       0.559   8.932  22.123  0.00  0.00    +0.000 C 
ATOM     11  C   UNL     1       1.213   9.761  19.946  0.00  0.00    +0.000 A 
ATOM     12  O   UNL     1       0.745  10.861  20.248  0.00  0.00    +0.000 OA
ATOM     13  N   UNL     1       1.801   9.517  18.714  0.00  0.00    +0.000 N 
ATOM     14  C   UNL     1       1.845  10.586  17.734  0.00  0.00    +0.000 C 
ATOM     15  C   UNL     1       2.377   8.318  18.350  0.00  0.00    +0.000 A 
ATOM     16  O   UNL     1       2.954   8.149  17.276  0.00  0.00    +0.000 OA
BRANCH   8  17
ATOM     17  O   UNL     1       1.484   6.456  21.450  0.00  0.00    +0.000 OA
ATOM     18  H   UNL     1       0.896   6.817  22.153  0.00  0.00    +0.000 HD
ENDBRANCH   8  17
ENDBRANCH   4   7
BRANCH   6  19
ATOM     19  C   UNL     1       4.831   4.446  16.889  0.00  0.00    +0.000 A 
ATOM     20  C   UNL     1       5.796   5.365  17.339  0.00  0.00    +0.000 A 
ATOM     21  C   UNL     1       6.895   5.697  16.547  0.00  0.00    +0.000 A 
ATOM     22  C   UNL     1       7.055   5.121  15.290  0.00  0.00    +0.000 A 
ATOM     23  C   UNL     1       6.112   4.207  14.822  0.00  0.00    +0.000 A 
ATOM     24  C   UNL     1       5.011   3.876  15.618  0.00  0.00    +0.000 A 
ENDBRANCH   6  19
TORSDOF 3
ENDMDL
MODEL 4
REMARK VINA RESULT:      -7.1      2.225      4.313
REMARK  Name = 
REMARK  6 active torsions:
REMARK  status: ('A' for Active; 'I' for Inactive)
REMARK    1  A    between atoms: C_1  and  N_2
REMARK    2  A    between atoms: C_4  and  C_5
REMARK    3  A    between atoms: C_6  and  O_7
REMARK    4  A    between atoms: N_8  and  C_9
REMARK    5  A    between atoms: N_12  and  C_13
REMARK    6  A    between atoms: C_17  and  C_18
REMARK                            x       y       z     vdW  Elec       q    Type
REMARK                         _______ _______ _______ _____ _____    ______ ____
ROOT
ATOM      1  C   UNL     1       4.143   7.063  17.374  0.00  0.00    +0.000 C 
ATOM      2  N   UNL     1       3.104   7.455  18.295  0.00  0.00    +0.000 N 
ATOM      3  N   UNL     1       2.260   8.478  18.095  0.00  0.00    +0.000 NA
ATOM      4  C   UNL     1       1.680   8.653  19.256  0.00  0.00    +0.000 C 
ATOM      5  C   UNL     1       2.193   7.752  20.355  0.00  0.00    +0.000 C 
ATOM      6  C   UNL     1       2.935   6.698  19.532  0.00  0.00    +0.000 C 
ENDROOT
BRANCH   4   7
ATOM      7  C   UNL     1       0.617   9.643  19.496  0.00  0.00    +0.000 A 
ATOM      8  C   UNL     1      -0.245   9.946  18.514  0.00  0.00    +0.000 A 
ATOM      9  N   UNL     1      -1.295  10.819  18.719  0.00  0.00    +0.000 N 
ATOM     10  C   UNL     1      -2.239  11.129  17.654  0.00  0.00    +0.000 C 
ATOM     11  C   UNL     1      -1.489  11.487  19.926  0.00  0.00    +0.000 A 
ATOM     12  O   UNL     1      -2.410  12.291  20.081  0.00  0.00    +0.000 OA
ATOM     13  N   UNL     1      -0.583  11.190  20.934  0.00  0.00    +0.000 N 
ATOM     14  C   UNL     1      -0.708  11.870  22.210  0.00  0.00    +0.000 C 
ATOM     15  C   UNL     1       0.433  10.265  20.821  0.00  0.00    +0.000 A 
ATOM     16  O   UNL     1       1.179   9.969  21.754  0.00  0.00    +0.000 OA
BRANCH   8  17
ATOM     17  O   UNL     1      -0.149   9.426  17.239  0.00  0.00    +0.000 OA
ATOM     18  H   UNL     1      -1.061   9.320  16.881  0.00  0.00    +0.000 HD
ENDBRANCH   8  17
ENDBRANCH   4   7
BRANCH   6  19
ATOM     19  C   UNL     1       2.129   5.422  19.337  0.00  0.00    +0.000 A 
ATOM     20  C   UNL     1       1.525   4.769  20.427  0.00  0.00    +0.000 A 
ATOM     21  C   UNL     1       0.794   3.595  20.246  0.00  0.00    +0.000 A 
ATOM     22  C   UNL     1       0.649   3.047  18.975  0.00  0.00    +0.000 A 
ATOM     23  C   UNL     1       1.237   3.676  17.878  0.00  0.00    +0.000 A 
ATOM     24  C   UNL     1       1.971   4.852  18.063  0.00  0.00    +0.000 A 
ENDBRANCH   6  19
TORSDOF 3
ENDMDL
MODEL 5
REMARK VINA RESULT:      -7.1      2.228      4.221
REMARK  Name = 
REMARK  6 active torsions:
REMARK  status: ('A' for Active; 'I' for Inactive)
REMARK    1  A    between atoms: C_1  and  N_2
REMARK    2  A    between atoms: C_4  and  C_5
REMARK    3  A    between atoms: C_6  and  O_7
REMARK    4  A    between atoms: N_8  and  C_9
REMARK    5  A    between atoms: N_12  and  C_13
REMARK    6  A    between atoms: C_17  and  C_18
REMARK                            x       y       z     vdW  Elec       q    Type
REMARK                         _______ _______ _______ _____ _____    ______ ____
ROOT
ATOM      1  C   UNL     1       4.151   7.095  17.357  0.00  0.00    +0.000 C 
ATOM      2  N   UNL     1       3.115   7.480  18.283  0.00  0.00    +0.000 N 
ATOM      3  N   UNL     1       2.266   8.501  18.090  0.00  0.00    +0.000 NA
ATOM      4  C   UNL     1       1.690   8.670  19.254  0.00  0.00    +0.000 C 
ATOM      5  C   UNL     1       2.209   7.767  20.347  0.00  0.00    +0.000 C 
ATOM      6  C   UNL     1       2.952   6.718  19.518  0.00  0.00    +0.000 C 
ENDROOT
BRANCH   4   7
ATOM      7  C   UNL     1       0.625   9.656  19.500  0.00  0.00    +0.000 A 
ATOM      8  C   UNL     1      -0.242   9.960  18.522  0.00  0.00    +0.000 A 
ATOM      9  N   UNL     1      -1.293  10.829  18.734  0.00  0.00    +0.000 N 
ATOM     10  C   UNL     1      -2.242  11.141  17.673  0.00  0.00    +0.000 C 
ATOM     11  C   UNL     1      -1.485  11.492  19.944  0.00  0.00    +0.000 A 
ATOM     12  O   UNL     1      -2.408  12.292  20.105  0.00  0.00    +0.000 OA
ATOM     13  N   UNL     1      -0.576  11.194  20.949  0.00  0.00    +0.000 N 
ATOM     14  C   UNL     1      -0.699  11.868  22.227  0.00  0.00    +0.000 C 
ATOM     15  C   UNL     1       0.443  10.272  20.828  0.00  0.00    +0.000 A 
ATOM     16  O   UNL     1       1.193   9.976  21.758  0.00  0.00    +0.000 OA
BRANCH   8  17
ATOM     17  O   UNL     1      -0.148   9.446  17.245  0.00  0.00    +0.000 OA
ATOM     18  H   UNL     1       0.800   9.246  17.063  0.00  0.00    +0.000 HD
ENDBRANCH   8  17
ENDBRANCH   4   7
BRANCH   6  19
ATOM     19  C   UNL     1       2.149   5.440  19.321  0.00  0.00    +0.000 A 
ATOM     20  C   UNL     1       1.982   4.876  18.043  0.00  0.00    +0.000 A 
ATOM     21  C   UNL     1       1.239   3.710  17.864  0.00  0.00    +0.000 A 
ATOM     22  C   UNL     1       0.647   3.081  18.955  0.00  0.00    +0.000 A 
ATOM     23  C   UNL     1       0.798   3.619  20.231  0.00  0.00    +0.000 A 
ATOM     24  C   UNL     1       1.543   4.789  20.407  0.00  0.00    +0.000 A 
ENDBRANCH   6  19
TORSDOF 3
ENDMDL
MODEL 6
REMARK VINA RESULT:      -7.1      1.956      3.231
REMARK  Name = 
REMARK  6 active torsions:
REMARK  status: ('A' for Active; 'I' for Inactive)
REMARK    1  A    between atoms: C_1  and  N_2
REMARK    2  A    between atoms: C_4  and  C_5
REMARK    3  A    between atoms: C_6  and  O_7
REMARK    4  A    between atoms: N_8  and  C_9
REMARK    5  A    between atoms: N_12  and  C_13
REMARK    6  A    between atoms: C_17  and  C_18
REMARK                            x       y       z     vdW  Elec       q    Type
REMARK                         _______ _______ _______ _____ _____    ______ ____
ROOT
ATOM      1  C   UNL     1       4.523   2.625  19.867  0.00  0.00    +0.000 C 
ATOM      2  N   UNL     1       3.920   3.785  19.260  0.00  0.00    +0.000 N 
ATOM      3  N   UNL     1       3.572   4.896  19.926  0.00  0.00    +0.000 NA
ATOM      4  C   UNL     1       2.833   5.567  19.078  0.00  0.00    +0.000 C 
ATOM      5  C   UNL     1       2.587   4.861  17.766  0.00  0.00    +0.000 C 
ATOM      6  C   UNL     1       3.666   3.778  17.821  0.00  0.00    +0.000 C 
ENDROOT
BRANCH   4   7
ATOM      7  C   UNL     1       2.275   6.900  19.360  0.00  0.00    +0.000 A 
ATOM      8  C   UNL     1       2.500   7.911  18.507  0.00  0.00    +0.000 A 
ATOM      9  N   UNL     1       1.940   9.158  18.701  0.00  0.00    +0.000 N 
ATOM     10  C   UNL     1       2.172  10.246  17.761  0.00  0.00    +0.000 C 
ATOM     11  C   UNL     1       1.167   9.465  19.818  0.00  0.00    +0.000 A 
ATOM     12  O   UNL     1       0.704  10.594  19.996  0.00  0.00    +0.000 OA
ATOM     13  N   UNL     1       0.953   8.426  20.712  0.00  0.00    +0.000 N 
ATOM     14  C   UNL     1       0.180   8.682  21.913  0.00  0.00    +0.000 C 
ATOM     15  C   UNL     1       1.412   7.138  20.532  0.00  0.00    +0.000 A 
ATOM     16  O   UNL     1       1.149   6.217  21.306  0.00  0.00    +0.000 OA
BRANCH   8  17
ATOM     17  O   UNL     1       3.302   7.791  17.390  0.00  0.00    +0.000 OA
ATOM     18  H   UNL     1       4.240   7.741  17.690  0.00  0.00    +0.000 HD
ENDBRANCH   8  17
ENDBRANCH   4   7
BRANCH   6  19
ATOM     19  C   UNL     1       4.901   4.128  17.003  0.00  0.00    +0.000 A 
ATOM     20  C   UNL     1       6.093   4.539  17.627  0.00  0.00    +0.000 A 
ATOM     21  C   UNL     1       7.221   4.867  16.875  0.00  0.00    +0.000 A 
ATOM     22  C   UNL     1       7.184   4.793  15.485  0.00  0.00    +0.000 A 
ATOM     23  C   UNL     1       6.014   4.388  14.844  0.00  0.00    +0.000 A 
ATOM     24  C   UNL     1       4.885   4.061  15.601  0.00  0.00    +0.000 A 
ENDBRANCH   6  19
TORSDOF 3
ENDMDL
MODEL 7
REMARK VINA RESULT:      -7.1      0.135      2.238
REMARK  Name = 
REMARK  6 active torsions:
REMARK  status: ('A' for Active; 'I' for Inactive)
REMARK    1  A    between atoms: C_1  and  N_2
REMARK    2  A    between atoms: C_4  and  C_5
REMARK    3  A    between atoms: C_6  and  O_7
REMARK    4  A    between atoms: N_8  and  C_9
REMARK    5  A    between atoms: N_12  and  C_13
REMARK    6  A    between atoms: C_17  and  C_18
REMARK                            x       y       z     vdW  Elec       q    Type
REMARK                         _______ _______ _______ _____ _____    ______ ____
ROOT
ATOM      1  C   UNL     1       3.019   4.098  17.604  0.00  0.00    +0.000 C 
ATOM      2  N   UNL     1       3.059   5.514  17.872  0.00  0.00    +0.000 N 
ATOM      3  N   UNL     1       2.260   6.144  18.746  0.00  0.00    +0.000 NA
ATOM      4  C   UNL     1       2.433   7.416  18.488  0.00  0.00    +0.000 C 
ATOM      5  C   UNL     1       3.350   7.700  17.321  0.00  0.00    +0.000 C 
ATOM      6  C   UNL     1       4.032   6.341  17.162  0.00  0.00    +0.000 C 
ENDROOT
BRANCH   4   7
ATOM      7  C   UNL     1       1.793   8.498  19.254  0.00  0.00    +0.000 A 
ATOM      8  C   UNL     1       1.502   9.660  18.652  0.00  0.00    +0.000 A 
ATOM      9  N   UNL     1       0.843  10.674  19.318  0.00  0.00    +0.000 N 
ATOM     10  C   UNL     1       0.513  11.927  18.652  0.00  0.00    +0.000 C 
ATOM     11  C   UNL     1       0.500  10.585  20.665  0.00  0.00    +0.000 A 
ATOM     12  O   UNL     1      -0.056  11.513  21.255  0.00  0.00    +0.000 OA
ATOM     13  N   UNL     1       0.821   9.391  21.295  0.00  0.00    +0.000 N 
ATOM     14  C   UNL     1       0.518   9.239  22.705  0.00  0.00    +0.000 C 
ATOM     15  C   UNL     1       1.400   8.310  20.664  0.00  0.00    +0.000 A 
ATOM     16  O   UNL     1       1.611   7.237  21.229  0.00  0.00    +0.000 OA
BRANCH   8  17
ATOM     17  O   UNL     1       1.839   9.936  17.341  0.00  0.00    +0.000 OA
ATOM     18  H   UNL     1       1.706  10.900  17.187  0.00  0.00    +0.000 HD
ENDBRANCH   8  17
ENDBRANCH   4   7
BRANCH   6  19
ATOM     19  C   UNL     1       5.417   6.293  17.792  0.00  0.00    +0.000 A 
ATOM     20  C   UNL     1       6.465   7.093  17.304  0.00  0.00    +0.000 A 
ATOM     21  C   UNL     1       7.735   7.042  17.878  0.00  0.00    +0.000 A 
ATOM     22  C   UNL     1       7.986   6.192  18.951  0.00  0.00    +0.000 A 
ATOM     23  C   UNL     1       6.964   5.390  19.454  0.00  0.00    +0.000 A 
ATOM     24  C   UNL     1       5.692   5.443  18.875  0.00  0.00    +0.000 A 
ENDBRANCH   6  19
TORSDOF 3
ENDMDL
MODEL 8
REMARK VINA RESULT:      -7.0      0.152      2.452
REMARK  Name = 
REMARK  6 active torsions:
REMARK  status: ('A' for Active; 'I' for Inactive)
REMARK    1  A    between atoms: C_1  and  N_2
REMARK    2  A    between atoms: C_4  and  C_5
REMARK    3  A    between atoms: C_6  and  O_7
REMARK    4  A    between atoms: N_8  and  C_9
REMARK    5  A    between atoms: N_12  and  C_13
REMARK    6  A    between atoms: C_17  and  C_18
REMARK                            x       y       z     vdW  Elec       q    Type
REMARK                         _______ _______ _______ _____ _____    ______ ____
ROOT
ATOM      1  C   UNL     1       3.004   4.032  17.785  0.00  0.00    +0.000 C 
ATOM      2  N   UNL     1       3.038   5.458  17.997  0.00  0.00    +0.000 N 
ATOM      3  N   UNL     1       2.260   6.114  18.870  0.00  0.00    +0.000 NA
ATOM      4  C   UNL     1       2.413   7.377  18.557  0.00  0.00    +0.000 C 
ATOM      5  C   UNL     1       3.292   7.622  17.353  0.00  0.00    +0.000 C 
ATOM      6  C   UNL     1       3.982   6.264  17.226  0.00  0.00    +0.000 C 
ENDROOT
BRANCH   4   7
ATOM      7  C   UNL     1       1.787   8.483  19.301  0.00  0.00    +0.000 A 
ATOM      8  C   UNL     1       1.529   9.643  18.679  0.00  0.00    +0.000 A 
ATOM      9  N   UNL     1       0.884  10.680  19.322  0.00  0.00    +0.000 N 
ATOM     10  C   UNL     1       0.591  11.931  18.636  0.00  0.00    +0.000 C 
ATOM     11  C   UNL     1       0.520  10.616  20.665  0.00  0.00    +0.000 A 
ATOM     12  O   UNL     1      -0.023  11.564  21.235  0.00  0.00    +0.000 OA
ATOM     13  N   UNL     1       0.806   9.424  21.315  0.00  0.00    +0.000 N 
ATOM     14  C   UNL     1       0.480   9.297  22.722  0.00  0.00    +0.000 C 
ATOM     15  C   UNL     1       1.370   8.322  20.706  0.00  0.00    +0.000 A 
ATOM     16  O   UNL     1       1.549   7.252  21.289  0.00  0.00    +0.000 OA
BRANCH   8  17
ATOM     17  O   UNL     1       1.891   9.893  17.370  0.00  0.00    +0.000 OA
ATOM     18  H   UNL     1       1.559  10.789  17.126  0.00  0.00    +0.000 HD
ENDBRANCH   8  17
ENDBRANCH   4   7
BRANCH   6  19
ATOM     19  C   UNL     1       5.385   6.253  17.815  0.00  0.00    +0.000 A 
ATOM     20  C   UNL     1       5.713   5.417  18.897  0.00  0.00    +0.000 A 
ATOM     21  C   UNL     1       6.997   5.415  19.440  0.00  0.00    +0.000 A 
ATOM     22  C   UNL     1       7.982   6.246  18.916  0.00  0.00    +0.000 A 
ATOM     23  C   UNL     1       7.683   7.083  17.842  0.00  0.00    +0.000 A 
ATOM     24  C   UNL     1       6.394   7.084  17.300  0.00  0.00    +0.000 A 
ENDBRANCH   6  19
TORSDOF 3
ENDMDL
MODEL 9
REMARK VINA RESULT:      -6.9      4.575      5.473
REMARK  Name = 
REMARK  6 active torsions:
REMARK  status: ('A' for Active; 'I' for Inactive)
REMARK    1  A    between atoms: C_1  and  N_2
REMARK    2  A    between atoms: C_4  and  C_5
REMARK    3  A    between atoms: C_6  and  O_7
REMARK    4  A    between atoms: N_8  and  C_9
REMARK    5  A    between atoms: N_12  and  C_13
REMARK    6  A    between atoms: C_17  and  C_18
REMARK                            x       y       z     vdW  Elec       q    Type
REMARK                         _______ _______ _______ _____ _____    ______ ____
ROOT
ATOM      1  C   UNL     1       6.561   5.182  14.546  0.00  0.00    +0.000 C 
ATOM      2  N   UNL     1       5.750   5.243  15.737  0.00  0.00    +0.000 N 
ATOM      3  N   UNL     1       5.251   4.171  16.370  0.00  0.00    +0.000 NA
ATOM      4  C   UNL     1       4.379   4.667  17.212  0.00  0.00    +0.000 C 
ATOM      5  C   UNL     1       4.201   6.164  17.121  0.00  0.00    +0.000 C 
ATOM      6  C   UNL     1       5.445   6.548  16.318  0.00  0.00    +0.000 C 
ENDROOT
BRANCH   4   7
ATOM      7  C   UNL     1       3.620   3.851  18.174  0.00  0.00    +0.000 A 
ATOM      8  C   UNL     1       4.258   3.254  19.192  0.00  0.00    +0.000 A 
ATOM      9  N   UNL     1       3.573   2.536  20.152  0.00  0.00    +0.000 N 
ATOM     10  C   UNL     1       4.271   1.906  21.265  0.00  0.00    +0.000 C 
ATOM     11  C   UNL     1       2.198   2.330  20.093  0.00  0.00    +0.000 A 
ATOM     12  O   UNL     1       1.606   1.656  20.939  0.00  0.00    +0.000 OA
ATOM     13  N   UNL     1       1.540   2.929  19.028  0.00  0.00    +0.000 N 
ATOM     14  C   UNL     1       0.109   2.734  18.889  0.00  0.00    +0.000 C 
ATOM     15  C   UNL     1       2.152   3.729  18.086  0.00  0.00    +0.000 A 
ATOM     16  O   UNL     1       1.534   4.305  17.191  0.00  0.00    +0.000 OA
BRANCH   8  17
ATOM     17  O   UNL     1       5.628   3.301  19.353  0.00  0.00    +0.000 OA
ATOM     18  H   UNL     1       6.038   2.720  18.670  0.00  0.00    +0.000 HD
ENDBRANCH   8  17
ENDBRANCH   4   7
BRANCH   6  19
ATOM     19  C   UNL     1       6.572   7.083  17.190  0.00  0.00    +0.000 A 
ATOM     20  C   UNL     1       6.989   8.423  17.097  0.00  0.00    +0.000 A 
ATOM     21  C   UNL     1       8.028   8.908  17.891  0.00  0.00    +0.000 A 
ATOM     22  C   UNL     1       8.672   8.069  18.795  0.00  0.00    +0.000 A 
ATOM     23  C   UNL     1       8.276   6.737  18.906  0.00  0.00    +0.000 A 
ATOM     24  C   UNL     1       7.236   6.253  18.108  0.00  0.00    +0.000 A 
ENDBRANCH   6  19
TORSDOF 3
ENDMDL
