MODEL 1
REMARK VINA RESULT:      -7.3      0.000      0.000
REMARK  Name = 
REMARK  3 active torsions:
REMARK  status: ('A' for Active; 'I' for Inactive)
REMARK    1  A    between atoms: C_5  and  C_6
REMARK    2  A    between atoms: C_9  and  C_10
REMARK    3  A    between atoms: C_16  and  N_17
REMARK                            x       y       z     vdW  Elec       q    Type
REMARK                         _______ _______ _______ _____ _____    ______ ____
ROOT
ATOM      1  C   UNL     1       2.097   8.337  18.377  0.00  0.00    +0.000 A 
ATOM      2  N   UNL     1       3.127   8.902  17.712  0.00  0.00    +0.000 NA
ATOM      3  N   UNL     1       4.125   8.131  17.248  0.00  0.00    +0.000 NA
ATOM      4  C   UNL     1       4.080   6.797  17.465  0.00  0.00    +0.000 A 
ATOM      5  C   UNL     1       3.042   6.237  18.241  0.00  0.00    +0.000 A 
ATOM      6  N   UNL     1       2.022   7.018  18.676  0.00  0.00    +0.000 NA
ENDROOT
BRANCH   1  11
ATOM      7 CL   UNL     1      -2.429  12.070  19.829  0.00  0.00    +0.000 Cl
ATOM      8  C   UNL     1      -1.147  10.999  19.413  0.00  0.00    +0.000 A 
ATOM      9  C   UNL     1      -0.219  10.628  20.370  0.00  0.00    +0.000 A 
ATOM     10  C   UNL     1       0.826   9.757  20.028  0.00  0.00    +0.000 A 
ATOM     11  C   UNL     1       0.962   9.236  18.720  0.00  0.00    +0.000 A 
ATOM     12  C   UNL     1      -0.004   9.629  17.777  0.00  0.00    +0.000 A 
ATOM     13  C   UNL     1      -1.044  10.506  18.113  0.00  0.00    +0.000 A 
ENDBRANCH   1  11
BRANCH   4  14
ATOM     14  C   UNL     1       5.138   6.040  16.758  0.00  0.00    +0.000 A 
ATOM     15  C   UNL     1       6.196   5.439  17.462  0.00  0.00    +0.000 A 
ATOM     16  C   UNL     1       7.135   4.634  16.808  0.00  0.00    +0.000 A 
ATOM     17  C   UNL     1       7.030   4.407  15.440  0.00  0.00    +0.000 A 
ATOM     18  C   UNL     1       6.037   5.048  14.711  0.00  0.00    +0.000 A 
ATOM     19  C   UNL     1       5.130   5.887  15.362  0.00  0.00    +0.000 A 
ENDBRANCH   4  14
BRANCH   5  20
ATOM     20  N   UNL     1       2.990   4.866  18.519  0.00  0.00    +0.000 N 
ATOM     21  C   UNL     1       1.906   4.071  17.935  0.00  0.00    +0.000 C 
ATOM     22  C   UNL     1       2.481   2.713  17.510  0.00  0.00    +0.000 C 
ATOM     23  S   UNL     1       3.071   1.737  18.945  0.00  0.00    +0.000 S 
ATOM     24  C   UNL     1       4.119   3.014  19.733  0.00  0.00    +0.000 C 
ATOM     25  C   UNL     1       3.443   4.395  19.844  0.00  0.00    +0.000 C 
ENDBRANCH   5  20
TORSDOF 3
ENDMDL
MODEL 2
REMARK VINA RESULT:      -7.2      0.172      1.369
REMARK  Name = 
REMARK  3 active torsions:
REMARK  status: ('A' for Active; 'I' for Inactive)
REMARK    1  A    between atoms: C_5  and  C_6
REMARK    2  A    between atoms: C_9  and  C_10
REMARK    3  A    between atoms: C_16  and  N_17
REMARK                            x       y       z     vdW  Elec       q    Type
REMARK                         _______ _______ _______ _____ _____    ______ ____
ROOT
ATOM      1  C   UNL     1       2.115   8.302  18.434  0.00  0.00    +0.000 A 
ATOM      2  N   UNL     1       3.176   8.824  17.781  0.00  0.00    +0.000 NA
ATOM      3  N   UNL     1       4.147   8.012  17.330  0.00  0.00    +0.000 NA
ATOM      4  C   UNL     1       4.045   6.680  17.547  0.00  0.00    +0.000 A 
ATOM      5  C   UNL     1       2.975   6.165  18.310  0.00  0.00    +0.000 A 
ATOM      6  N   UNL     1       1.983   6.987  18.732  0.00  0.00    +0.000 NA
ENDROOT
BRANCH   1  11
ATOM      7 CL   UNL     1      -2.442  12.059  19.713  0.00  0.00    +0.000 Cl
ATOM      8  C   UNL     1      -1.137  10.997  19.351  0.00  0.00    +0.000 A 
ATOM      9  C   UNL     1      -1.017  10.457  18.083  0.00  0.00    +0.000 A 
ATOM     10  C   UNL     1       0.046   9.589  17.791  0.00  0.00    +0.000 A 
ATOM     11  C   UNL     1       1.014   9.247  18.762  0.00  0.00    +0.000 A 
ATOM     12  C   UNL     1       0.865   9.821  20.037  0.00  0.00    +0.000 A 
ATOM     13  C   UNL     1      -0.201  10.681  20.335  0.00  0.00    +0.000 A 
ENDBRANCH   1  11
BRANCH   4  14
ATOM     14  C   UNL     1       5.080   5.880  16.853  0.00  0.00    +0.000 A 
ATOM     15  C   UNL     1       5.076   5.742  15.455  0.00  0.00    +0.000 A 
ATOM     16  C   UNL     1       6.112   5.077  14.790  0.00  0.00    +0.000 A 
ATOM     17  C   UNL     1       7.176   4.545  15.511  0.00  0.00    +0.000 A 
ATOM     18  C   UNL     1       7.166   4.605  16.897  0.00  0.00    +0.000 A 
ATOM     19  C   UNL     1       6.106   5.230  17.558  0.00  0.00    +0.000 A 
ENDBRANCH   4  14
BRANCH   5  20
ATOM     20  N   UNL     1       2.863   4.797  18.588  0.00  0.00    +0.000 N 
ATOM     21  C   UNL     1       1.863   4.011  17.860  0.00  0.00    +0.000 C 
ATOM     22  C   UNL     1       2.473   2.641  17.533  0.00  0.00    +0.000 C 
ATOM     23  S   UNL     1       2.835   1.672  19.045  0.00  0.00    +0.000 S 
ATOM     24  C   UNL     1       3.777   2.942  19.967  0.00  0.00    +0.000 C 
ATOM     25  C   UNL     1       3.113   4.332  19.968  0.00  0.00    +0.000 C 
ENDBRANCH   5  20
TORSDOF 3
ENDMDL
MODEL 3
REMARK VINA RESULT:      -7.1      0.366      1.010
REMARK  Name = 
REMARK  3 active torsions:
REMARK  status: ('A' for Active; 'I' for Inactive)
REMARK    1  A    between atoms: C_5  and  C_6
REMARK    2  A    between atoms: C_9  and  C_10
REMARK    3  A    between atoms: C_16  and  N_17
REMARK                            x       y       z     vdW  Elec       q    Type
REMARK                         _______ _______ _______ _____ _____    ______ ____
ROOT
ATOM      1  C   UNL     1       2.269   8.138  18.455  0.00  0.00    +0.000 A 
ATOM      2  N   UNL     1       3.266   8.675  17.718  0.00  0.00    +0.000 NA
ATOM      3  N   UNL     1       4.212   7.878  17.194  0.00  0.00    +0.000 NA
ATOM      4  C   UNL     1       4.150   6.546  17.422  0.00  0.00    +0.000 A 
ATOM      5  C   UNL     1       3.153   6.016  18.270  0.00  0.00    +0.000 A 
ATOM      6  N   UNL     1       2.184   6.823  18.767  0.00  0.00    +0.000 NA
ENDROOT
BRANCH   1  11
ATOM      7 CL   UNL     1      -2.065  11.966  20.211  0.00  0.00    +0.000 Cl
ATOM      8  C   UNL     1      -0.838  10.870  19.706  0.00  0.00    +0.000 A 
ATOM      9  C   UNL     1      -0.072  10.209  20.649  0.00  0.00    +0.000 A 
ATOM     10  C   UNL     1       0.929   9.318  20.236  0.00  0.00    +0.000 A 
ATOM     11  C   UNL     1       1.182   9.066  18.867  0.00  0.00    +0.000 A 
ATOM     12  C   UNL     1       0.378   9.750  17.938  0.00  0.00    +0.000 A 
ATOM     13  C   UNL     1      -0.617  10.648  18.348  0.00  0.00    +0.000 A 
ENDBRANCH   1  11
BRANCH   4  14
ATOM     14  C   UNL     1       5.140   5.760  16.652  0.00  0.00    +0.000 A 
ATOM     15  C   UNL     1       4.883   5.365  15.327  0.00  0.00    +0.000 A 
ATOM     16  C   UNL     1       5.859   4.717  14.563  0.00  0.00    +0.000 A 
ATOM     17  C   UNL     1       7.113   4.459  15.105  0.00  0.00    +0.000 A 
ATOM     18  C   UNL     1       7.367   4.773  16.433  0.00  0.00    +0.000 A 
ATOM     19  C   UNL     1       6.373   5.379  17.205  0.00  0.00    +0.000 A 
ENDBRANCH   4  14
BRANCH   5  20
ATOM     20  N   UNL     1       3.087   4.648  18.561  0.00  0.00    +0.000 N 
ATOM     21  C   UNL     1       1.964   3.869  18.029  0.00  0.00    +0.000 C 
ATOM     22  C   UNL     1       2.494   2.498  17.590  0.00  0.00    +0.000 C 
ATOM     23  S   UNL     1       3.127   1.521  19.006  0.00  0.00    +0.000 S 
ATOM     24  C   UNL     1       4.232   2.783  19.740  0.00  0.00    +0.000 C 
ATOM     25  C   UNL     1       3.587   4.177  19.868  0.00  0.00    +0.000 C 
ENDBRANCH   5  20
TORSDOF 3
ENDMDL
MODEL 4
REMARK VINA RESULT:      -6.9      1.095      1.481
REMARK  Name = 
REMARK  3 active torsions:
REMARK  status: ('A' for Active; 'I' for Inactive)
REMARK    1  A    between atoms: C_5  and  C_6
REMARK    2  A    between atoms: C_9  and  C_10
REMARK    3  A    between atoms: C_16  and  N_17
REMARK                            x       y       z     vdW  Elec       q    Type
REMARK                         _______ _______ _______ _____ _____    ______ ____
ROOT
ATOM      1  C   UNL     1       1.826   8.713  18.490  0.00  0.00    +0.000 A 
ATOM      2  N   UNL     1       2.657   9.112  17.503  0.00  0.00    +0.000 NA
ATOM      3  N   UNL     1       3.623   8.284  17.070  0.00  0.00    +0.000 NA
ATOM      4  C   UNL     1       3.748   7.064  17.640  0.00  0.00    +0.000 A 
ATOM      5  C   UNL     1       2.928   6.702  18.731  0.00  0.00    +0.000 A 
ATOM      6  N   UNL     1       1.935   7.529  19.139  0.00  0.00    +0.000 NA
ENDROOT
BRANCH   1  11
ATOM      7 CL   UNL     1      -2.865  12.320  19.720  0.00  0.00    +0.000 Cl
ATOM      8  C   UNL     1      -1.523  11.301  19.371  0.00  0.00    +0.000 A 
ATOM      9  C   UNL     1      -1.445  10.655  18.150  0.00  0.00    +0.000 A 
ATOM     10  C   UNL     1      -0.351   9.823  17.869  0.00  0.00    +0.000 A 
ATOM     11  C   UNL     1       0.691   9.623  18.803  0.00  0.00    +0.000 A 
ATOM     12  C   UNL     1       0.582  10.303  20.030  0.00  0.00    +0.000 A 
ATOM     13  C   UNL     1      -0.514  11.128  20.317  0.00  0.00    +0.000 A 
ENDBRANCH   1  11
BRANCH   4  14
ATOM     14  C   UNL     1       4.727   6.184  16.962  0.00  0.00    +0.000 A 
ATOM     15  C   UNL     1       6.100   6.485  16.965  0.00  0.00    +0.000 A 
ATOM     16  C   UNL     1       7.036   5.601  16.420  0.00  0.00    +0.000 A 
ATOM     17  C   UNL     1       6.619   4.394  15.867  0.00  0.00    +0.000 A 
ATOM     18  C   UNL     1       5.263   4.107  15.786  0.00  0.00    +0.000 A 
ATOM     19  C   UNL     1       4.330   5.015  16.292  0.00  0.00    +0.000 A 
ENDBRANCH   4  14
BRANCH   5  20
ATOM     20  N   UNL     1       3.061   5.463  19.371  0.00  0.00    +0.000 N 
ATOM     21  C   UNL     1       1.998   5.023  20.279  0.00  0.00    +0.000 C 
ATOM     22  C   UNL     1       1.790   3.515  20.082  0.00  0.00    +0.000 C 
ATOM     23  S   UNL     1       3.268   2.549  20.571  0.00  0.00    +0.000 S 
ATOM     24  C   UNL     1       4.529   3.472  19.618  0.00  0.00    +0.000 C 
ATOM     25  C   UNL     1       4.412   5.003  19.750  0.00  0.00    +0.000 C 
ENDBRANCH   5  20
TORSDOF 3
ENDMDL
MODEL 5
REMARK VINA RESULT:      -6.7      0.936      1.679
REMARK  Name = 
REMARK  3 active torsions:
REMARK  status: ('A' for Active; 'I' for Inactive)
REMARK    1  A    between atoms: C_5  and  C_6
REMARK    2  A    between atoms: C_9  and  C_10
REMARK    3  A    between atoms: C_16  and  N_17
REMARK                            x       y       z     vdW  Elec       q    Type
REMARK                         _______ _______ _______ _____ _____    ______ ____
ROOT
ATOM      1  C   UNL     1       2.597   7.817  18.376  0.00  0.00    +0.000 A 
ATOM      2  N   UNL     1       3.493   8.394  17.546  0.00  0.00    +0.000 NA
ATOM      3  N   UNL     1       4.381   7.630  16.888  0.00  0.00    +0.000 NA
ATOM      4  C   UNL     1       4.364   6.291  17.076  0.00  0.00    +0.000 A 
ATOM      5  C   UNL     1       3.480   5.717  18.016  0.00  0.00    +0.000 A 
ATOM      6  N   UNL     1       2.566   6.491  18.650  0.00  0.00    +0.000 NA
ENDROOT
BRANCH   1  11
ATOM      7 CL   UNL     1      -1.559  11.488  20.778  0.00  0.00    +0.000 Cl
ATOM      8  C   UNL     1      -0.383  10.439  20.088  0.00  0.00    +0.000 A 
ATOM      9  C   UNL     1       0.299   9.542  20.891  0.00  0.00    +0.000 A 
ATOM     10  C   UNL     1       1.259   8.689  20.327  0.00  0.00    +0.000 A 
ATOM     11  C   UNL     1       1.554   8.712  18.944  0.00  0.00    +0.000 A 
ATOM     12  C   UNL     1       0.834   9.630  18.158  0.00  0.00    +0.000 A 
ATOM     13  C   UNL     1      -0.119  10.490  18.720  0.00  0.00    +0.000 A 
ENDBRANCH   1  11
BRANCH   4  14
ATOM     14  C   UNL     1       5.266   5.547  16.168  0.00  0.00    +0.000 A 
ATOM     15  C   UNL     1       4.761   4.818  15.078  0.00  0.00    +0.000 A 
ATOM     16  C   UNL     1       5.618   4.205  14.158  0.00  0.00    +0.000 A 
ATOM     17  C   UNL     1       6.997   4.316  14.305  0.00  0.00    +0.000 A 
ATOM     18  C   UNL     1       7.519   4.969  15.413  0.00  0.00    +0.000 A 
ATOM     19  C   UNL     1       6.658   5.540  16.353  0.00  0.00    +0.000 A 
ENDBRANCH   4  14
BRANCH   5  20
ATOM     20  N   UNL     1       3.466   4.339  18.265  0.00  0.00    +0.000 N 
ATOM     21  C   UNL     1       4.685   3.704  18.774  0.00  0.00    +0.000 C 
ATOM     22  C   UNL     1       4.281   2.653  19.816  0.00  0.00    +0.000 C 
ATOM     23  S   UNL     1       3.306   1.290  19.074  0.00  0.00    +0.000 S 
ATOM     24  C   UNL     1       2.054   2.295  18.195  0.00  0.00    +0.000 C 
ATOM     25  C   UNL     1       2.648   3.470  17.395  0.00  0.00    +0.000 C 
ENDBRANCH   5  20
TORSDOF 3
ENDMDL
MODEL 6
REMARK VINA RESULT:      -6.6      2.109      4.131
REMARK  Name = 
REMARK  3 active torsions:
REMARK  status: ('A' for Active; 'I' for Inactive)
REMARK    1  A    between atoms: C_5  and  C_6
REMARK    2  A    between atoms: C_9  and  C_10
REMARK    3  A    between atoms: C_16  and  N_17
REMARK                            x       y       z     vdW  Elec       q    Type
REMARK                         _______ _______ _______ _____ _____    ______ ____
ROOT
ATOM      1  C   UNL     1       1.534   7.270  20.353  0.00  0.00    +0.000 A 
ATOM      2  N   UNL     1       0.898   6.142  20.739  0.00  0.00    +0.000 NA
ATOM      3  N   UNL     1       1.395   4.944  20.390  0.00  0.00    +0.000 NA
ATOM      4  C   UNL     1       2.525   4.890  19.648  0.00  0.00    +0.000 A 
ATOM      5  C   UNL     1       3.123   6.080  19.178  0.00  0.00    +0.000 A 
ATOM      6  N   UNL     1       2.634   7.285  19.562  0.00  0.00    +0.000 NA
ENDROOT
BRANCH   1  11
ATOM      7 CL   UNL     1      -0.677  12.466  22.506  0.00  0.00    +0.000 Cl
ATOM      8  C   UNL     1      -0.040  10.986  21.901  0.00  0.00    +0.000 A 
ATOM      9  C   UNL     1       0.421  10.914  20.598  0.00  0.00    +0.000 A 
ATOM     10  C   UNL     1       0.937   9.707  20.105  0.00  0.00    +0.000 A 
ATOM     11  C   UNL     1       1.008   8.545  20.909  0.00  0.00    +0.000 A 
ATOM     12  C   UNL     1       0.539   8.659  22.230  0.00  0.00    +0.000 A 
ATOM     13  C   UNL     1       0.014   9.861  22.722  0.00  0.00    +0.000 A 
ENDBRANCH   1  11
BRANCH   4  14
ATOM     14  C   UNL     1       3.066   3.523  19.479  0.00  0.00    +0.000 A 
ATOM     15  C   UNL     1       2.811   2.779  18.313  0.00  0.00    +0.000 A 
ATOM     16  C   UNL     1       3.410   1.532  18.105  0.00  0.00    +0.000 A 
ATOM     17  C   UNL     1       4.281   1.008  19.055  0.00  0.00    +0.000 A 
ATOM     18  C   UNL     1       4.492   1.690  20.245  0.00  0.00    +0.000 A 
ATOM     19  C   UNL     1       3.856   2.913  20.467  0.00  0.00    +0.000 A 
ENDBRANCH   4  14
BRANCH   5  20
ATOM     20  N   UNL     1       4.268   6.058  18.372  0.00  0.00    +0.000 N 
ATOM     21  C   UNL     1       5.556   5.730  18.991  0.00  0.00    +0.000 C 
ATOM     22  C   UNL     1       6.349   4.851  18.014  0.00  0.00    +0.000 C 
ATOM     23  S   UNL     1       6.772   5.747  16.472  0.00  0.00    +0.000 S 
ATOM     24  C   UNL     1       5.105   6.378  16.054  0.00  0.00    +0.000 C 
ATOM     25  C   UNL     1       4.360   7.009  17.246  0.00  0.00    +0.000 C 
ENDBRANCH   5  20
TORSDOF 3
ENDMDL
MODEL 7
REMARK VINA RESULT:      -6.6      5.247     10.086
REMARK  Name = 
REMARK  3 active torsions:
REMARK  status: ('A' for Active; 'I' for Inactive)
REMARK    1  A    between atoms: C_5  and  C_6
REMARK    2  A    between atoms: C_9  and  C_10
REMARK    3  A    between atoms: C_16  and  N_17
REMARK                            x       y       z     vdW  Elec       q    Type
REMARK                         _______ _______ _______ _____ _____    ______ ____
ROOT
ATOM      1  C   UNL     1       0.693   9.971  20.954  0.00  0.00    +0.000 A 
ATOM      2  N   UNL     1      -0.051   9.560  22.004  0.00  0.00    +0.000 NA
ATOM      3  N   UNL     1      -0.767  10.455  22.705  0.00  0.00    +0.000 NA
ATOM      4  C   UNL     1      -0.722  11.759  22.347  0.00  0.00    +0.000 A 
ATOM      5  C   UNL     1       0.133  12.181  21.305  0.00  0.00    +0.000 A 
ATOM      6  N   UNL     1       0.825  11.267  20.582  0.00  0.00    +0.000 NA
ENDROOT
BRANCH   1  11
ATOM      7 CL   UNL     1       3.194   5.539  17.694  0.00  0.00    +0.000 Cl
ATOM      8  C   UNL     1       2.490   6.807  18.620  0.00  0.00    +0.000 A 
ATOM      9  C   UNL     1       2.219   6.613  19.963  0.00  0.00    +0.000 A 
ATOM     10  C   UNL     1       1.643   7.647  20.716  0.00  0.00    +0.000 A 
ATOM     11  C   UNL     1       1.330   8.901  20.140  0.00  0.00    +0.000 A 
ATOM     12  C   UNL     1       1.628   9.064  18.776  0.00  0.00    +0.000 A 
ATOM     13  C   UNL     1       2.195   8.029  18.019  0.00  0.00    +0.000 A 
ENDBRANCH   1  11
BRANCH   4  14
ATOM     14  C   UNL     1      -1.684  12.614  23.079  0.00  0.00    +0.000 A 
ATOM     15  C   UNL     1      -3.007  12.195  23.300  0.00  0.00    +0.000 A 
ATOM     16  C   UNL     1      -3.885  12.952  24.083  0.00  0.00    +0.000 A 
ATOM     17  C   UNL     1      -3.454  14.139  24.667  0.00  0.00    +0.000 A 
ATOM     18  C   UNL     1      -2.175  14.611  24.403  0.00  0.00    +0.000 A 
ATOM     19  C   UNL     1      -1.318  13.873  23.583  0.00  0.00    +0.000 A 
ENDBRANCH   4  14
BRANCH   5  20
ATOM     20  N   UNL     1       0.235  13.528  20.938  0.00  0.00    +0.000 N 
ATOM     21  C   UNL     1      -0.535  14.003  19.785  0.00  0.00    +0.000 C 
ATOM     22  C   UNL     1      -1.073  15.404  20.108  0.00  0.00    +0.000 C 
ATOM     23  S   UNL     1       0.277  16.625  20.319  0.00  0.00    +0.000 S 
ATOM     24  C   UNL     1       1.305  15.696  21.515  0.00  0.00    +0.000 C 
ATOM     25  C   UNL     1       1.525  14.219  21.133  0.00  0.00    +0.000 C 
ENDBRANCH   5  20
TORSDOF 3
ENDMDL
MODEL 8
REMARK VINA RESULT:      -6.6      0.418      1.115
REMARK  Name = 
REMARK  3 active torsions:
REMARK  status: ('A' for Active; 'I' for Inactive)
REMARK    1  A    between atoms: C_5  and  C_6
REMARK    2  A    between atoms: C_9  and  C_10
REMARK    3  A    between atoms: C_16  and  N_17
REMARK                            x       y       z     vdW  Elec       q    Type
REMARK                         _______ _______ _______ _____ _____    ______ ____
ROOT
ATOM      1  C   UNL     1       2.061   8.360  18.436  0.00  0.00    +0.000 A 
ATOM      2  N   UNL     1       3.108   8.918  17.790  0.00  0.00    +0.000 NA
ATOM      3  N   UNL     1       4.113   8.139  17.353  0.00  0.00    +0.000 NA
ATOM      4  C   UNL     1       4.058   6.807  17.578  0.00  0.00    +0.000 A 
ATOM      5  C   UNL     1       3.000   6.256  18.334  0.00  0.00    +0.000 A 
ATOM      6  N   UNL     1       1.975   7.043  18.741  0.00  0.00    +0.000 NA
ENDROOT
BRANCH   1  11
ATOM      7 CL   UNL     1      -2.479  12.124  19.755  0.00  0.00    +0.000 Cl
ATOM      8  C   UNL     1      -1.194  11.045  19.377  0.00  0.00    +0.000 A 
ATOM      9  C   UNL     1      -0.246  10.737  20.337  0.00  0.00    +0.000 A 
ATOM     10  C   UNL     1       0.803   9.859  20.027  0.00  0.00    +0.000 A 
ATOM     11  C   UNL     1       0.923   9.266  18.748  0.00  0.00    +0.000 A 
ATOM     12  C   UNL     1      -0.064   9.596  17.801  0.00  0.00    +0.000 A 
ATOM     13  C   UNL     1      -1.108  10.480  18.106  0.00  0.00    +0.000 A 
ENDBRANCH   1  11
BRANCH   4  14
ATOM     14  C   UNL     1       5.128   6.041  16.899  0.00  0.00    +0.000 A 
ATOM     15  C   UNL     1       6.220   5.525  17.618  0.00  0.00    +0.000 A 
ATOM     16  C   UNL     1       7.175   4.711  16.999  0.00  0.00    +0.000 A 
ATOM     17  C   UNL     1       7.051   4.390  15.651  0.00  0.00    +0.000 A 
ATOM     18  C   UNL     1       6.022   4.946  14.904  0.00  0.00    +0.000 A 
ATOM     19  C   UNL     1       5.099   5.795  15.517  0.00  0.00    +0.000 A 
ENDBRANCH   4  14
BRANCH   5  20
ATOM     20  N   UNL     1       2.936   4.887  18.620  0.00  0.00    +0.000 N 
ATOM     21  C   UNL     1       3.716   4.367  19.748  0.00  0.00    +0.000 C 
ATOM     22  C   UNL     1       2.873   3.305  20.466  0.00  0.00    +0.000 C 
ATOM     23  S   UNL     1       2.546   1.851  19.399  0.00  0.00    +0.000 S 
ATOM     24  C   UNL     1       1.919   2.730  17.921  0.00  0.00    +0.000 C 
ATOM     25  C   UNL     1       2.780   3.936  17.500  0.00  0.00    +0.000 C 
ENDBRANCH   5  20
TORSDOF 3
ENDMDL
MODEL 9
REMARK VINA RESULT:      -6.6      0.546      1.794
REMARK  Name = 
REMARK  3 active torsions:
REMARK  status: ('A' for Active; 'I' for Inactive)
REMARK    1  A    between atoms: C_5  and  C_6
REMARK    2  A    between atoms: C_9  and  C_10
REMARK    3  A    between atoms: C_16  and  N_17
REMARK                            x       y       z     vdW  Elec       q    Type
REMARK                         _______ _______ _______ _____ _____    ______ ____
ROOT
ATOM      1  C   UNL     1       2.083   8.254  18.514  0.00  0.00    +0.000 A 
ATOM      2  N   UNL     1       3.159   8.738  17.855  0.00  0.00    +0.000 NA
ATOM      3  N   UNL     1       4.115   7.895  17.431  0.00  0.00    +0.000 NA
ATOM      4  C   UNL     1       3.984   6.572  17.680  0.00  0.00    +0.000 A 
ATOM      5  C   UNL     1       2.898   6.098  18.449  0.00  0.00    +0.000 A 
ATOM      6  N   UNL     1       1.921   6.951  18.844  0.00  0.00    +0.000 NA
ENDROOT
BRANCH   1  11
ATOM      7 CL   UNL     1      -2.401  12.139  19.666  0.00  0.00    +0.000 Cl
ATOM      8  C   UNL     1      -1.117  11.041  19.341  0.00  0.00    +0.000 A 
ATOM      9  C   UNL     1      -0.978  10.495  18.077  0.00  0.00    +0.000 A 
ATOM     10  C   UNL     1       0.068   9.598  17.814  0.00  0.00    +0.000 A 
ATOM     11  C   UNL     1       1.000   9.230  18.812  0.00  0.00    +0.000 A 
ATOM     12  C   UNL     1       0.833   9.811  20.082  0.00  0.00    +0.000 A 
ATOM     13  C   UNL     1      -0.217  10.701  20.349  0.00  0.00    +0.000 A 
ENDBRANCH   1  11
BRANCH   4  14
ATOM     14  C   UNL     1       5.006   5.733  17.014  0.00  0.00    +0.000 A 
ATOM     15  C   UNL     1       4.835   5.294  15.689  0.00  0.00    +0.000 A 
ATOM     16  C   UNL     1       5.846   4.594  15.023  0.00  0.00    +0.000 A 
ATOM     17  C   UNL     1       7.050   4.326  15.665  0.00  0.00    +0.000 A 
ATOM     18  C   UNL     1       7.215   4.684  16.996  0.00  0.00    +0.000 A 
ATOM     19  C   UNL     1       6.184   5.343  17.670  0.00  0.00    +0.000 A 
ENDBRANCH   4  14
BRANCH   5  20
ATOM     20  N   UNL     1       2.756   4.740  18.760  0.00  0.00    +0.000 N 
ATOM     21  C   UNL     1       3.703   4.131  19.699  0.00  0.00    +0.000 C 
ATOM     22  C   UNL     1       2.930   3.156  20.597  0.00  0.00    +0.000 C 
ATOM     23  S   UNL     1       2.230   1.754  19.646  0.00  0.00    +0.000 S 
ATOM     24  C   UNL     1       1.392   2.708  18.327  0.00  0.00    +0.000 C 
ATOM     25  C   UNL     1       2.263   3.822  17.714  0.00  0.00    +0.000 C 
ENDBRANCH   5  20
TORSDOF 3
ENDMDL
