MODEL 1
REMARK VINA RESULT:      -7.3      0.000      0.000
REMARK  Name = 
REMARK  8 active torsions:
REMARK  status: ('A' for Active; 'I' for Inactive)
REMARK    1  A    between atoms: C_2  and  C_3
REMARK    2  A    between atoms: C_3  and  S_4
REMARK    3  A    between atoms: S_4  and  C_5
REMARK    4  A    between atoms: C_10  and  N_11
REMARK    5  A    between atoms: C_12  and  C_14
REMARK    6  A    between atoms: C_14  and  O_15
REMARK    7  A    between atoms: O_15  and  C_16
REMARK    8  A    between atoms: C_19  and  C_20
REMARK                            x       y       z     vdW  Elec       q    Type
REMARK                         _______ _______ _______ _____ _____    ______ ____
ROOT
ATOM      1  N   UNL     1       2.563   6.495  20.271  0.00  0.00    +0.000 N 
ATOM      2  C   UNL     1       1.844   5.329  20.532  0.00  0.00    +0.000 C 
ATOM      3  O   UNL     1       0.720   5.061  20.107  0.00  0.00    +0.000 OA
ATOM      4  H   UNL     1       3.554   6.487  20.487  0.00  0.00    +0.000 HD
ENDROOT
BRANCH   1  10
ATOM      5  C   UNL     1       1.421   8.694  20.363  0.00  0.00    +0.000 A 
ATOM      6  C   UNL     1       0.963   9.839  19.686  0.00  0.00    +0.000 A 
ATOM      7  C   UNL     1       1.106   9.961  18.301  0.00  0.00    +0.000 A 
ATOM      8  C   UNL     1       1.700   8.937  17.579  0.00  0.00    +0.000 A 
ATOM      9  C   UNL     1       2.160   7.802  18.235  0.00  0.00    +0.000 A 
ATOM     10  C   UNL     1       2.061   7.662  19.630  0.00  0.00    +0.000 A 
BRANCH   5  11
ATOM     11  S   UNL     1       1.239   8.731  22.167  0.00  0.00    +0.000 S 
BRANCH  11  12
ATOM     12  C   UNL     1      -0.606   8.997  22.335  0.00  0.00    +0.000 C 
BRANCH  12  14
ATOM     13  N   UNL     1      -0.850  11.638  23.166  0.00  0.00    +0.000 NA
ATOM     14  C   UNL     1      -0.739  10.440  22.790  0.00  0.00    +0.000 C 
ENDBRANCH  12  14
ENDBRANCH  11  12
ENDBRANCH   5  11
ENDBRANCH   1  10
BRANCH   2  15
ATOM     15  C   UNL     1       2.572   4.329  21.424  0.00  0.00    +0.000 C 
BRANCH  15  16
ATOM     16  O   UNL     1       3.036   3.262  20.608  0.00  0.00    +0.000 OA
BRANCH  16  17
ATOM     17  C   UNL     1       3.667   3.626  19.451  0.00  0.00    +0.000 A 
ATOM     18  C   UNL     1       4.861   4.328  19.617  0.00  0.00    +0.000 A 
ATOM     19  C   UNL     1       5.644   4.673  18.509  0.00  0.00    +0.000 A 
ATOM     20  C   UNL     1       5.249   4.309  17.215  0.00  0.00    +0.000 A 
ATOM     21  C   UNL     1       4.033   3.629  17.057  0.00  0.00    +0.000 A 
ATOM     22  C   UNL     1       3.246   3.288  18.166  0.00  0.00    +0.000 A 
BRANCH  20  23
ATOM     23  C   UNL     1       6.117   4.610  16.084  0.00  0.00    +0.000 A 
ATOM     24  N   UNL     1       7.390   4.957  16.058  0.00  0.00    +0.000 NA
ATOM     25  N   UNL     1       7.740   5.079  14.728  0.00  0.00    +0.000 NA
ATOM     26  C   UNL     1       6.655   4.801  14.044  0.00  0.00    +0.000 A 
ATOM     27  O   UNL     1       5.584   4.494  14.823  0.00  0.00    +0.000 OA
ENDBRANCH  20  23
ENDBRANCH  16  17
ENDBRANCH  15  16
ENDBRANCH   2  15
TORSDOF 8
ENDMDL
MODEL 2
REMARK VINA RESULT:      -7.3      0.691      1.169
REMARK  Name = 
REMARK  8 active torsions:
REMARK  status: ('A' for Active; 'I' for Inactive)
REMARK    1  A    between atoms: C_2  and  C_3
REMARK    2  A    between atoms: C_3  and  S_4
REMARK    3  A    between atoms: S_4  and  C_5
REMARK    4  A    between atoms: C_10  and  N_11
REMARK    5  A    between atoms: C_12  and  C_14
REMARK    6  A    between atoms: C_14  and  O_15
REMARK    7  A    between atoms: O_15  and  C_16
REMARK    8  A    between atoms: C_19  and  C_20
REMARK                            x       y       z     vdW  Elec       q    Type
REMARK                         _______ _______ _______ _____ _____    ______ ____
ROOT
ATOM      1  N   UNL     1       2.587   6.449  20.101  0.00  0.00    +0.000 N 
ATOM      2  C   UNL     1       2.064   5.169  19.918  0.00  0.00    +0.000 C 
ATOM      3  O   UNL     1       1.211   4.847  19.091  0.00  0.00    +0.000 OA
ATOM      4  H   UNL     1       3.438   6.528  20.647  0.00  0.00    +0.000 HD
ENDROOT
BRANCH   1  10
ATOM      5  C   UNL     1       1.089   8.424  20.120  0.00  0.00    +0.000 A 
ATOM      6  C   UNL     1       0.659   9.612  19.500  0.00  0.00    +0.000 A 
ATOM      7  C   UNL     1       1.195  10.018  18.275  0.00  0.00    +0.000 A 
ATOM      8  C   UNL     1       2.159   9.239  17.654  0.00  0.00    +0.000 A 
ATOM      9  C   UNL     1       2.596   8.065  18.256  0.00  0.00    +0.000 A 
ATOM     10  C   UNL     1       2.101   7.645  19.502  0.00  0.00    +0.000 A 
BRANCH   5  11
ATOM     11  S   UNL     1       0.359   8.086  21.745  0.00  0.00    +0.000 S 
BRANCH  11  12
ATOM     12  C   UNL     1       0.862   9.620  22.689  0.00  0.00    +0.000 C 
BRANCH  12  14
ATOM     13  N   UNL     1      -1.536  10.926  23.214  0.00  0.00    +0.000 NA
ATOM     14  C   UNL     1      -0.448  10.333  22.976  0.00  0.00    +0.000 C 
ENDBRANCH  12  14
ENDBRANCH  11  12
ENDBRANCH   5  11
ENDBRANCH   1  10
BRANCH   2  15
ATOM     15  C   UNL     1       2.646   4.114  20.852  0.00  0.00    +0.000 C 
BRANCH  15  16
ATOM     16  O   UNL     1       3.146   3.046  20.058  0.00  0.00    +0.000 OA
BRANCH  16  17
ATOM     17  C   UNL     1       4.043   3.393  19.086  0.00  0.00    +0.000 A 
ATOM     18  C   UNL     1       3.698   3.011  17.790  0.00  0.00    +0.000 A 
ATOM     19  C   UNL     1       4.491   3.391  16.702  0.00  0.00    +0.000 A 
ATOM     20  C   UNL     1       5.639   4.173  16.892  0.00  0.00    +0.000 A 
ATOM     21  C   UNL     1       5.991   4.527  18.202  0.00  0.00    +0.000 A 
ATOM     22  C   UNL     1       5.200   4.142  19.293  0.00  0.00    +0.000 A 
BRANCH  20  23
ATOM     23  C   UNL     1       6.406   4.622  15.738  0.00  0.00    +0.000 A 
ATOM     24  N   UNL     1       7.406   5.479  15.663  0.00  0.00    +0.000 NA
ATOM     25  N   UNL     1       7.803   5.510  14.341  0.00  0.00    +0.000 NA
ATOM     26  C   UNL     1       7.016   4.673  13.710  0.00  0.00    +0.000 A 
ATOM     27  O   UNL     1       6.103   4.069  14.517  0.00  0.00    +0.000 OA
ENDBRANCH  20  23
ENDBRANCH  16  17
ENDBRANCH  15  16
ENDBRANCH   2  15
TORSDOF 8
ENDMDL
MODEL 3
REMARK VINA RESULT:      -7.2      3.918      8.952
REMARK  Name = 
REMARK  8 active torsions:
REMARK  status: ('A' for Active; 'I' for Inactive)
REMARK    1  A    between atoms: C_2  and  C_3
REMARK    2  A    between atoms: C_3  and  S_4
REMARK    3  A    between atoms: S_4  and  C_5
REMARK    4  A    between atoms: C_10  and  N_11
REMARK    5  A    between atoms: C_12  and  C_14
REMARK    6  A    between atoms: C_14  and  O_15
REMARK    7  A    between atoms: O_15  and  C_16
REMARK    8  A    between atoms: C_19  and  C_20
REMARK                            x       y       z     vdW  Elec       q    Type
REMARK                         _______ _______ _______ _____ _____    ______ ____
ROOT
ATOM      1  N   UNL     1       2.474   6.072  17.796  0.00  0.00    +0.000 N 
ATOM      2  C   UNL     1       2.333   7.094  18.734  0.00  0.00    +0.000 C 
ATOM      3  O   UNL     1       2.394   6.968  19.957  0.00  0.00    +0.000 OA
ATOM      4  H   UNL     1       2.633   6.344  16.833  0.00  0.00    +0.000 HD
ENDROOT
BRANCH   1  10
ATOM      5  C   UNL     1       3.607   3.871  17.647  0.00  0.00    +0.000 A 
ATOM      6  C   UNL     1       3.620   2.503  17.974  0.00  0.00    +0.000 A 
ATOM      7  C   UNL     1       2.571   1.924  18.692  0.00  0.00    +0.000 A 
ATOM      8  C   UNL     1       1.494   2.705  19.085  0.00  0.00    +0.000 A 
ATOM      9  C   UNL     1       1.469   4.058  18.773  0.00  0.00    +0.000 A 
ATOM     10  C   UNL     1       2.522   4.678  18.079  0.00  0.00    +0.000 A 
BRANCH   5  11
ATOM     11  S   UNL     1       5.083   4.481  16.790  0.00  0.00    +0.000 S 
BRANCH  11  12
ATOM     12  C   UNL     1       5.990   5.321  18.194  0.00  0.00    +0.000 C 
BRANCH  12  14
ATOM     13  N   UNL     1       7.635   7.178  16.939  0.00  0.00    +0.000 NA
ATOM     14  C   UNL     1       6.889   6.337  17.508  0.00  0.00    +0.000 C 
ENDBRANCH  12  14
ENDBRANCH  11  12
ENDBRANCH   5  11
ENDBRANCH   1  10
BRANCH   2  15
ATOM     15  C   UNL     1       2.092   8.472  18.128  0.00  0.00    +0.000 C 
BRANCH  15  16
ATOM     16  O   UNL     1       1.653   9.341  19.163  0.00  0.00    +0.000 OA
BRANCH  16  17
ATOM     17  C   UNL     1       0.455   9.966  18.951  0.00  0.00    +0.000 A 
ATOM     18  C   UNL     1      -0.192   9.629  17.762  0.00  0.00    +0.000 A 
ATOM     19  C   UNL     1      -1.466  10.133  17.478  0.00  0.00    +0.000 A 
ATOM     20  C   UNL     1      -2.121  10.974  18.387  0.00  0.00    +0.000 A 
ATOM     21  C   UNL     1      -1.449  11.330  19.566  0.00  0.00    +0.000 A 
ATOM     22  C   UNL     1      -0.171  10.830  19.848  0.00  0.00    +0.000 A 
BRANCH  20  23
ATOM     23  C   UNL     1      -3.478  11.424  18.107  0.00  0.00    +0.000 A 
ATOM     24  N   UNL     1      -4.207  11.298  17.015  0.00  0.00    +0.000 NA
ATOM     25  N   UNL     1      -5.438  11.858  17.294  0.00  0.00    +0.000 NA
ATOM     26  C   UNL     1      -5.366  12.286  18.531  0.00  0.00    +0.000 A 
ATOM     27  O   UNL     1      -4.162  12.053  19.120  0.00  0.00    +0.000 OA
ENDBRANCH  20  23
ENDBRANCH  16  17
ENDBRANCH  15  16
ENDBRANCH   2  15
TORSDOF 8
ENDMDL
MODEL 4
REMARK VINA RESULT:      -7.2      3.185      9.482
REMARK  Name = 
REMARK  8 active torsions:
REMARK  status: ('A' for Active; 'I' for Inactive)
REMARK    1  A    between atoms: C_2  and  C_3
REMARK    2  A    between atoms: C_3  and  S_4
REMARK    3  A    between atoms: S_4  and  C_5
REMARK    4  A    between atoms: C_10  and  N_11
REMARK    5  A    between atoms: C_12  and  C_14
REMARK    6  A    between atoms: C_14  and  O_15
REMARK    7  A    between atoms: O_15  and  C_16
REMARK    8  A    between atoms: C_19  and  C_20
REMARK                            x       y       z     vdW  Elec       q    Type
REMARK                         _______ _______ _______ _____ _____    ______ ____
ROOT
ATOM      1  N   UNL     1       2.922   6.740  19.047  0.00  0.00    +0.000 N 
ATOM      2  C   UNL     1       2.167   7.880  18.771  0.00  0.00    +0.000 C 
ATOM      3  O   UNL     1       1.919   8.331  17.652  0.00  0.00    +0.000 OA
ATOM      4  H   UNL     1       2.854   6.354  19.982  0.00  0.00    +0.000 HD
ENDROOT
BRANCH   1  10
ATOM      5  C   UNL     1       3.362   4.669  17.756  0.00  0.00    +0.000 A 
ATOM      6  C   UNL     1       4.145   3.991  16.804  0.00  0.00    +0.000 A 
ATOM      7  C   UNL     1       5.260   4.601  16.222  0.00  0.00    +0.000 A 
ATOM      8  C   UNL     1       5.607   5.892  16.592  0.00  0.00    +0.000 A 
ATOM      9  C   UNL     1       4.841   6.575  17.528  0.00  0.00    +0.000 A 
ATOM     10  C   UNL     1       3.697   6.003  18.108  0.00  0.00    +0.000 A 
BRANCH   5  11
ATOM     11  S   UNL     1       1.903   3.770  18.346  0.00  0.00    +0.000 S 
BRANCH  11  12
ATOM     12  C   UNL     1       2.315   3.571  20.160  0.00  0.00    +0.000 C 
BRANCH  12  14
ATOM     13  N   UNL     1       4.682   2.112  20.172  0.00  0.00    +0.000 NA
ATOM     14  C   UNL     1       3.609   2.774  20.167  0.00  0.00    +0.000 C 
ENDBRANCH  12  14
ENDBRANCH  11  12
ENDBRANCH   5  11
ENDBRANCH   1  10
BRANCH   2  15
ATOM     15  C   UNL     1       1.619   8.584  20.008  0.00  0.00    +0.000 C 
BRANCH  15  16
ATOM     16  O   UNL     1       0.540   9.416  19.603  0.00  0.00    +0.000 OA
BRANCH  16  17
ATOM     17  C   UNL     1      -0.061  10.139  20.595  0.00  0.00    +0.000 A 
ATOM     18  C   UNL     1      -0.771  11.262  20.170  0.00  0.00    +0.000 A 
ATOM     19  C   UNL     1      -1.505  12.028  21.083  0.00  0.00    +0.000 A 
ATOM     20  C   UNL     1      -1.550  11.674  22.438  0.00  0.00    +0.000 A 
ATOM     21  C   UNL     1      -0.809  10.560  22.860  0.00  0.00    +0.000 A 
ATOM     22  C   UNL     1      -0.070   9.797  21.946  0.00  0.00    +0.000 A 
BRANCH  20  23
ATOM     23  C   UNL     1      -2.382  12.439  23.357  0.00  0.00    +0.000 A 
ATOM     24  N   UNL     1      -2.247  13.676  23.798  0.00  0.00    +0.000 NA
ATOM     25  N   UNL     1      -3.335  13.926  24.611  0.00  0.00    +0.000 NA
ATOM     26  C   UNL     1      -4.048  12.826  24.607  0.00  0.00    +0.000 A 
ATOM     27  O   UNL     1      -3.518  11.835  23.841  0.00  0.00    +0.000 OA
ENDBRANCH  20  23
ENDBRANCH  16  17
ENDBRANCH  15  16
ENDBRANCH   2  15
TORSDOF 8
ENDMDL
MODEL 5
REMARK VINA RESULT:      -7.2      3.666      9.047
REMARK  Name = 
REMARK  8 active torsions:
REMARK  status: ('A' for Active; 'I' for Inactive)
REMARK    1  A    between atoms: C_2  and  C_3
REMARK    2  A    between atoms: C_3  and  S_4
REMARK    3  A    between atoms: S_4  and  C_5
REMARK    4  A    between atoms: C_10  and  N_11
REMARK    5  A    between atoms: C_12  and  C_14
REMARK    6  A    between atoms: C_14  and  O_15
REMARK    7  A    between atoms: O_15  and  C_16
REMARK    8  A    between atoms: C_19  and  C_20
REMARK                            x       y       z     vdW  Elec       q    Type
REMARK                         _______ _______ _______ _____ _____    ______ ____
ROOT
ATOM      1  N   UNL     1       2.720   6.374  17.901  0.00  0.00    +0.000 N 
ATOM      2  C   UNL     1       2.283   7.315  18.833  0.00  0.00    +0.000 C 
ATOM      3  O   UNL     1       2.077   7.107  20.029  0.00  0.00    +0.000 OA
ATOM      4  H   UNL     1       3.069   6.724  17.016  0.00  0.00    +0.000 HD
ENDROOT
BRANCH   1  10
ATOM      5  C   UNL     1       4.049   4.371  18.511  0.00  0.00    +0.000 A 
ATOM      6  C   UNL     1       4.094   2.982  18.734  0.00  0.00    +0.000 A 
ATOM      7  C   UNL     1       2.962   2.185  18.546  0.00  0.00    +0.000 A 
ATOM      8  C   UNL     1       1.775   2.767  18.126  0.00  0.00    +0.000 A 
ATOM      9  C   UNL     1       1.714   4.137  17.905  0.00  0.00    +0.000 A 
ATOM     10  C   UNL     1       2.825   4.971  18.115  0.00  0.00    +0.000 A 
BRANCH   5  11
ATOM     11  S   UNL     1       5.578   5.270  18.884  0.00  0.00    +0.000 S 
BRANCH  11  12
ATOM     12  C   UNL     1       5.979   6.004  17.211  0.00  0.00    +0.000 C 
BRANCH  12  14
ATOM     13  N   UNL     1       6.128   3.808  15.513  0.00  0.00    +0.000 NA
ATOM     14  C   UNL     1       6.060   4.804  16.282  0.00  0.00    +0.000 C 
ENDBRANCH  12  14
ENDBRANCH  11  12
ENDBRANCH   5  11
ENDBRANCH   1  10
BRANCH   2  15
ATOM     15  C   UNL     1       2.066   8.711  18.260  0.00  0.00    +0.000 C 
BRANCH  15  16
ATOM     16  O   UNL     1       1.604   9.553  19.308  0.00  0.00    +0.000 OA
BRANCH  16  17
ATOM     17  C   UNL     1       0.399  10.162  19.098  0.00  0.00    +0.000 A 
ATOM     18  C   UNL     1      -0.268   9.782  17.932  0.00  0.00    +0.000 A 
ATOM     19  C   UNL     1      -1.551  10.267  17.657  0.00  0.00    +0.000 A 
ATOM     20  C   UNL     1      -2.195  11.133  18.550  0.00  0.00    +0.000 A 
ATOM     21  C   UNL     1      -1.505  11.532  19.704  0.00  0.00    +0.000 A 
ATOM     22  C   UNL     1      -0.217  11.050  19.978  0.00  0.00    +0.000 A 
BRANCH  20  23
ATOM     23  C   UNL     1      -3.561  11.564  18.281  0.00  0.00    +0.000 A 
ATOM     24  N   UNL     1      -4.445  12.135  19.077  0.00  0.00    +0.000 NA
ATOM     25  N   UNL     1      -5.567  12.379  18.311  0.00  0.00    +0.000 NA
ATOM     26  C   UNL     1      -5.285  11.937  17.109  0.00  0.00    +0.000 A 
ATOM     27  O   UNL     1      -4.038  11.406  17.002  0.00  0.00    +0.000 OA
ENDBRANCH  20  23
ENDBRANCH  16  17
ENDBRANCH  15  16
ENDBRANCH   2  15
TORSDOF 8
ENDMDL
MODEL 6
REMARK VINA RESULT:      -7.1      3.962      9.028
REMARK  Name = 
REMARK  8 active torsions:
REMARK  status: ('A' for Active; 'I' for Inactive)
REMARK    1  A    between atoms: C_2  and  C_3
REMARK    2  A    between atoms: C_3  and  S_4
REMARK    3  A    between atoms: S_4  and  C_5
REMARK    4  A    between atoms: C_10  and  N_11
REMARK    5  A    between atoms: C_12  and  C_14
REMARK    6  A    between atoms: C_14  and  O_15
REMARK    7  A    between atoms: O_15  and  C_16
REMARK    8  A    between atoms: C_19  and  C_20
REMARK                            x       y       z     vdW  Elec       q    Type
REMARK                         _______ _______ _______ _____ _____    ______ ____
ROOT
ATOM      1  N   UNL     1       2.779   6.519  18.381  0.00  0.00    +0.000 N 
ATOM      2  C   UNL     1       2.250   7.642  19.018  0.00  0.00    +0.000 C 
ATOM      3  O   UNL     1       1.961   7.729  20.211  0.00  0.00    +0.000 OA
ATOM      4  H   UNL     1       3.184   6.654  17.462  0.00  0.00    +0.000 HD
ENDROOT
BRANCH   1  10
ATOM      5  C   UNL     1       4.169   4.603  19.122  0.00  0.00    +0.000 A 
ATOM      6  C   UNL     1       4.239   3.326  19.708  0.00  0.00    +0.000 A 
ATOM      7  C   UNL     1       3.080   2.646  20.092  0.00  0.00    +0.000 A 
ATOM      8  C   UNL     1       1.840   3.233  19.889  0.00  0.00    +0.000 A 
ATOM      9  C   UNL     1       1.755   4.495  19.315  0.00  0.00    +0.000 A 
ATOM     10  C   UNL     1       2.902   5.218  18.946  0.00  0.00    +0.000 A 
BRANCH   5  11
ATOM     11  S   UNL     1       5.765   5.384  18.762  0.00  0.00    +0.000 S 
BRANCH  11  12
ATOM     12  C   UNL     1       6.123   4.698  17.058  0.00  0.00    +0.000 C 
BRANCH  12  14
ATOM     13  N   UNL     1       5.238   6.677  15.317  0.00  0.00    +0.000 NA
ATOM     14  C   UNL     1       5.639   5.779  16.107  0.00  0.00    +0.000 C 
ENDBRANCH  12  14
ENDBRANCH  11  12
ENDBRANCH   5  11
ENDBRANCH   1  10
BRANCH   2  15
ATOM     15  C   UNL     1       2.043   8.842  18.100  0.00  0.00    +0.000 C 
BRANCH  15  16
ATOM     16  O   UNL     1       1.489   9.899  18.872  0.00  0.00    +0.000 OA
BRANCH  16  17
ATOM     17  C   UNL     1       0.167  10.171  18.651  0.00  0.00    +0.000 A 
ATOM     18  C   UNL     1      -0.398  11.123  19.500  0.00  0.00    +0.000 A 
ATOM     19  C   UNL     1      -1.717  11.551  19.311  0.00  0.00    +0.000 A 
ATOM     20  C   UNL     1      -2.490  11.042  18.259  0.00  0.00    +0.000 A 
ATOM     21  C   UNL     1      -1.921  10.065  17.429  0.00  0.00    +0.000 A 
ATOM     22  C   UNL     1      -0.602   9.632  17.622  0.00  0.00    +0.000 A 
BRANCH  20  23
ATOM     23  C   UNL     1      -3.833  11.559  18.034  0.00  0.00    +0.000 A 
ATOM     24  N   UNL     1      -4.503  11.726  16.910  0.00  0.00    +0.000 NA
ATOM     25  N   UNL     1      -5.750  12.204  17.259  0.00  0.00    +0.000 NA
ATOM     26  C   UNL     1      -5.747  12.295  18.567  0.00  0.00    +0.000 A 
ATOM     27  O   UNL     1      -4.574  11.908  19.138  0.00  0.00    +0.000 OA
ENDBRANCH  20  23
ENDBRANCH  16  17
ENDBRANCH  15  16
ENDBRANCH   2  15
TORSDOF 8
ENDMDL
MODEL 7
REMARK VINA RESULT:      -7.1      3.187      9.168
REMARK  Name = 
REMARK  8 active torsions:
REMARK  status: ('A' for Active; 'I' for Inactive)
REMARK    1  A    between atoms: C_2  and  C_3
REMARK    2  A    between atoms: C_3  and  S_4
REMARK    3  A    between atoms: S_4  and  C_5
REMARK    4  A    between atoms: C_10  and  N_11
REMARK    5  A    between atoms: C_12  and  C_14
REMARK    6  A    between atoms: C_14  and  O_15
REMARK    7  A    between atoms: O_15  and  C_16
REMARK    8  A    between atoms: C_19  and  C_20
REMARK                            x       y       z     vdW  Elec       q    Type
REMARK                         _______ _______ _______ _____ _____    ______ ____
ROOT
ATOM      1  N   UNL     1       2.197   7.168  18.472  0.00  0.00    +0.000 N 
ATOM      2  C   UNL     1       2.076   8.483  18.024  0.00  0.00    +0.000 C 
ATOM      3  O   UNL     1       2.695   8.990  17.089  0.00  0.00    +0.000 OA
ATOM      4  H   UNL     1       1.472   6.818  19.088  0.00  0.00    +0.000 HD
ENDROOT
BRANCH   1  10
ATOM      5  C   UNL     1       2.989   4.834  18.195  0.00  0.00    +0.000 A 
ATOM      6  C   UNL     1       3.988   3.950  17.750  0.00  0.00    +0.000 A 
ATOM      7  C   UNL     1       5.181   4.429  17.202  0.00  0.00    +0.000 A 
ATOM      8  C   UNL     1       5.390   5.796  17.101  0.00  0.00    +0.000 A 
ATOM      9  C   UNL     1       4.411   6.682  17.533  0.00  0.00    +0.000 A 
ATOM     10  C   UNL     1       3.188   6.233  18.059  0.00  0.00    +0.000 A 
BRANCH   5  11
ATOM     11  S   UNL     1       1.469   4.051  18.798  0.00  0.00    +0.000 S 
BRANCH  11  12
ATOM     12  C   UNL     1       1.431   4.659  20.568  0.00  0.00    +0.000 C 
BRANCH  12  14
ATOM     13  N   UNL     1       2.535   2.573  22.038  0.00  0.00    +0.000 NA
ATOM     14  C   UNL     1       2.035   3.519  21.371  0.00  0.00    +0.000 C 
ENDBRANCH  12  14
ENDBRANCH  11  12
ENDBRANCH   5  11
ENDBRANCH   1  10
BRANCH   2  15
ATOM     15  C   UNL     1       1.060   9.317  18.798  0.00  0.00    +0.000 C 
BRANCH  15  16
ATOM     16  O   UNL     1       1.183   8.996  20.177  0.00  0.00    +0.000 OA
BRANCH  16  17
ATOM     17  C   UNL     1       0.436   9.754  21.035  0.00  0.00    +0.000 A 
ATOM     18  C   UNL     1      -0.039  10.957  20.512  0.00  0.00    +0.000 A 
ATOM     19  C   UNL     1      -0.892  11.773  21.264  0.00  0.00    +0.000 A 
ATOM     20  C   UNL     1      -1.294  11.392  22.551  0.00  0.00    +0.000 A 
ATOM     21  C   UNL     1      -0.788  10.195  23.079  0.00  0.00    +0.000 A 
ATOM     22  C   UNL     1       0.070   9.380  22.327  0.00  0.00    +0.000 A 
BRANCH  20  23
ATOM     23  C   UNL     1      -2.243  12.218  23.286  0.00  0.00    +0.000 A 
ATOM     24  N   UNL     1      -3.423  11.913  23.791  0.00  0.00    +0.000 NA
ATOM     25  N   UNL     1      -3.886  13.047  24.429  0.00  0.00    +0.000 NA
ATOM     26  C   UNL     1      -2.956  13.957  24.262  0.00  0.00    +0.000 A 
ATOM     27  O   UNL     1      -1.884  13.518  23.551  0.00  0.00    +0.000 OA
ENDBRANCH  20  23
ENDBRANCH  16  17
ENDBRANCH  15  16
ENDBRANCH   2  15
TORSDOF 8
ENDMDL
MODEL 8
REMARK VINA RESULT:      -7.1      3.112      8.946
REMARK  Name = 
REMARK  8 active torsions:
REMARK  status: ('A' for Active; 'I' for Inactive)
REMARK    1  A    between atoms: C_2  and  C_3
REMARK    2  A    between atoms: C_3  and  S_4
REMARK    3  A    between atoms: S_4  and  C_5
REMARK    4  A    between atoms: C_10  and  N_11
REMARK    5  A    between atoms: C_12  and  C_14
REMARK    6  A    between atoms: C_14  and  O_15
REMARK    7  A    between atoms: O_15  and  C_16
REMARK    8  A    between atoms: C_19  and  C_20
REMARK                            x       y       z     vdW  Elec       q    Type
REMARK                         _______ _______ _______ _____ _____    ______ ____
ROOT
ATOM      1  N   UNL     1       2.851   6.095  17.819  0.00  0.00    +0.000 N 
ATOM      2  C   UNL     1       2.502   7.179  18.625  0.00  0.00    +0.000 C 
ATOM      3  O   UNL     1       2.216   7.130  19.821  0.00  0.00    +0.000 OA
ATOM      4  H   UNL     1       3.283   6.302  16.926  0.00  0.00    +0.000 HD
ENDROOT
BRANCH   1  10
ATOM      5  C   UNL     1       3.899   3.982  18.584  0.00  0.00    +0.000 A 
ATOM      6  C   UNL     1       3.749   2.633  18.954  0.00  0.00    +0.000 A 
ATOM      7  C   UNL     1       2.501   2.006  18.902  0.00  0.00    +0.000 A 
ATOM      8  C   UNL     1       1.392   2.720  18.473  0.00  0.00    +0.000 A 
ATOM      9  C   UNL     1       1.523   4.053  18.108  0.00  0.00    +0.000 A 
ATOM     10  C   UNL     1       2.757   4.722  18.179  0.00  0.00    +0.000 A 
BRANCH   5  11
ATOM     11  S   UNL     1       5.565   4.666  18.792  0.00  0.00    +0.000 S 
BRANCH  11  12
ATOM     12  C   UNL     1       6.200   4.601  17.033  0.00  0.00    +0.000 C 
BRANCH  12  14
ATOM     13  N   UNL     1       7.651   6.953  16.737  0.00  0.00    +0.000 NA
ATOM     14  C   UNL     1       6.994   5.886  16.871  0.00  0.00    +0.000 C 
ENDBRANCH  12  14
ENDBRANCH  11  12
ENDBRANCH   5  11
ENDBRANCH   1  10
BRANCH   2  15
ATOM     15  C   UNL     1       2.500   8.522  17.903  0.00  0.00    +0.000 C 
BRANCH  15  16
ATOM     16  O   UNL     1       1.158   8.984  17.830  0.00  0.00    +0.000 OA
BRANCH  16  17
ATOM     17  C   UNL     1       0.854  10.062  18.614  0.00  0.00    +0.000 A 
ATOM     18  C   UNL     1      -0.291   9.926  19.401  0.00  0.00    +0.000 A 
ATOM     19  C   UNL     1      -0.651  10.924  20.312  0.00  0.00    +0.000 A 
ATOM     20  C   UNL     1       0.138  12.073  20.462  0.00  0.00    +0.000 A 
ATOM     21  C   UNL     1       1.270  12.213  19.646  0.00  0.00    +0.000 A 
ATOM     22  C   UNL     1       1.628  11.216  18.729  0.00  0.00    +0.000 A 
BRANCH  20  23
ATOM     23  C   UNL     1      -0.213  13.063  21.471  0.00  0.00    +0.000 A 
ATOM     24  N   UNL     1      -0.240  12.964  22.787  0.00  0.00    +0.000 NA
ATOM     25  N   UNL     1      -0.595  14.207  23.271  0.00  0.00    +0.000 NA
ATOM     26  C   UNL     1      -0.761  14.969  22.216  0.00  0.00    +0.000 A 
ATOM     27  O   UNL     1      -0.540  14.326  21.039  0.00  0.00    +0.000 OA
ENDBRANCH  20  23
ENDBRANCH  16  17
ENDBRANCH  15  16
ENDBRANCH   2  15
TORSDOF 8
ENDMDL
MODEL 9
REMARK VINA RESULT:      -7.1      7.146      8.923
REMARK  Name = 
REMARK  8 active torsions:
REMARK  status: ('A' for Active; 'I' for Inactive)
REMARK    1  A    between atoms: C_2  and  C_3
REMARK    2  A    between atoms: C_3  and  S_4
REMARK    3  A    between atoms: S_4  and  C_5
REMARK    4  A    between atoms: C_10  and  N_11
REMARK    5  A    between atoms: C_12  and  C_14
REMARK    6  A    between atoms: C_14  and  O_15
REMARK    7  A    between atoms: O_15  and  C_16
REMARK    8  A    between atoms: C_19  and  C_20
REMARK                            x       y       z     vdW  Elec       q    Type
REMARK                         _______ _______ _______ _____ _____    ______ ____
ROOT
ATOM      1  N   UNL     1       6.895   7.288  16.691  0.00  0.00    +0.000 N 
ATOM      2  C   UNL     1       7.724   7.582  17.774  0.00  0.00    +0.000 C 
ATOM      3  O   UNL     1       8.194   6.767  18.567  0.00  0.00    +0.000 OA
ATOM      4  H   UNL     1       6.771   8.011  15.991  0.00  0.00    +0.000 HD
ENDROOT
BRANCH   1  10
ATOM      5  C   UNL     1       5.125   5.601  17.102  0.00  0.00    +0.000 A 
ATOM      6  C   UNL     1       4.553   4.358  16.778  0.00  0.00    +0.000 A 
ATOM      7  C   UNL     1       5.131   3.528  15.813  0.00  0.00    +0.000 A 
ATOM      8  C   UNL     1       6.291   3.930  15.169  0.00  0.00    +0.000 A 
ATOM      9  C   UNL     1       6.866   5.157  15.476  0.00  0.00    +0.000 A 
ATOM     10  C   UNL     1       6.292   6.028  16.417  0.00  0.00    +0.000 A 
BRANCH   5  11
ATOM     11  S   UNL     1       4.203   6.592  18.309  0.00  0.00    +0.000 S 
BRANCH  11  12
ATOM     12  C   UNL     1       2.528   5.762  18.248  0.00  0.00    +0.000 C 
BRANCH  12  14
ATOM     13  N   UNL     1       2.014   5.054  20.887  0.00  0.00    +0.000 NA
ATOM     14  C   UNL     1       2.246   5.374  19.690  0.00  0.00    +0.000 C 
ENDBRANCH  12  14
ENDBRANCH  11  12
ENDBRANCH   5  11
ENDBRANCH   1  10
BRANCH   2  15
ATOM     15  C   UNL     1       8.046   9.064  17.932  0.00  0.00    +0.000 C 
BRANCH  15  16
ATOM     16  O   UNL     1       8.871   9.218  19.079  0.00  0.00    +0.000 OA
BRANCH  16  17
ATOM     17  C   UNL     1       9.391  10.467  19.277  0.00  0.00    +0.000 A 
ATOM     18  C   UNL     1       9.687  11.183  18.116  0.00  0.00    +0.000 A 
ATOM     19  C   UNL     1      10.136  12.505  18.192  0.00  0.00    +0.000 A 
ATOM     20  C   UNL     1      10.286  13.140  19.432  0.00  0.00    +0.000 A 
ATOM     21  C   UNL     1      10.014  12.402  20.593  0.00  0.00    +0.000 A 
ATOM     22  C   UNL     1       9.568  11.076  20.519  0.00  0.00    +0.000 A 
BRANCH  20  23
ATOM     23  C   UNL     1      10.681  14.542  19.483  0.00  0.00    +0.000 A 
ATOM     24  N   UNL     1      10.137  15.555  20.130  0.00  0.00    +0.000 NA
ATOM     25  N   UNL     1      10.929  16.657  19.876  0.00  0.00    +0.000 NA
ATOM     26  C   UNL     1      11.893  16.235  19.094  0.00  0.00    +0.000 A 
ATOM     27  O   UNL     1      11.812  14.910  18.796  0.00  0.00    +0.000 OA
ENDBRANCH  20  23
ENDBRANCH  16  17
ENDBRANCH  15  16
ENDBRANCH   2  15
TORSDOF 8
ENDMDL
