MODEL 1
REMARK VINA RESULT:      -7.4      0.000      0.000
REMARK  Name = 
REMARK  3 active torsions:
REMARK  status: ('A' for Active; 'I' for Inactive)
REMARK    1  A    between atoms: C_1  and  C_2
REMARK    2  A    between atoms: C_4  and  C_5
REMARK    3  A    between atoms: C_9  and  C_11
REMARK                            x       y       z     vdW  Elec       q    Type
REMARK                         _______ _______ _______ _____ _____    ______ ____
ROOT
ATOM      1  C   UNL     1       0.178  10.068  18.906  0.00  0.00    +0.000 C 
ATOM      2  C   UNL     1       0.057   9.255  20.198  0.00  0.00    +0.000 C 
ATOM      3  C   UNL     1       1.407   8.774  20.709  0.00  0.00    +0.000 C 
ATOM      4  N   UNL     1       2.055   7.971  19.675  0.00  0.00    +0.000 N 
ATOM      5  C   UNL     1       2.103   6.585  19.867  0.00  0.00    +0.000 C 
ATOM      6  O   UNL     1       1.601   6.057  20.862  0.00  0.00    +0.000 OA
ATOM      7  C   UNL     1       2.378   8.737  18.473  0.00  0.00    +0.000 C 
ATOM      8  C   UNL     1       1.163   9.462  17.888  0.00  0.00    +0.000 C 
ENDROOT
BRANCH   1  12
ATOM      9  C   UNL     1      -1.322  14.614  20.277  0.00  0.00    +0.000 C 
ATOM     10  C   UNL     1      -0.270  13.685  19.749  0.00  0.00    +0.000 A 
ATOM     11  C   UNL     1      -0.449  12.319  19.802  0.00  0.00    +0.000 A 
ATOM     12  C   UNL     1       0.479  11.544  19.127  0.00  0.00    +0.000 A 
ATOM     13  N   UNL     1       1.556  12.084  18.521  0.00  0.00    +0.000 NA
ATOM     14  C   UNL     1       1.657  13.419  18.543  0.00  0.00    +0.000 A 
ATOM     15  N   UNL     1       2.728  13.997  17.898  0.00  0.00    +0.000 N 
ATOM     16  N   UNL     1       0.789  14.246  19.135  0.00  0.00    +0.000 NA
ATOM     17  H   UNL     1       3.515  13.362  17.899  0.00  0.00    +0.000 HD
ATOM     18  H   UNL     1       2.878  14.929  18.257  0.00  0.00    +0.000 HD
ENDBRANCH   1  12
BRANCH   5  19
ATOM     19  C   UNL     1       2.736   5.655  18.887  0.00  0.00    +0.000 A 
ATOM     20  C   UNL     1       2.027   4.660  18.183  0.00  0.00    +0.000 A 
ATOM     21  C   UNL     1       2.681   3.817  17.275  0.00  0.00    +0.000 A 
ATOM     22  C   UNL     1       4.016   4.039  17.038  0.00  0.00    +0.000 A 
ATOM     23  C   UNL     1       4.703   5.050  17.665  0.00  0.00    +0.000 A 
ATOM     24  C   UNL     1       4.097   5.869  18.592  0.00  0.00    +0.000 A 
ATOM     25  O   UNL     1       5.998   5.133  17.254  0.00  0.00    +0.000 OA
ATOM     26  C   UNL     1       6.052   4.037  16.316  0.00  0.00    +0.000 C 
ATOM     27  O   UNL     1       4.798   3.338  16.175  0.00  0.00    +0.000 OA
ENDBRANCH   5  19
TORSDOF 2
ENDMDL
MODEL 2
REMARK VINA RESULT:      -7.3      1.025      1.704
REMARK  Name = 
REMARK  3 active torsions:
REMARK  status: ('A' for Active; 'I' for Inactive)
REMARK    1  A    between atoms: C_1  and  C_2
REMARK    2  A    between atoms: C_4  and  C_5
REMARK    3  A    between atoms: C_9  and  C_11
REMARK                            x       y       z     vdW  Elec       q    Type
REMARK                         _______ _______ _______ _____ _____    ______ ____
ROOT
ATOM      1  C   UNL     1       0.156   9.932  19.145  0.00  0.00    +0.000 C 
ATOM      2  C   UNL     1       0.042   9.040  20.385  0.00  0.00    +0.000 C 
ATOM      3  C   UNL     1       1.397   8.555  20.877  0.00  0.00    +0.000 C 
ATOM      4  N   UNL     1       2.068   7.829  19.801  0.00  0.00    +0.000 N 
ATOM      5  C   UNL     1       2.142   6.434  19.910  0.00  0.00    +0.000 C 
ATOM      6  O   UNL     1       1.644   5.838  20.867  0.00  0.00    +0.000 OA
ATOM      7  C   UNL     1       2.384   8.672  18.650  0.00  0.00    +0.000 C 
ATOM      8  C   UNL     1       1.159   9.408  18.100  0.00  0.00    +0.000 C 
ENDROOT
BRANCH   1  12
ATOM      9  C   UNL     1       2.804  14.082  18.397  0.00  0.00    +0.000 C 
ATOM     10  C   UNL     1       1.717  13.331  19.106  0.00  0.00    +0.000 A 
ATOM     11  C   UNL     1       1.295  12.104  18.643  0.00  0.00    +0.000 A 
ATOM     12  C   UNL     1       0.426  11.398  19.458  0.00  0.00    +0.000 A 
ATOM     13  N   UNL     1      -0.058  11.915  20.606  0.00  0.00    +0.000 NA
ATOM     14  C   UNL     1       0.393  13.125  20.961  0.00  0.00    +0.000 A 
ATOM     15  N   UNL     1      -0.057  13.659  22.149  0.00  0.00    +0.000 N 
ATOM     16  N   UNL     1       1.260  13.859  20.258  0.00  0.00    +0.000 NA
ATOM     17  H   UNL     1      -0.982  13.306  22.357  0.00  0.00    +0.000 HD
ATOM     18  H   UNL     1       0.072  14.660  22.141  0.00  0.00    +0.000 HD
ENDBRANCH   1  12
BRANCH   5  19
ATOM     19  C   UNL     1       2.799   5.578  18.881  0.00  0.00    +0.000 A 
ATOM     20  C   UNL     1       2.111   4.627  18.100  0.00  0.00    +0.000 A 
ATOM     21  C   UNL     1       2.788   3.852  17.148  0.00  0.00    +0.000 A 
ATOM     22  C   UNL     1       4.125   4.100  16.949  0.00  0.00    +0.000 A 
ATOM     23  C   UNL     1       4.792   5.072  17.654  0.00  0.00    +0.000 A 
ATOM     24  C   UNL     1       4.163   5.822  18.624  0.00  0.00    +0.000 A 
ATOM     25  O   UNL     1       6.092   5.193  17.272  0.00  0.00    +0.000 OA
ATOM     26  C   UNL     1       6.172   4.163  16.264  0.00  0.00    +0.000 C 
ATOM     27  O   UNL     1       4.927   3.466  16.055  0.00  0.00    +0.000 OA
ENDBRANCH   5  19
TORSDOF 2
ENDMDL
MODEL 3
REMARK VINA RESULT:      -7.3      2.388      4.051
REMARK  Name = 
REMARK  3 active torsions:
REMARK  status: ('A' for Active; 'I' for Inactive)
REMARK    1  A    between atoms: C_1  and  C_2
REMARK    2  A    between atoms: C_4  and  C_5
REMARK    3  A    between atoms: C_9  and  C_11
REMARK                            x       y       z     vdW  Elec       q    Type
REMARK                         _______ _______ _______ _____ _____    ______ ____
ROOT
ATOM      1  C   UNL     1       1.894   6.830  19.033  0.00  0.00    +0.000 C 
ATOM      2  C   UNL     1       2.726   5.832  19.844  0.00  0.00    +0.000 C 
ATOM      3  C   UNL     1       4.222   6.054  19.676  0.00  0.00    +0.000 C 
ATOM      4  N   UNL     1       4.567   5.956  18.260  0.00  0.00    +0.000 N 
ATOM      5  C   UNL     1       5.245   4.805  17.837  0.00  0.00    +0.000 C 
ATOM      6  O   UNL     1       5.525   3.899  18.625  0.00  0.00    +0.000 OA
ATOM      7  C   UNL     1       3.955   7.004  17.446  0.00  0.00    +0.000 C 
ATOM      8  C   UNL     1       2.434   7.069  17.611  0.00  0.00    +0.000 C 
ENDROOT
BRANCH   1  12
ATOM      9  C   UNL     1       0.375   9.352  23.049  0.00  0.00    +0.000 C 
ATOM     10  C   UNL     1       0.894   9.317  21.642  0.00  0.00    +0.000 A 
ATOM     11  C   UNL     1       1.367   8.143  21.098  0.00  0.00    +0.000 A 
ATOM     12  C   UNL     1       1.649   8.155  19.743  0.00  0.00    +0.000 A 
ATOM     13  N   UNL     1       1.554   9.278  19.002  0.00  0.00    +0.000 NA
ATOM     14  C   UNL     1       1.107  10.377  19.625  0.00  0.00    +0.000 A 
ATOM     15  N   UNL     1       0.964  11.528  18.881  0.00  0.00    +0.000 N 
ATOM     16  N   UNL     1       0.774  10.445  20.918  0.00  0.00    +0.000 NA
ATOM     17  H   UNL     1       1.628  11.530  18.118  0.00  0.00    +0.000 HD
ATOM     18  H   UNL     1       0.954  12.329  19.496  0.00  0.00    +0.000 HD
ENDBRANCH   1  12
BRANCH   5  19
ATOM     19  C   UNL     1       5.655   4.583  16.420  0.00  0.00    +0.000 A 
ATOM     20  C   UNL     1       4.907   3.819  15.501  0.00  0.00    +0.000 A 
ATOM     21  C   UNL     1       5.347   3.649  14.181  0.00  0.00    +0.000 A 
ATOM     22  C   UNL     1       6.487   4.310  13.792  0.00  0.00    +0.000 A 
ATOM     23  C   UNL     1       7.187   5.114  14.659  0.00  0.00    +0.000 A 
ATOM     24  C   UNL     1       6.802   5.270  15.972  0.00  0.00    +0.000 A 
ATOM     25  O   UNL     1       8.253   5.716  14.065  0.00  0.00    +0.000 OA
ATOM     26  C   UNL     1       8.159   5.173  12.731  0.00  0.00    +0.000 C 
ATOM     27  O   UNL     1       7.041   4.279  12.552  0.00  0.00    +0.000 OA
ENDBRANCH   5  19
TORSDOF 2
ENDMDL
MODEL 4
REMARK VINA RESULT:      -7.2      3.474      8.755
REMARK  Name = 
REMARK  3 active torsions:
REMARK  status: ('A' for Active; 'I' for Inactive)
REMARK    1  A    between atoms: C_1  and  C_2
REMARK    2  A    between atoms: C_4  and  C_5
REMARK    3  A    between atoms: C_9  and  C_11
REMARK                            x       y       z     vdW  Elec       q    Type
REMARK                         _______ _______ _______ _____ _____    ______ ____
ROOT
ATOM      1  C   UNL     1       2.095   5.879  19.110  0.00  0.00    +0.000 C 
ATOM      2  C   UNL     1       1.928   6.923  18.001  0.00  0.00    +0.000 C 
ATOM      3  C   UNL     1       2.413   8.301  18.425  0.00  0.00    +0.000 C 
ATOM      4  N   UNL     1       1.683   8.722  19.619  0.00  0.00    +0.000 N 
ATOM      5  C   UNL     1       0.707   9.715  19.465  0.00  0.00    +0.000 C 
ATOM      6  O   UNL     1       0.458  10.203  18.361  0.00  0.00    +0.000 OA
ATOM      7  C   UNL     1       1.948   7.876  20.780  0.00  0.00    +0.000 C 
ATOM      8  C   UNL     1       1.687   6.392  20.504  0.00  0.00    +0.000 C 
ENDROOT
BRANCH   1  12
ATOM      9  C   UNL     1       6.836   5.744  17.594  0.00  0.00    +0.000 C 
ATOM     10  C   UNL     1       5.701   5.183  18.397  0.00  0.00    +0.000 A 
ATOM     11  C   UNL     1       4.539   5.904  18.567  0.00  0.00    +0.000 A 
ATOM     12  C   UNL     1       3.477   5.241  19.157  0.00  0.00    +0.000 A 
ATOM     13  N   UNL     1       3.592   3.981  19.626  0.00  0.00    +0.000 NA
ATOM     14  C   UNL     1       4.768   3.370  19.435  0.00  0.00    +0.000 A 
ATOM     15  N   UNL     1       4.899   2.069  19.870  0.00  0.00    +0.000 N 
ATOM     16  N   UNL     1       5.832   3.919  18.840  0.00  0.00    +0.000 NA
ATOM     17  H   UNL     1       4.289   1.907  20.661  0.00  0.00    +0.000 HD
ATOM     18  H   UNL     1       5.878   1.845  19.979  0.00  0.00    +0.000 HD
ENDBRANCH   1  12
BRANCH   5  19
ATOM     19  C   UNL     1      -0.106  10.232  20.603  0.00  0.00    +0.000 A 
ATOM     20  C   UNL     1       0.005   9.753  21.924  0.00  0.00    +0.000 A 
ATOM     21  C   UNL     1      -0.790  10.282  22.951  0.00  0.00    +0.000 A 
ATOM     22  C   UNL     1      -1.624  11.330  22.643  0.00  0.00    +0.000 A 
ATOM     23  C   UNL     1      -1.690  11.853  21.374  0.00  0.00    +0.000 A 
ATOM     24  C   UNL     1      -0.951  11.329  20.337  0.00  0.00    +0.000 A 
ATOM     25  O   UNL     1      -2.535  12.916  21.293  0.00  0.00    +0.000 OA
ATOM     26  C   UNL     1      -3.015  12.982  22.652  0.00  0.00    +0.000 C 
ATOM     27  O   UNL     1      -2.441  11.978  23.514  0.00  0.00    +0.000 OA
ENDBRANCH   5  19
TORSDOF 2
ENDMDL
MODEL 5
REMARK VINA RESULT:      -7.2      2.790      3.747
REMARK  Name = 
REMARK  3 active torsions:
REMARK  status: ('A' for Active; 'I' for Inactive)
REMARK    1  A    between atoms: C_1  and  C_2
REMARK    2  A    between atoms: C_4  and  C_5
REMARK    3  A    between atoms: C_9  and  C_11
REMARK                            x       y       z     vdW  Elec       q    Type
REMARK                         _______ _______ _______ _____ _____    ______ ____
ROOT
ATOM      1  C   UNL     1       0.049  11.779  21.136  0.00  0.00    +0.000 C 
ATOM      2  C   UNL     1       0.567  12.086  19.727  0.00  0.00    +0.000 C 
ATOM      3  C   UNL     1       0.138  11.039  18.711  0.00  0.00    +0.000 C 
ATOM      4  N   UNL     1       0.615   9.727  19.142  0.00  0.00    +0.000 N 
ATOM      5  C   UNL     1       1.694   9.169  18.444  0.00  0.00    +0.000 C 
ATOM      6  O   UNL     1       2.235   9.770  17.513  0.00  0.00    +0.000 OA
ATOM      7  C   UNL     1       0.010   9.280  20.395  0.00  0.00    +0.000 C 
ATOM      8  C   UNL     1       0.178  10.295  21.529  0.00  0.00    +0.000 C 
ENDROOT
BRANCH   1  12
ATOM      9  C   UNL     1      -3.819  12.339  24.222  0.00  0.00    +0.000 C 
ATOM     10  C   UNL     1      -3.184  12.502  22.873  0.00  0.00    +0.000 A 
ATOM     11  C   UNL     1      -1.832  12.297  22.704  0.00  0.00    +0.000 A 
ATOM     12  C   UNL     1      -1.363  12.282  21.402  0.00  0.00    +0.000 A 
ATOM     13  N   UNL     1      -2.167  12.542  20.349  0.00  0.00    +0.000 NA
ATOM     14  C   UNL     1      -3.463  12.752  20.615  0.00  0.00    +0.000 A 
ATOM     15  N   UNL     1      -4.311  12.980  19.554  0.00  0.00    +0.000 N 
ATOM     16  N   UNL     1      -4.008  12.744  21.836  0.00  0.00    +0.000 NA
ATOM     17  H   UNL     1      -3.803  13.413  18.794  0.00  0.00    +0.000 HD
ATOM     18  H   UNL     1      -5.147  13.442  19.882  0.00  0.00    +0.000 HD
ENDBRANCH   1  12
BRANCH   5  19
ATOM     19  C   UNL     1       2.274   7.838  18.783  0.00  0.00    +0.000 A 
ATOM     20  C   UNL     1       1.989   7.142  19.976  0.00  0.00    +0.000 A 
ATOM     21  C   UNL     1       2.568   5.892  20.235  0.00  0.00    +0.000 A 
ATOM     22  C   UNL     1       3.361   5.335  19.260  0.00  0.00    +0.000 A 
ATOM     23  C   UNL     1       3.590   5.972  18.064  0.00  0.00    +0.000 A 
ATOM     24  C   UNL     1       3.067   7.218  17.796  0.00  0.00    +0.000 A 
ATOM     25  O   UNL     1       4.356   5.231  17.218  0.00  0.00    +0.000 OA
ATOM     26  C   UNL     1       4.606   4.067  18.033  0.00  0.00    +0.000 C 
ATOM     27  O   UNL     1       3.978   4.127  19.330  0.00  0.00    +0.000 OA
ENDBRANCH   5  19
TORSDOF 2
ENDMDL
MODEL 6
REMARK VINA RESULT:      -7.2      3.881      8.443
REMARK  Name = 
REMARK  3 active torsions:
REMARK  status: ('A' for Active; 'I' for Inactive)
REMARK    1  A    between atoms: C_1  and  C_2
REMARK    2  A    between atoms: C_4  and  C_5
REMARK    3  A    between atoms: C_9  and  C_11
REMARK                            x       y       z     vdW  Elec       q    Type
REMARK                         _______ _______ _______ _____ _____    ______ ____
ROOT
ATOM      1  C   UNL     1       6.102   5.189  16.569  0.00  0.00    +0.000 C 
ATOM      2  C   UNL     1       5.235   4.045  17.104  0.00  0.00    +0.000 C 
ATOM      3  C   UNL     1       3.754   4.269  16.840  0.00  0.00    +0.000 C 
ATOM      4  N   UNL     1       3.342   5.532  17.449  0.00  0.00    +0.000 N 
ATOM      5  C   UNL     1       2.565   5.467  18.613  0.00  0.00    +0.000 C 
ATOM      6  O   UNL     1       2.255   4.385  19.117  0.00  0.00    +0.000 OA
ATOM      7  C   UNL     1       3.993   6.696  16.851  0.00  0.00    +0.000 C 
ATOM      8  C   UNL     1       5.521   6.587  16.855  0.00  0.00    +0.000 C 
ENDROOT
BRANCH   1  12
ATOM      9  C   UNL     1       5.707   2.777  12.231  0.00  0.00    +0.000 C 
ATOM     10  C   UNL     1       6.290   3.872  13.073  0.00  0.00    +0.000 A 
ATOM     11  C   UNL     1       5.761   4.162  14.313  0.00  0.00    +0.000 A 
ATOM     12  C   UNL     1       6.472   5.053  15.099  0.00  0.00    +0.000 A 
ATOM     13  N   UNL     1       7.579   5.679  14.648  0.00  0.00    +0.000 NA
ATOM     14  C   UNL     1       8.003   5.350  13.421  0.00  0.00    +0.000 A 
ATOM     15  N   UNL     1       9.153   5.947  12.953  0.00  0.00    +0.000 N 
ATOM     16  N   UNL     1       7.403   4.472  12.611  0.00  0.00    +0.000 NA
ATOM     17  H   UNL     1       9.262   6.861  13.373  0.00  0.00    +0.000 HD
ATOM     18  H   UNL     1       9.179   5.887  11.945  0.00  0.00    +0.000 HD
ENDBRANCH   1  12
BRANCH   5  19
ATOM     19  C   UNL     1       2.081   6.681  19.330  0.00  0.00    +0.000 A 
ATOM     20  C   UNL     1       1.814   6.717  20.714  0.00  0.00    +0.000 A 
ATOM     21  C   UNL     1       1.360   7.892  21.330  0.00  0.00    +0.000 A 
ATOM     22  C   UNL     1       1.257   9.024  20.557  0.00  0.00    +0.000 A 
ATOM     23  C   UNL     1       1.581   9.020  19.222  0.00  0.00    +0.000 A 
ATOM     24  C   UNL     1       1.992   7.872  18.581  0.00  0.00    +0.000 A 
ATOM     25  O   UNL     1       1.459  10.250  18.653  0.00  0.00    +0.000 OA
ATOM     26  C   UNL     1       0.992  11.021  19.780  0.00  0.00    +0.000 C 
ATOM     27  O   UNL     1       0.860  10.249  20.990  0.00  0.00    +0.000 OA
ENDBRANCH   5  19
TORSDOF 2
ENDMDL
MODEL 7
REMARK VINA RESULT:      -7.1      2.207      4.019
REMARK  Name = 
REMARK  3 active torsions:
REMARK  status: ('A' for Active; 'I' for Inactive)
REMARK    1  A    between atoms: C_1  and  C_2
REMARK    2  A    between atoms: C_4  and  C_5
REMARK    3  A    between atoms: C_9  and  C_11
REMARK                            x       y       z     vdW  Elec       q    Type
REMARK                         _______ _______ _______ _____ _____    ______ ____
ROOT
ATOM      1  C   UNL     1       1.752   7.300  18.657  0.00  0.00    +0.000 C 
ATOM      2  C   UNL     1       2.203   6.050  19.419  0.00  0.00    +0.000 C 
ATOM      3  C   UNL     1       3.711   6.003  19.613  0.00  0.00    +0.000 C 
ATOM      4  N   UNL     1       4.366   6.053  18.308  0.00  0.00    +0.000 N 
ATOM      5  C   UNL     1       4.941   4.870  17.826  0.00  0.00    +0.000 C 
ATOM      6  O   UNL     1       4.881   3.819  18.469  0.00  0.00    +0.000 OA
ATOM      7  C   UNL     1       4.135   7.309  17.598  0.00  0.00    +0.000 C 
ATOM      8  C   UNL     1       2.647   7.641  17.450  0.00  0.00    +0.000 C 
ENDROOT
BRANCH   1  12
ATOM      9  C   UNL     1       0.315   9.314  22.978  0.00  0.00    +0.000 C 
ATOM     10  C   UNL     1       0.834   9.450  21.577  0.00  0.00    +0.000 A 
ATOM     11  C   UNL     1       1.268   8.343  20.880  0.00  0.00    +0.000 A 
ATOM     12  C   UNL     1       1.552   8.526  19.537  0.00  0.00    +0.000 A 
ATOM     13  N   UNL     1       1.495   9.741  18.953  0.00  0.00    +0.000 NA
ATOM     14  C   UNL     1       1.085  10.760  19.719  0.00  0.00    +0.000 A 
ATOM     15  N   UNL     1       0.981  12.005  19.135  0.00  0.00    +0.000 N 
ATOM     16  N   UNL     1       0.752  10.668  21.010  0.00  0.00    +0.000 NA
ATOM     17  H   UNL     1       1.645  12.086  18.377  0.00  0.00    +0.000 HD
ATOM     18  H   UNL     1       0.997  12.717  19.851  0.00  0.00    +0.000 HD
ENDBRANCH   1  12
BRANCH   5  19
ATOM     19  C   UNL     1       5.638   4.787  16.510  0.00  0.00    +0.000 A 
ATOM     20  C   UNL     1       6.986   5.151  16.316  0.00  0.00    +0.000 A 
ATOM     21  C   UNL     1       7.584   5.050  15.052  0.00  0.00    +0.000 A 
ATOM     22  C   UNL     1       6.838   4.516  14.028  0.00  0.00    +0.000 A 
ATOM     23  C   UNL     1       5.545   4.092  14.221  0.00  0.00    +0.000 A 
ATOM     24  C   UNL     1       4.918   4.215  15.441  0.00  0.00    +0.000 A 
ATOM     25  O   UNL     1       5.002   3.549  13.098  0.00  0.00    +0.000 OA
ATOM     26  C   UNL     1       6.095   3.707  12.168  0.00  0.00    +0.000 C 
ATOM     27  O   UNL     1       7.262   4.321  12.753  0.00  0.00    +0.000 OA
ENDBRANCH   5  19
TORSDOF 2
ENDMDL
MODEL 8
REMARK VINA RESULT:      -7.1      1.076      1.185
REMARK  Name = 
REMARK  3 active torsions:
REMARK  status: ('A' for Active; 'I' for Inactive)
REMARK    1  A    between atoms: C_1  and  C_2
REMARK    2  A    between atoms: C_4  and  C_5
REMARK    3  A    between atoms: C_9  and  C_11
REMARK                            x       y       z     vdW  Elec       q    Type
REMARK                         _______ _______ _______ _____ _____    ______ ____
ROOT
ATOM      1  C   UNL     1      -0.125   9.790  19.854  0.00  0.00    +0.000 C 
ATOM      2  C   UNL     1      -0.154   8.802  21.025  0.00  0.00    +0.000 C 
ATOM      3  C   UNL     1       1.238   8.339  21.426  0.00  0.00    +0.000 C 
ATOM      4  N   UNL     1       1.892   7.725  20.272  0.00  0.00    +0.000 N 
ATOM      5  C   UNL     1       2.025   6.330  20.269  0.00  0.00    +0.000 C 
ATOM      6  O   UNL     1       1.590   5.643  21.196  0.00  0.00    +0.000 OA
ATOM      7  C   UNL     1       2.128   8.665  19.179  0.00  0.00    +0.000 C 
ATOM      8  C   UNL     1       0.854   9.388  18.734  0.00  0.00    +0.000 C 
ENDROOT
BRANCH   1  12
ATOM      9  C   UNL     1      -1.027  13.573  22.962  0.00  0.00    +0.000 C 
ATOM     10  C   UNL     1      -0.372  13.013  21.735  0.00  0.00    +0.000 A 
ATOM     11  C   UNL     1      -0.354  11.654  21.508  0.00  0.00    +0.000 A 
ATOM     12  C   UNL     1       0.100  11.237  20.268  0.00  0.00    +0.000 A 
ATOM     13  N   UNL     1       0.586  12.104  19.356  0.00  0.00    +0.000 NA
ATOM     14  C   UNL     1       0.549  13.404  19.677  0.00  0.00    +0.000 A 
ATOM     15  N   UNL     1       1.004  14.313  18.747  0.00  0.00    +0.000 N 
ATOM     16  N   UNL     1       0.091  13.898  20.832  0.00  0.00    +0.000 NA
ATOM     17  H   UNL     1       1.712  13.885  18.164  0.00  0.00    +0.000 HD
ATOM     18  H   UNL     1       1.238  15.181  19.207  0.00  0.00    +0.000 HD
ENDBRANCH   1  12
BRANCH   5  19
ATOM     19  C   UNL     1       2.672   5.582  19.153  0.00  0.00    +0.000 A 
ATOM     20  C   UNL     1       1.961   4.798  18.222  0.00  0.00    +0.000 A 
ATOM     21  C   UNL     1       2.630   4.119  17.194  0.00  0.00    +0.000 A 
ATOM     22  C   UNL     1       3.987   4.301  17.079  0.00  0.00    +0.000 A 
ATOM     23  C   UNL     1       4.682   5.119  17.938  0.00  0.00    +0.000 A 
ATOM     24  C   UNL     1       4.059   5.767  18.981  0.00  0.00    +0.000 A 
ATOM     25  O   UNL     1       6.003   5.203  17.622  0.00  0.00    +0.000 OA
ATOM     26  C   UNL     1       6.062   4.320  16.482  0.00  0.00    +0.000 C 
ATOM     27  O   UNL     1       4.787   3.744  16.133  0.00  0.00    +0.000 OA
ENDBRANCH   5  19
TORSDOF 2
ENDMDL
MODEL 9
REMARK VINA RESULT:      -7.1      1.414      2.329
REMARK  Name = 
REMARK  3 active torsions:
REMARK  status: ('A' for Active; 'I' for Inactive)
REMARK    1  A    between atoms: C_1  and  C_2
REMARK    2  A    between atoms: C_4  and  C_5
REMARK    3  A    between atoms: C_9  and  C_11
REMARK                            x       y       z     vdW  Elec       q    Type
REMARK                         _______ _______ _______ _____ _____    ______ ____
ROOT
ATOM      1  C   UNL     1      -0.210  10.387  18.765  0.00  0.00    +0.000 C 
ATOM      2  C   UNL     1      -0.276   9.797  20.177  0.00  0.00    +0.000 C 
ATOM      3  C   UNL     1       1.095   9.409  20.708  0.00  0.00    +0.000 C 
ATOM      4  N   UNL     1       1.710   8.448  19.795  0.00  0.00    +0.000 N 
ATOM      5  C   UNL     1       1.777   7.112  20.210  0.00  0.00    +0.000 C 
ATOM      6  O   UNL     1       1.317   6.754  21.297  0.00  0.00    +0.000 OA
ATOM      7  C   UNL     1       1.983   9.007  18.472  0.00  0.00    +0.000 C 
ATOM      8  C   UNL     1       0.740   9.624  17.823  0.00  0.00    +0.000 C 
ENDROOT
BRANCH   1  12
ATOM      9  C   UNL     1       3.076  14.127  18.676  0.00  0.00    +0.000 C 
ATOM     10  C   UNL     1       1.664  13.624  18.722  0.00  0.00    +0.000 A 
ATOM     11  C   UNL     1       1.385  12.296  18.483  0.00  0.00    +0.000 A 
ATOM     12  C   UNL     1       0.087  11.880  18.730  0.00  0.00    +0.000 A 
ATOM     13  N   UNL     1      -0.883  12.742  19.100  0.00  0.00    +0.000 NA
ATOM     14  C   UNL     1      -0.519  14.018  19.284  0.00  0.00    +0.000 A 
ATOM     15  N   UNL     1      -1.483  14.911  19.699  0.00  0.00    +0.000 N 
ATOM     16  N   UNL     1       0.716  14.498  19.109  0.00  0.00    +0.000 NA
ATOM     17  H   UNL     1      -2.392  14.614  19.370  0.00  0.00    +0.000 HD
ATOM     18  H   UNL     1      -1.189  15.852  19.481  0.00  0.00    +0.000 HD
ENDBRANCH   1  12
BRANCH   5  19
ATOM     19  C   UNL     1       2.380   6.035  19.373  0.00  0.00    +0.000 A 
ATOM     20  C   UNL     1       3.267   6.279  18.305  0.00  0.00    +0.000 A 
ATOM     21  C   UNL     1       3.800   5.221  17.556  0.00  0.00    +0.000 A 
ATOM     22  C   UNL     1       3.490   3.939  17.943  0.00  0.00    +0.000 A 
ATOM     23  C   UNL     1       2.683   3.685  19.025  0.00  0.00    +0.000 A 
ATOM     24  C   UNL     1       2.112   4.704  19.756  0.00  0.00    +0.000 A 
ATOM     25  O   UNL     1       2.542   2.354  19.270  0.00  0.00    +0.000 OA
ATOM     26  C   UNL     1       3.333   1.800  18.197  0.00  0.00    +0.000 C 
ATOM     27  O   UNL     1       3.936   2.800  17.351  0.00  0.00    +0.000 OA
ENDBRANCH   5  19
TORSDOF 2
ENDMDL
