MODEL 1
REMARK VINA RESULT:      -9.5      0.000      0.000
REMARK  Name = 
REMARK  7 active torsions:
REMARK  status: ('A' for Active; 'I' for Inactive)
REMARK    1  A    between atoms: C_1  and  C_2
REMARK    2  A    between atoms: C_3  and  C_4
REMARK    3  A    between atoms: C_8  and  O_9
REMARK    4  A    between atoms: O_9  and  C_10
REMARK    5  A    between atoms: C_10  and  C_11
REMARK    6  A    between atoms: N_15  and  C_16
REMARK    7  A    between atoms: C_16  and  C_17
REMARK                            x       y       z     vdW  Elec       q    Type
REMARK                         _______ _______ _______ _____ _____    ______ ____
ROOT
ATOM      1  C   UNL     1       2.059   4.927  20.160  0.00  0.00    +0.000 C 
ENDROOT
BRANCH   1   2
ATOM      2  C   UNL     1       1.476   4.287  18.892  0.00  0.00    +0.000 C 
ATOM      3  C   UNL     1       1.013   2.843  19.123  0.00  0.00    +0.000 C 
ATOM      4  C   UNL     1       2.186   1.874  19.223  0.00  0.00    +0.000 C 
ATOM      5  C   UNL     1       3.214   2.063  18.100  0.00  0.00    +0.000 C 
ATOM      6  N   UNL     1       3.654   3.464  17.948  0.00  0.00    +0.000 NA
ATOM      7  C   UNL     1       2.490   4.343  17.733  0.00  0.00    +0.000 C 
BRANCH   6   8
ATOM      8  C   UNL     1       4.620   3.625  16.829  0.00  0.00    +0.000 C 
BRANCH   8   9
ATOM      9  C   UNL     1       5.612   4.760  17.025  0.00  0.00    +0.000 A 
ATOM     10  C   UNL     1       6.805   4.545  17.733  0.00  0.00    +0.000 A 
ATOM     11  C   UNL     1       7.622   5.620  18.090  0.00  0.00    +0.000 A 
ATOM     12  C   UNL     1       7.286   6.909  17.683  0.00  0.00    +0.000 A 
ATOM     13 CL   UNL     1       8.243   8.244  18.197  0.00  0.00    +0.000 Cl
ATOM     14  C   UNL     1       6.166   7.124  16.884  0.00  0.00    +0.000 A 
ATOM     15  C   UNL     1       5.327   6.053  16.560  0.00  0.00    +0.000 A 
ENDBRANCH   8   9
ENDBRANCH   6   8
ENDBRANCH   1   2
BRANCH   1  16
ATOM     16  O   UNL     1       2.848   6.080  19.826  0.00  0.00    +0.000 OA
BRANCH  16  24
ATOM     17  C   UNL     1      -1.131  12.691  21.436  0.00  0.00    +0.000 C 
ATOM     18  C   UNL     1      -0.458  11.379  21.135  0.00  0.00    +0.000 A 
ATOM     19  C   UNL     1       0.049  11.010  19.941  0.00  0.00    +0.000 A 
ATOM     20  C   UNL     1      -0.019  11.838  18.682  0.00  0.00    +0.000 C 
ATOM     21  C   UNL     1       0.756   9.718  19.838  0.00  0.00    +0.000 A 
ATOM     22  C   UNL     1       1.412   9.302  18.676  0.00  0.00    +0.000 A 
ATOM     23  C   UNL     1       2.126   8.095  18.644  0.00  0.00    +0.000 A 
ATOM     24  C   UNL     1       2.179   7.269  19.768  0.00  0.00    +0.000 A 
ATOM     25  C   UNL     1       1.511   7.664  20.920  0.00  0.00    +0.000 A 
ATOM     26  C   UNL     1       0.821   8.880  20.950  0.00  0.00    +0.000 A 
ATOM     27  O   UNL     1       0.213   9.241  22.161  0.00  0.00    +0.000 OA
ATOM     28  C   UNL     1      -0.385  10.481  22.325  0.00  0.00    +0.000 A 
ATOM     29  O   UNL     1      -0.849  10.818  23.411  0.00  0.00    +0.000 OA
ENDBRANCH  16  24
ENDBRANCH   1  16
TORSDOF 5
ENDMDL
MODEL 2
REMARK VINA RESULT:      -8.9      1.668      2.263
REMARK  Name = 
REMARK  7 active torsions:
REMARK  status: ('A' for Active; 'I' for Inactive)
REMARK    1  A    between atoms: C_1  and  C_2
REMARK    2  A    between atoms: C_3  and  C_4
REMARK    3  A    between atoms: C_8  and  O_9
REMARK    4  A    between atoms: O_9  and  C_10
REMARK    5  A    between atoms: C_10  and  C_11
REMARK    6  A    between atoms: N_15  and  C_16
REMARK    7  A    between atoms: C_16  and  C_17
REMARK                            x       y       z     vdW  Elec       q    Type
REMARK                         _______ _______ _______ _____ _____    ______ ____
ROOT
ATOM      1  C   UNL     1       1.882   5.772  20.862  0.00  0.00    +0.000 C 
ENDROOT
BRANCH   1   2
ATOM      2  C   UNL     1       1.390   4.563  20.054  0.00  0.00    +0.000 C 
ATOM      3  C   UNL     1       1.256   3.298  20.911  0.00  0.00    +0.000 C 
ATOM      4  C   UNL     1       2.611   2.684  21.242  0.00  0.00    +0.000 C 
ATOM      5  C   UNL     1       3.523   2.552  20.014  0.00  0.00    +0.000 C 
ATOM      6  N   UNL     1       3.647   3.808  19.248  0.00  0.00    +0.000 NA
ATOM      7  C   UNL     1       2.313   4.295  18.850  0.00  0.00    +0.000 C 
BRANCH   6   8
ATOM      8  C   UNL     1       4.502   3.643  18.044  0.00  0.00    +0.000 C 
BRANCH   8   9
ATOM      9  C   UNL     1       5.482   4.783  17.818  0.00  0.00    +0.000 A 
ATOM     10  C   UNL     1       6.685   4.838  18.540  0.00  0.00    +0.000 A 
ATOM     11  C   UNL     1       7.492   5.977  18.489  0.00  0.00    +0.000 A 
ATOM     12  C   UNL     1       7.136   7.040  17.663  0.00  0.00    +0.000 A 
ATOM     13 CL   UNL     1       8.082   8.479  17.667  0.00  0.00    +0.000 Cl
ATOM     14  C   UNL     1       6.006   6.954  16.855  0.00  0.00    +0.000 A 
ATOM     15  C   UNL     1       5.176   5.831  16.936  0.00  0.00    +0.000 A 
ENDBRANCH   8   9
ENDBRANCH   6   8
ENDBRANCH   1   2
BRANCH   1  16
ATOM     16  O   UNL     1       2.040   6.918  20.010  0.00  0.00    +0.000 OA
BRANCH  16  24
ATOM     17  C   UNL     1      -1.705  13.843  20.415  0.00  0.00    +0.000 C 
ATOM     18  C   UNL     1      -0.905  12.571  20.324  0.00  0.00    +0.000 A 
ATOM     19  C   UNL     1      -0.638  11.734  21.348  0.00  0.00    +0.000 A 
ATOM     20  C   UNL     1      -1.060  11.959  22.778  0.00  0.00    +0.000 C 
ATOM     21  C   UNL     1       0.090  10.481  21.070  0.00  0.00    +0.000 A 
ATOM     22  C   UNL     1       0.313   9.500  22.040  0.00  0.00    +0.000 A 
ATOM     23  C   UNL     1       0.954   8.296  21.715  0.00  0.00    +0.000 A 
ATOM     24  C   UNL     1       1.407   8.058  20.415  0.00  0.00    +0.000 A 
ATOM     25  C   UNL     1       1.211   9.038  19.449  0.00  0.00    +0.000 A 
ATOM     26  C   UNL     1       0.549  10.226  19.778  0.00  0.00    +0.000 A 
ATOM     27  O   UNL     1       0.339  11.148  18.743  0.00  0.00    +0.000 OA
ATOM     28  C   UNL     1      -0.414  12.294  18.942  0.00  0.00    +0.000 A 
ATOM     29  O   UNL     1      -0.657  13.059  18.012  0.00  0.00    +0.000 OA
ENDBRANCH  16  24
ENDBRANCH   1  16
TORSDOF 5
ENDMDL
MODEL 3
REMARK VINA RESULT:      -8.7      2.317      4.112
REMARK  Name = 
REMARK  7 active torsions:
REMARK  status: ('A' for Active; 'I' for Inactive)
REMARK    1  A    between atoms: C_1  and  C_2
REMARK    2  A    between atoms: C_3  and  C_4
REMARK    3  A    between atoms: C_8  and  O_9
REMARK    4  A    between atoms: O_9  and  C_10
REMARK    5  A    between atoms: C_10  and  C_11
REMARK    6  A    between atoms: N_15  and  C_16
REMARK    7  A    between atoms: C_16  and  C_17
REMARK                            x       y       z     vdW  Elec       q    Type
REMARK                         _______ _______ _______ _____ _____    ______ ____
ROOT
ATOM      1  C   UNL     1       4.373   7.225  17.369  0.00  0.00    +0.000 C 
ENDROOT
BRANCH   1   2
ATOM      2  C   UNL     1       5.547   6.257  17.570  0.00  0.00    +0.000 C 
ATOM      3  C   UNL     1       6.456   6.173  16.338  0.00  0.00    +0.000 C 
ATOM      4  C   UNL     1       5.822   5.368  15.210  0.00  0.00    +0.000 C 
ATOM      5  C   UNL     1       5.237   4.031  15.687  0.00  0.00    +0.000 C 
ATOM      6  N   UNL     1       4.339   4.175  16.849  0.00  0.00    +0.000 NA
ATOM      7  C   UNL     1       5.041   4.853  17.955  0.00  0.00    +0.000 C 
BRANCH   6   8
ATOM      8  C   UNL     1       3.818   2.862  17.315  0.00  0.00    +0.000 C 
BRANCH   8   9
ATOM      9  C   UNL     1       3.105   2.919  18.656  0.00  0.00    +0.000 A 
ATOM     10  C   UNL     1       3.795   2.614  19.840  0.00  0.00    +0.000 A 
ATOM     11  C   UNL     1       3.105   2.467  21.046  0.00  0.00    +0.000 A 
ATOM     12  C   UNL     1       1.731   2.692  21.088  0.00  0.00    +0.000 A 
ATOM     13 CL   UNL     1       0.866   2.426  22.553  0.00  0.00    +0.000 Cl
ATOM     14  C   UNL     1       1.051   3.107  19.946  0.00  0.00    +0.000 A 
ATOM     15  C   UNL     1       1.735   3.214  18.731  0.00  0.00    +0.000 A 
ENDBRANCH   8   9
ENDBRANCH   6   8
ENDBRANCH   1   2
BRANCH   1  16
ATOM     16  O   UNL     1       3.195   6.735  18.031  0.00  0.00    +0.000 OA
BRANCH  16  24
ATOM     17  C   UNL     1      -0.947  11.581  22.667  0.00  0.00    +0.000 C 
ATOM     18  C   UNL     1      -0.222  10.584  21.804  0.00  0.00    +0.000 A 
ATOM     19  C   UNL     1      -0.178  10.595  20.455  0.00  0.00    +0.000 A 
ATOM     20  C   UNL     1      -0.895  11.589  19.577  0.00  0.00    +0.000 C 
ATOM     21  C   UNL     1       0.654   9.590  19.763  0.00  0.00    +0.000 A 
ATOM     22  C   UNL     1       0.854   9.591  18.381  0.00  0.00    +0.000 A 
ATOM     23  C   UNL     1       1.703   8.655  17.773  0.00  0.00    +0.000 A 
ATOM     24  C   UNL     1       2.352   7.682  18.536  0.00  0.00    +0.000 A 
ATOM     25  C   UNL     1       2.142   7.659  19.910  0.00  0.00    +0.000 A 
ATOM     26  C   UNL     1       1.311   8.612  20.509  0.00  0.00    +0.000 A 
ATOM     27  O   UNL     1       1.184   8.563  21.904  0.00  0.00    +0.000 OA
ATOM     28  C   UNL     1       0.485   9.537  22.599  0.00  0.00    +0.000 A 
ATOM     29  O   UNL     1       0.442   9.528  23.826  0.00  0.00    +0.000 OA
ENDBRANCH  16  24
ENDBRANCH   1  16
TORSDOF 5
ENDMDL
MODEL 4
REMARK VINA RESULT:      -8.4      2.536      4.451
REMARK  Name = 
REMARK  7 active torsions:
REMARK  status: ('A' for Active; 'I' for Inactive)
REMARK    1  A    between atoms: C_1  and  C_2
REMARK    2  A    between atoms: C_3  and  C_4
REMARK    3  A    between atoms: C_8  and  O_9
REMARK    4  A    between atoms: O_9  and  C_10
REMARK    5  A    between atoms: C_10  and  C_11
REMARK    6  A    between atoms: N_15  and  C_16
REMARK    7  A    between atoms: C_16  and  C_17
REMARK                            x       y       z     vdW  Elec       q    Type
REMARK                         _______ _______ _______ _____ _____    ______ ____
ROOT
ATOM      1  C   UNL     1       4.706   7.169  17.127  0.00  0.00    +0.000 C 
ENDROOT
BRANCH   1   2
ATOM      2  C   UNL     1       5.791   6.212  17.642  0.00  0.00    +0.000 C 
ATOM      3  C   UNL     1       6.950   6.051  16.652  0.00  0.00    +0.000 C 
ATOM      4  C   UNL     1       6.569   5.178  15.461  0.00  0.00    +0.000 C 
ATOM      5  C   UNL     1       5.873   3.875  15.876  0.00  0.00    +0.000 C 
ATOM      6  N   UNL     1       4.740   4.092  16.798  0.00  0.00    +0.000 NA
ATOM      7  C   UNL     1       5.190   4.836  17.989  0.00  0.00    +0.000 C 
BRANCH   6   8
ATOM      8  C   UNL     1       4.109   2.812  17.214  0.00  0.00    +0.000 C 
BRANCH   8   9
ATOM      9  C   UNL     1       3.359   2.891  18.534  0.00  0.00    +0.000 A 
ATOM     10  C   UNL     1       3.988   2.511  19.730  0.00  0.00    +0.000 A 
ATOM     11  C   UNL     1       3.251   2.389  20.911  0.00  0.00    +0.000 A 
ATOM     12  C   UNL     1       1.896   2.711  20.917  0.00  0.00    +0.000 A 
ATOM     13 CL   UNL     1       0.969   2.477  22.349  0.00  0.00    +0.000 Cl
ATOM     14  C   UNL     1       1.285   3.199  19.765  0.00  0.00    +0.000 A 
ATOM     15  C   UNL     1       2.012   3.283  18.574  0.00  0.00    +0.000 A 
ENDBRANCH   8   9
ENDBRANCH   6   8
ENDBRANCH   1   2
BRANCH   1  16
ATOM     16  O   UNL     1       3.397   6.655  17.424  0.00  0.00    +0.000 OA
BRANCH  16  24
ATOM     17  C   UNL     1      -1.286  11.742  21.210  0.00  0.00    +0.000 C 
ATOM     18  C   UNL     1      -0.320  10.840  20.489  0.00  0.00    +0.000 A 
ATOM     19  C   UNL     1       0.271   9.744  21.007  0.00  0.00    +0.000 A 
ATOM     20  C   UNL     1       0.098   9.260  22.425  0.00  0.00    +0.000 C 
ATOM     21  C   UNL     1       1.128   8.918  20.134  0.00  0.00    +0.000 A 
ATOM     22  C   UNL     1       1.689   7.706  20.545  0.00  0.00    +0.000 A 
ATOM     23  C   UNL     1       2.446   6.924  19.661  0.00  0.00    +0.000 A 
ATOM     24  C   UNL     1       2.675   7.350  18.351  0.00  0.00    +0.000 A 
ATOM     25  C   UNL     1       2.141   8.565  17.940  0.00  0.00    +0.000 A 
ATOM     26  C   UNL     1       1.368   9.327  18.822  0.00  0.00    +0.000 A 
ATOM     27  O   UNL     1       0.816  10.516  18.326  0.00  0.00    +0.000 OA
ATOM     28  C   UNL     1      -0.063  11.274  19.084  0.00  0.00    +0.000 A 
ATOM     29  O   UNL     1      -0.600  12.274  18.615  0.00  0.00    +0.000 OA
ENDBRANCH  16  24
ENDBRANCH   1  16
TORSDOF 5
ENDMDL
MODEL 5
REMARK VINA RESULT:      -8.4      3.618      8.657
REMARK  Name = 
REMARK  7 active torsions:
REMARK  status: ('A' for Active; 'I' for Inactive)
REMARK    1  A    between atoms: C_1  and  C_2
REMARK    2  A    between atoms: C_3  and  C_4
REMARK    3  A    between atoms: C_8  and  O_9
REMARK    4  A    between atoms: O_9  and  C_10
REMARK    5  A    between atoms: C_10  and  C_11
REMARK    6  A    between atoms: N_15  and  C_16
REMARK    7  A    between atoms: C_16  and  C_17
REMARK                            x       y       z     vdW  Elec       q    Type
REMARK                         _______ _______ _______ _____ _____    ______ ____
ROOT
ATOM      1  C   UNL     1       0.573   8.021  20.953  0.00  0.00    +0.000 C 
ENDROOT
BRANCH   1   2
ATOM      2  C   UNL     1       1.088   9.386  21.430  0.00  0.00    +0.000 C 
ATOM      3  C   UNL     1       0.765   9.652  22.905  0.00  0.00    +0.000 C 
ATOM      4  C   UNL     1      -0.706   9.992  23.118  0.00  0.00    +0.000 C 
ATOM      5  C   UNL     1      -1.223  11.048  22.131  0.00  0.00    +0.000 C 
ATOM      6  N   UNL     1      -0.919  10.722  20.724  0.00  0.00    +0.000 NA
ATOM      7  C   UNL     1       0.532  10.521  20.549  0.00  0.00    +0.000 C 
BRANCH   6   8
ATOM      8  C   UNL     1      -1.395  11.779  19.793  0.00  0.00    +0.000 C 
BRANCH   8   9
ATOM      9  C   UNL     1      -2.119  11.245  18.568  0.00  0.00    +0.000 A 
ATOM     10  C   UNL     1      -1.520  10.265  17.760  0.00  0.00    +0.000 A 
ATOM     11  C   UNL     1      -2.083   9.916  16.530  0.00  0.00    +0.000 A 
ATOM     12  C   UNL     1      -3.285  10.497  16.132  0.00  0.00    +0.000 A 
ATOM     13 CL   UNL     1      -3.935  10.135  14.579  0.00  0.00    +0.000 Cl
ATOM     14  C   UNL     1      -3.950  11.385  16.973  0.00  0.00    +0.000 A 
ATOM     15  C   UNL     1      -3.366  11.764  18.185  0.00  0.00    +0.000 A 
ENDBRANCH   8   9
ENDBRANCH   6   8
ENDBRANCH   1   2
BRANCH   1  16
ATOM     16  O   UNL     1       1.421   6.965  21.435  0.00  0.00    +0.000 OA
BRANCH  16  24
ATOM     17  C   UNL     1       5.588   4.019  15.426  0.00  0.00    +0.000 C 
ATOM     18  C   UNL     1       4.727   4.618  16.507  0.00  0.00    +0.000 A 
ATOM     19  C   UNL     1       3.959   3.927  17.375  0.00  0.00    +0.000 A 
ATOM     20  C   UNL     1       3.796   2.428  17.377  0.00  0.00    +0.000 C 
ATOM     21  C   UNL     1       3.242   4.666  18.432  0.00  0.00    +0.000 A 
ATOM     22  C   UNL     1       2.517   4.032  19.444  0.00  0.00    +0.000 A 
ATOM     23  C   UNL     1       1.903   4.772  20.465  0.00  0.00    +0.000 A 
ATOM     24  C   UNL     1       1.985   6.166  20.482  0.00  0.00    +0.000 A 
ATOM     25  C   UNL     1       2.685   6.807  19.467  0.00  0.00    +0.000 A 
ATOM     26  C   UNL     1       3.313   6.059  18.466  0.00  0.00    +0.000 A 
ATOM     27  O   UNL     1       4.046   6.766  17.503  0.00  0.00    +0.000 OA
ATOM     28  C   UNL     1       4.803   6.108  16.546  0.00  0.00    +0.000 A 
ATOM     29  O   UNL     1       5.501   6.734  15.754  0.00  0.00    +0.000 OA
ENDBRANCH  16  24
ENDBRANCH   1  16
TORSDOF 5
ENDMDL
MODEL 6
REMARK VINA RESULT:      -8.3      1.155      1.665
REMARK  Name = 
REMARK  7 active torsions:
REMARK  status: ('A' for Active; 'I' for Inactive)
REMARK    1  A    between atoms: C_1  and  C_2
REMARK    2  A    between atoms: C_3  and  C_4
REMARK    3  A    between atoms: C_8  and  O_9
REMARK    4  A    between atoms: O_9  and  C_10
REMARK    5  A    between atoms: C_10  and  C_11
REMARK    6  A    between atoms: N_15  and  C_16
REMARK    7  A    between atoms: C_16  and  C_17
REMARK                            x       y       z     vdW  Elec       q    Type
REMARK                         _______ _______ _______ _____ _____    ______ ____
ROOT
ATOM      1  C   UNL     1       1.686   4.667  18.107  0.00  0.00    +0.000 C 
ENDROOT
BRANCH   1   2
ATOM      2  C   UNL     1       2.295   3.294  17.792  0.00  0.00    +0.000 C 
ATOM      3  C   UNL     1       2.211   2.328  18.980  0.00  0.00    +0.000 C 
ATOM      4  C   UNL     1       3.224   2.667  20.067  0.00  0.00    +0.000 C 
ATOM      5  C   UNL     1       4.636   2.907  19.514  0.00  0.00    +0.000 C 
ATOM      6  N   UNL     1       4.663   3.875  18.399  0.00  0.00    +0.000 NA
ATOM      7  C   UNL     1       3.756   3.436  17.322  0.00  0.00    +0.000 C 
BRANCH   6   8
ATOM      8  C   UNL     1       6.035   4.059  17.857  0.00  0.00    +0.000 C 
BRANCH   8   9
ATOM      9  C   UNL     1       6.574   5.472  18.004  0.00  0.00    +0.000 A 
ATOM     10  C   UNL     1       5.999   6.531  17.282  0.00  0.00    +0.000 A 
ATOM     11  C   UNL     1       6.610   7.786  17.256  0.00  0.00    +0.000 A 
ATOM     12  C   UNL     1       7.762   8.010  18.006  0.00  0.00    +0.000 A 
ATOM     13 CL   UNL     1       8.566   9.530  17.905  0.00  0.00    +0.000 Cl
ATOM     14  C   UNL     1       8.280   7.004  18.817  0.00  0.00    +0.000 A 
ATOM     15  C   UNL     1       7.692   5.735  18.811  0.00  0.00    +0.000 A 
ENDBRANCH   8   9
ENDBRANCH   6   8
ENDBRANCH   1   2
BRANCH   1  16
ATOM     16  O   UNL     1       2.714   5.668  18.190  0.00  0.00    +0.000 OA
BRANCH  16  24
ATOM     17  C   UNL     1       0.287  12.304  21.686  0.00  0.00    +0.000 C 
ATOM     18  C   UNL     1       0.656  11.003  21.025  0.00  0.00    +0.000 A 
ATOM     19  C   UNL     1       0.983  10.846  19.725  0.00  0.00    +0.000 A 
ATOM     20  C   UNL     1       0.987  11.949  18.697  0.00  0.00    +0.000 C 
ATOM     21  C   UNL     1       1.406   9.511  19.256  0.00  0.00    +0.000 A 
ATOM     22  C   UNL     1       1.872   9.274  17.960  0.00  0.00    +0.000 A 
ATOM     23  C   UNL     1       2.323   8.003  17.576  0.00  0.00    +0.000 A 
ATOM     24  C   UNL     1       2.295   6.936  18.477  0.00  0.00    +0.000 A 
ATOM     25  C   UNL     1       1.812   7.157  19.761  0.00  0.00    +0.000 A 
ATOM     26  C   UNL     1       1.387   8.434  20.141  0.00  0.00    +0.000 A 
ATOM     27  O   UNL     1       0.960   8.598  21.466  0.00  0.00    +0.000 OA
ATOM     28  C   UNL     1       0.638   9.848  21.970  0.00  0.00    +0.000 A 
ATOM     29  O   UNL     1       0.338   9.994  23.152  0.00  0.00    +0.000 OA
ENDBRANCH  16  24
ENDBRANCH   1  16
TORSDOF 5
ENDMDL
MODEL 7
REMARK VINA RESULT:      -8.3      1.535      2.311
REMARK  Name = 
REMARK  7 active torsions:
REMARK  status: ('A' for Active; 'I' for Inactive)
REMARK    1  A    between atoms: C_1  and  C_2
REMARK    2  A    between atoms: C_3  and  C_4
REMARK    3  A    between atoms: C_8  and  O_9
REMARK    4  A    between atoms: O_9  and  C_10
REMARK    5  A    between atoms: C_10  and  C_11
REMARK    6  A    between atoms: N_15  and  C_16
REMARK    7  A    between atoms: C_16  and  C_17
REMARK                            x       y       z     vdW  Elec       q    Type
REMARK                         _______ _______ _______ _____ _____    ______ ____
ROOT
ATOM      1  C   UNL     1       2.018   5.471  19.483  0.00  0.00    +0.000 C 
ENDROOT
BRANCH   1   2
ATOM      2  C   UNL     1       1.963   4.737  18.136  0.00  0.00    +0.000 C 
ATOM      3  C   UNL     1       1.560   3.265  18.286  0.00  0.00    +0.000 C 
ATOM      4  C   UNL     1       2.694   2.414  18.845  0.00  0.00    +0.000 C 
ATOM      5  C   UNL     1       4.031   2.660  18.134  0.00  0.00    +0.000 C 
ATOM      6  N   UNL     1       4.389   4.090  18.053  0.00  0.00    +0.000 NA
ATOM      7  C   UNL     1       3.309   4.848  17.395  0.00  0.00    +0.000 C 
BRANCH   6   8
ATOM      8  C   UNL     1       5.668   4.303  17.325  0.00  0.00    +0.000 C 
BRANCH   8   9
ATOM      9  C   UNL     1       6.368   5.606  17.672  0.00  0.00    +0.000 A 
ATOM     10  C   UNL     1       5.985   6.805  17.050  0.00  0.00    +0.000 A 
ATOM     11  C   UNL     1       6.749   7.964  17.210  0.00  0.00    +0.000 A 
ATOM     12  C   UNL     1       7.863   7.947  18.046  0.00  0.00    +0.000 A 
ATOM     13 CL   UNL     1       8.855   9.348  18.174  0.00  0.00    +0.000 Cl
ATOM     14  C   UNL     1       8.189   6.797  18.759  0.00  0.00    +0.000 A 
ATOM     15  C   UNL     1       7.448   5.627  18.568  0.00  0.00    +0.000 A 
ENDBRANCH   8   9
ENDBRANCH   6   8
ENDBRANCH   1   2
BRANCH   1  16
ATOM     16  O   UNL     1       2.539   6.800  19.313  0.00  0.00    +0.000 OA
BRANCH  16  24
ATOM     17  C   UNL     1      -1.849  13.219  20.607  0.00  0.00    +0.000 C 
ATOM     18  C   UNL     1      -0.931  12.053  20.355  0.00  0.00    +0.000 A 
ATOM     19  C   UNL     1      -0.586  11.113  21.259  0.00  0.00    +0.000 A 
ATOM     20  C   UNL     1      -1.028  11.099  22.701  0.00  0.00    +0.000 C 
ATOM     21  C   UNL     1       0.259   9.983  20.822  0.00  0.00    +0.000 A 
ATOM     22  C   UNL     1       0.574   8.904  21.652  0.00  0.00    +0.000 A 
ATOM     23  C   UNL     1       1.327   7.822  21.174  0.00  0.00    +0.000 A 
ATOM     24  C   UNL     1       1.801   7.809  19.861  0.00  0.00    +0.000 A 
ATOM     25  C   UNL     1       1.512   8.888  19.035  0.00  0.00    +0.000 A 
ATOM     26  C   UNL     1       0.740   9.952  19.513  0.00  0.00    +0.000 A 
ATOM     27  O   UNL     1       0.443  10.983  18.611  0.00  0.00    +0.000 OA
ATOM     28  C   UNL     1      -0.417  12.015  18.954  0.00  0.00    +0.000 A 
ATOM     29  O   UNL     1      -0.730  12.874  18.134  0.00  0.00    +0.000 OA
ENDBRANCH  16  24
ENDBRANCH   1  16
TORSDOF 5
ENDMDL
MODEL 8
REMARK VINA RESULT:      -8.2      1.665      2.539
REMARK  Name = 
REMARK  7 active torsions:
REMARK  status: ('A' for Active; 'I' for Inactive)
REMARK    1  A    between atoms: C_1  and  C_2
REMARK    2  A    between atoms: C_3  and  C_4
REMARK    3  A    between atoms: C_8  and  O_9
REMARK    4  A    between atoms: O_9  and  C_10
REMARK    5  A    between atoms: C_10  and  C_11
REMARK    6  A    between atoms: N_15  and  C_16
REMARK    7  A    between atoms: C_16  and  C_17
REMARK                            x       y       z     vdW  Elec       q    Type
REMARK                         _______ _______ _______ _____ _____    ______ ____
ROOT
ATOM      1  C   UNL     1       1.614   4.290  17.701  0.00  0.00    +0.000 C 
ENDROOT
BRANCH   1   2
ATOM      2  C   UNL     1       2.357   2.947  17.664  0.00  0.00    +0.000 C 
ATOM      3  C   UNL     1       2.329   2.224  19.016  0.00  0.00    +0.000 C 
ATOM      4  C   UNL     1       3.275   2.862  20.027  0.00  0.00    +0.000 C 
ATOM      5  C   UNL     1       4.673   3.126  19.452  0.00  0.00    +0.000 C 
ATOM      6  N   UNL     1       4.642   3.859  18.170  0.00  0.00    +0.000 NA
ATOM      7  C   UNL     1       3.811   3.136  17.190  0.00  0.00    +0.000 C 
BRANCH   6   8
ATOM      8  C   UNL     1       6.006   4.067  17.616  0.00  0.00    +0.000 C 
BRANCH   8   9
ATOM      9  C   UNL     1       6.562   5.463  17.845  0.00  0.00    +0.000 A 
ATOM     10  C   UNL     1       6.074   6.551  17.103  0.00  0.00    +0.000 A 
ATOM     11  C   UNL     1       6.712   7.792  17.161  0.00  0.00    +0.000 A 
ATOM     12  C   UNL     1       7.800   7.971  18.012  0.00  0.00    +0.000 A 
ATOM     13 CL   UNL     1       8.642   9.473  18.018  0.00  0.00    +0.000 Cl
ATOM     14  C   UNL     1       8.224   6.934  18.838  0.00  0.00    +0.000 A 
ATOM     15  C   UNL     1       7.611   5.680  18.751  0.00  0.00    +0.000 A 
ENDBRANCH   8   9
ENDBRANCH   6   8
ENDBRANCH   1   2
BRANCH   1  16
ATOM     16  O   UNL     1       2.541   5.374  17.873  0.00  0.00    +0.000 OA
BRANCH  16  24
ATOM     17  C   UNL     1       0.267  12.145  21.210  0.00  0.00    +0.000 C 
ATOM     18  C   UNL     1       0.795  10.888  20.572  0.00  0.00    +0.000 A 
ATOM     19  C   UNL     1       0.906   9.686  21.174  0.00  0.00    +0.000 A 
ATOM     20  C   UNL     1       0.563   9.409  22.616  0.00  0.00    +0.000 C 
ATOM     21  C   UNL     1       1.364   8.531  20.376  0.00  0.00    +0.000 A 
ATOM     22  C   UNL     1       1.402   7.227  20.878  0.00  0.00    +0.000 A 
ATOM     23  C   UNL     1       1.784   6.151  20.065  0.00  0.00    +0.000 A 
ATOM     24  C   UNL     1       2.157   6.361  18.736  0.00  0.00    +0.000 A 
ATOM     25  C   UNL     1       2.145   7.656  18.234  0.00  0.00    +0.000 A 
ATOM     26  C   UNL     1       1.740   8.720  19.047  0.00  0.00    +0.000 A 
ATOM     27  O   UNL     1       1.701   9.993  18.461  0.00  0.00    +0.000 OA
ATOM     28  C   UNL     1       1.196  11.087  19.148  0.00  0.00    +0.000 A 
ATOM     29  O   UNL     1       1.096  12.183  18.602  0.00  0.00    +0.000 OA
ENDBRANCH  16  24
ENDBRANCH   1  16
TORSDOF 5
ENDMDL
MODEL 9
REMARK VINA RESULT:      -8.2      2.239      4.071
REMARK  Name = 
REMARK  7 active torsions:
REMARK  status: ('A' for Active; 'I' for Inactive)
REMARK    1  A    between atoms: C_1  and  C_2
REMARK    2  A    between atoms: C_3  and  C_4
REMARK    3  A    between atoms: C_8  and  O_9
REMARK    4  A    between atoms: O_9  and  C_10
REMARK    5  A    between atoms: C_10  and  C_11
REMARK    6  A    between atoms: N_15  and  C_16
REMARK    7  A    between atoms: C_16  and  C_17
REMARK                            x       y       z     vdW  Elec       q    Type
REMARK                         _______ _______ _______ _____ _____    ______ ____
ROOT
ATOM      1  C   UNL     1       3.640   7.113  17.504  0.00  0.00    +0.000 C 
ENDROOT
BRANCH   1   2
ATOM      2  C   UNL     1       5.013   6.442  17.652  0.00  0.00    +0.000 C 
ATOM      3  C   UNL     1       5.908   6.660  16.426  0.00  0.00    +0.000 C 
ATOM      4  C   UNL     1       5.478   5.803  15.241  0.00  0.00    +0.000 C 
ATOM      5  C   UNL     1       5.232   4.337  15.623  0.00  0.00    +0.000 C 
ATOM      6  N   UNL     1       4.333   4.185  16.784  0.00  0.00    +0.000 NA
ATOM      7  C   UNL     1       4.859   4.936  17.938  0.00  0.00    +0.000 C 
BRANCH   6   8
ATOM      8  C   UNL     1       4.143   2.758  17.157  0.00  0.00    +0.000 C 
BRANCH   8   9
ATOM      9  C   UNL     1       3.350   2.552  18.437  0.00  0.00    +0.000 A 
ATOM     10  C   UNL     1       1.951   2.676  18.432  0.00  0.00    +0.000 A 
ATOM     11  C   UNL     1       1.237   2.689  19.632  0.00  0.00    +0.000 A 
ATOM     12  C   UNL     1       1.908   2.508  20.839  0.00  0.00    +0.000 A 
ATOM     13 CL   UNL     1       1.041   2.611  22.323  0.00  0.00    +0.000 Cl
ATOM     14  C   UNL     1       3.280   2.269  20.851  0.00  0.00    +0.000 A 
ATOM     15  C   UNL     1       4.001   2.297  19.654  0.00  0.00    +0.000 A 
ENDBRANCH   8   9
ENDBRANCH   6   8
ENDBRANCH   1   2
BRANCH   1  16
ATOM     16  O   UNL     1       2.934   7.098  18.755  0.00  0.00    +0.000 OA
BRANCH  16  24
ATOM     17  C   UNL     1      -1.884  12.563  21.767  0.00  0.00    +0.000 C 
ATOM     18  C   UNL     1      -1.034  11.451  21.212  0.00  0.00    +0.000 A 
ATOM     19  C   UNL     1      -0.740  11.261  19.909  0.00  0.00    +0.000 A 
ATOM     20  C   UNL     1      -1.257  12.110  18.775  0.00  0.00    +0.000 C 
ATOM     21  C   UNL     1       0.182  10.168  19.541  0.00  0.00    +0.000 A 
ATOM     22  C   UNL     1       0.635   9.964  18.235  0.00  0.00    +0.000 A 
ATOM     23  C   UNL     1       1.561   8.951  17.943  0.00  0.00    +0.000 A 
ATOM     24  C   UNL     1       2.034   8.107  18.949  0.00  0.00    +0.000 A 
ATOM     25  C   UNL     1       1.571   8.288  20.246  0.00  0.00    +0.000 A 
ATOM     26  C   UNL     1       0.666   9.315  20.533  0.00  0.00    +0.000 A 
ATOM     27  O   UNL     1       0.281   9.474  21.871  0.00  0.00    +0.000 OA
ATOM     28  C   UNL     1      -0.512  10.538  22.271  0.00  0.00    +0.000 A 
ATOM     29  O   UNL     1      -0.783  10.712  23.456  0.00  0.00    +0.000 OA
ENDBRANCH  16  24
ENDBRANCH   1  16
TORSDOF 5
ENDMDL
