MODEL 1
REMARK VINA RESULT:      -8.1      0.000      0.000
REMARK  Name = 
REMARK  10 active torsions:
REMARK  status: ('A' for Active; 'I' for Inactive)
REMARK    1  A    between atoms: C_1  and  O_2
REMARK    2  A    between atoms: O_2  and  C_3
REMARK    3  A    between atoms: C_5  and  C_6
REMARK    4  A    between atoms: C_6  and  C_8
REMARK    5  A    between atoms: C_10  and  C_11
REMARK    6  A    between atoms: C_14  and  C_15
REMARK    7  A    between atoms: C_21  and  O_22
REMARK    8  A    between atoms: O_22  and  C_23
REMARK    9  A    between atoms: C_24  and  O_25
REMARK   10  A    between atoms: O_25  and  C_26
REMARK                            x       y       z     vdW  Elec       q    Type
REMARK                         _______ _______ _______ _____ _____    ______ ____
ROOT
ATOM      1  C   UNL     1       6.302   5.999  16.508  0.00  0.00    +0.000 C 
ATOM      2  O   UNL     1       6.645   5.586  15.401  0.00  0.00    +0.000 OA
ENDROOT
BRANCH   1   5
ATOM      3  C   UNL     1       2.879   6.212  18.108  0.00  0.00    +0.000 A 
ATOM      4  C   UNL     1       4.168   6.550  17.664  0.00  0.00    +0.000 A 
ATOM      5  C   UNL     1       4.968   5.601  17.029  0.00  0.00    +0.000 A 
ATOM      6  C   UNL     1       4.519   4.288  16.931  0.00  0.00    +0.000 A 
ATOM      7  C   UNL     1       3.274   3.909  17.447  0.00  0.00    +0.000 A 
ATOM      8  C   UNL     1       2.429   4.872  18.043  0.00  0.00    +0.000 A 
BRANCH   3  10
ATOM      9  C   UNL     1       2.147   8.472  18.046  0.00  0.00    +0.000 C 
ATOM     10  O   UNL     1       2.070   7.180  18.651  0.00  0.00    +0.000 OA
ENDBRANCH   3  10
BRANCH   7  11
ATOM     11  O   UNL     1       3.066   2.566  17.261  0.00  0.00    +0.000 OA
ATOM     12  C   UNL     1       3.584   1.632  18.193  0.00  0.00    +0.000 C 
ENDBRANCH   7  11
BRANCH   8  13
ATOM     13  O   UNL     1       1.240   4.397  18.523  0.00  0.00    +0.000 OA
ATOM     14  C   UNL     1       1.125   3.913  19.849  0.00  0.00    +0.000 C 
ENDBRANCH   8  13
ENDBRANCH   1   5
BRANCH   1  15
ATOM     15  C   UNL     1       7.135   6.869  17.298  0.00  0.00    +0.000 A 
ATOM     16  N   UNL     1       7.349   8.158  17.119  0.00  0.00    +0.000 NA
ATOM     17  C   UNL     1       8.203   8.499  18.150  0.00  0.00    +0.000 A 
ATOM     18  N   UNL     1       8.536   7.460  18.935  0.00  0.00    +0.000 NA
ATOM     19  N   UNL     1       7.821   6.461  18.402  0.00  0.00    +0.000 N 
ATOM     20  H   UNL     1       7.862   5.532  18.806  0.00  0.00    +0.000 HD
BRANCH  17  21
ATOM     21  C   UNL     1       8.676   9.863  18.371  0.00  0.00    +0.000 A 
ATOM     22  C   UNL     1       8.296  10.907  17.516  0.00  0.00    +0.000 A 
ATOM     23  C   UNL     1       8.720  12.221  17.762  0.00  0.00    +0.000 A 
ATOM     24  C   UNL     1       9.537  12.511  18.860  0.00  0.00    +0.000 A 
ATOM     25  C   UNL     1       9.986  13.912  19.154  0.00  0.00    +0.000 C 
ATOM     26  C   UNL     1       9.929  11.469  19.707  0.00  0.00    +0.000 A 
ATOM     27  C   UNL     1       9.502  10.157  19.464  0.00  0.00    +0.000 A 
ENDBRANCH  17  21
ENDBRANCH   1  15
TORSDOF 6
ENDMDL
MODEL 2
REMARK VINA RESULT:      -8.0      0.207      2.714
REMARK  Name = 
REMARK  10 active torsions:
REMARK  status: ('A' for Active; 'I' for Inactive)
REMARK    1  A    between atoms: C_1  and  O_2
REMARK    2  A    between atoms: O_2  and  C_3
REMARK    3  A    between atoms: C_5  and  C_6
REMARK    4  A    between atoms: C_6  and  C_8
REMARK    5  A    between atoms: C_10  and  C_11
REMARK    6  A    between atoms: C_14  and  C_15
REMARK    7  A    between atoms: C_21  and  O_22
REMARK    8  A    between atoms: O_22  and  C_23
REMARK    9  A    between atoms: C_24  and  O_25
REMARK   10  A    between atoms: O_25  and  C_26
REMARK                            x       y       z     vdW  Elec       q    Type
REMARK                         _______ _______ _______ _____ _____    ______ ____
ROOT
ATOM      1  C   UNL     1       6.511   5.896  16.582  0.00  0.00    +0.000 C 
ATOM      2  O   UNL     1       6.913   5.460  15.504  0.00  0.00    +0.000 OA
ENDROOT
BRANCH   1   5
ATOM      3  C   UNL     1       3.511   3.727  17.368  0.00  0.00    +0.000 A 
ATOM      4  C   UNL     1       4.750   4.161  16.869  0.00  0.00    +0.000 A 
ATOM      5  C   UNL     1       5.167   5.477  17.059  0.00  0.00    +0.000 A 
ATOM      6  C   UNL     1       4.299   6.387  17.655  0.00  0.00    +0.000 A 
ATOM      7  C   UNL     1       3.023   5.998  18.078  0.00  0.00    +0.000 A 
ATOM      8  C   UNL     1       2.608   4.654  17.944  0.00  0.00    +0.000 A 
BRANCH   3  10
ATOM      9  C   UNL     1       3.510   1.563  18.347  0.00  0.00    +0.000 C 
ATOM     10  O   UNL     1       3.153   2.407  17.251  0.00  0.00    +0.000 OA
ENDBRANCH   3  10
BRANCH   7  11
ATOM     11  O   UNL     1       2.344   7.068  18.602  0.00  0.00    +0.000 OA
ATOM     12  C   UNL     1       2.207   8.260  17.849  0.00  0.00    +0.000 C 
ENDBRANCH   7  11
BRANCH   8  13
ATOM     13  O   UNL     1       1.341   4.380  18.379  0.00  0.00    +0.000 OA
ATOM     14  C   UNL     1       1.106   3.879  19.682  0.00  0.00    +0.000 C 
ENDBRANCH   8  13
ENDBRANCH   1   5
BRANCH   1  15
ATOM     15  C   UNL     1       7.285   6.813  17.380  0.00  0.00    +0.000 A 
ATOM     16  N   UNL     1       7.466   8.103  17.174  0.00  0.00    +0.000 NA
ATOM     17  C   UNL     1       8.269   8.497  18.227  0.00  0.00    +0.000 A 
ATOM     18  N   UNL     1       8.604   7.490  19.051  0.00  0.00    +0.000 NA
ATOM     19  N   UNL     1       7.941   6.455  18.519  0.00  0.00    +0.000 N 
ATOM     20  H   UNL     1       7.995   5.539  18.950  0.00  0.00    +0.000 HD
BRANCH  17  21
ATOM     21  C   UNL     1       8.692   9.881  18.428  0.00  0.00    +0.000 A 
ATOM     22  C   UNL     1       9.547  10.230  19.483  0.00  0.00    +0.000 A 
ATOM     23  C   UNL     1       9.982  11.553  19.641  0.00  0.00    +0.000 A 
ATOM     24  C   UNL     1       9.563  12.551  18.753  0.00  0.00    +0.000 A 
ATOM     25  C   UNL     1      10.031  13.969  18.892  0.00  0.00    +0.000 C 
ATOM     26  C   UNL     1       8.698  12.208  17.708  0.00  0.00    +0.000 A 
ATOM     27  C   UNL     1       8.268  10.885  17.547  0.00  0.00    +0.000 A 
ENDBRANCH  17  21
ENDBRANCH   1  15
TORSDOF 6
ENDMDL
MODEL 3
REMARK VINA RESULT:      -7.8      4.710      7.106
REMARK  Name = 
REMARK  10 active torsions:
REMARK  status: ('A' for Active; 'I' for Inactive)
REMARK    1  A    between atoms: C_1  and  O_2
REMARK    2  A    between atoms: O_2  and  C_3
REMARK    3  A    between atoms: C_5  and  C_6
REMARK    4  A    between atoms: C_6  and  C_8
REMARK    5  A    between atoms: C_10  and  C_11
REMARK    6  A    between atoms: C_14  and  C_15
REMARK    7  A    between atoms: C_21  and  O_22
REMARK    8  A    between atoms: O_22  and  C_23
REMARK    9  A    between atoms: C_24  and  O_25
REMARK   10  A    between atoms: O_25  and  C_26
REMARK                            x       y       z     vdW  Elec       q    Type
REMARK                         _______ _______ _______ _____ _____    ______ ____
ROOT
ATOM      1  C   UNL     1       2.542   7.756  18.249  0.00  0.00    +0.000 C 
ATOM      2  O   UNL     1       2.769   8.453  17.261  0.00  0.00    +0.000 OA
ENDROOT
BRANCH   1   5
ATOM      3  C   UNL     1       4.698   4.648  18.386  0.00  0.00    +0.000 A 
ATOM      4  C   UNL     1       4.297   5.993  18.351  0.00  0.00    +0.000 A 
ATOM      5  C   UNL     1       2.951   6.326  18.215  0.00  0.00    +0.000 A 
ATOM      6  C   UNL     1       2.017   5.316  18.010  0.00  0.00    +0.000 A 
ATOM      7  C   UNL     1       2.405   3.973  17.951  0.00  0.00    +0.000 A 
ATOM      8  C   UNL     1       3.759   3.616  18.143  0.00  0.00    +0.000 A 
BRANCH   3  10
ATOM      9  C   UNL     1       6.929   4.701  17.572  0.00  0.00    +0.000 C 
ATOM     10  O   UNL     1       6.016   4.335  18.608  0.00  0.00    +0.000 OA
ENDBRANCH   3  10
BRANCH   7  11
ATOM     11  O   UNL     1       1.321   3.168  17.710  0.00  0.00    +0.000 OA
ATOM     12  C   UNL     1       0.675   2.509  18.785  0.00  0.00    +0.000 C 
ENDBRANCH   7  11
BRANCH   8  13
ATOM     13  O   UNL     1       4.035   2.280  18.057  0.00  0.00    +0.000 OA
ATOM     14  C   UNL     1       4.117   1.471  19.217  0.00  0.00    +0.000 C 
ENDBRANCH   8  13
ENDBRANCH   1   5
BRANCH   1  15
ATOM     15  C   UNL     1       1.876   8.269  19.418  0.00  0.00    +0.000 A 
ATOM     16  N   UNL     1       1.067   9.308  19.492  0.00  0.00    +0.000 NA
ATOM     17  C   UNL     1       0.703   9.352  20.824  0.00  0.00    +0.000 A 
ATOM     18  N   UNL     1       1.281   8.394  21.568  0.00  0.00    +0.000 NA
ATOM     19  N   UNL     1       1.978   7.706  20.654  0.00  0.00    +0.000 N 
ATOM     20  H   UNL     1       2.519   6.894  20.930  0.00  0.00    +0.000 HD
BRANCH  17  21
ATOM     21  C   UNL     1      -0.235  10.335  21.359  0.00  0.00    +0.000 A 
ATOM     22  C   UNL     1      -0.806  11.313  20.533  0.00  0.00    +0.000 A 
ATOM     23  C   UNL     1      -1.739  12.225  21.047  0.00  0.00    +0.000 A 
ATOM     24  C   UNL     1      -2.110  12.179  22.395  0.00  0.00    +0.000 A 
ATOM     25  C   UNL     1      -3.121  13.132  22.962  0.00  0.00    +0.000 C 
ATOM     26  C   UNL     1      -1.531  11.213  23.225  0.00  0.00    +0.000 A 
ATOM     27  C   UNL     1      -0.603  10.299  22.710  0.00  0.00    +0.000 A 
ENDBRANCH  17  21
ENDBRANCH   1  15
TORSDOF 6
ENDMDL
MODEL 4
REMARK VINA RESULT:      -7.7      0.704      2.563
REMARK  Name = 
REMARK  10 active torsions:
REMARK  status: ('A' for Active; 'I' for Inactive)
REMARK    1  A    between atoms: C_1  and  O_2
REMARK    2  A    between atoms: O_2  and  C_3
REMARK    3  A    between atoms: C_5  and  C_6
REMARK    4  A    between atoms: C_6  and  C_8
REMARK    5  A    between atoms: C_10  and  C_11
REMARK    6  A    between atoms: C_14  and  C_15
REMARK    7  A    between atoms: C_21  and  O_22
REMARK    8  A    between atoms: O_22  and  C_23
REMARK    9  A    between atoms: C_24  and  O_25
REMARK   10  A    between atoms: O_25  and  C_26
REMARK                            x       y       z     vdW  Elec       q    Type
REMARK                         _______ _______ _______ _____ _____    ______ ____
ROOT
ATOM      1  C   UNL     1       6.552   6.263  16.804  0.00  0.00    +0.000 C 
ATOM      2  O   UNL     1       6.850   5.857  15.682  0.00  0.00    +0.000 OA
ENDROOT
BRANCH   1   5
ATOM      3  C   UNL     1       4.019   4.012  18.489  0.00  0.00    +0.000 A 
ATOM      4  C   UNL     1       5.184   4.466  17.850  0.00  0.00    +0.000 A 
ATOM      5  C   UNL     1       5.283   5.787  17.416  0.00  0.00    +0.000 A 
ATOM      6  C   UNL     1       4.178   6.624  17.526  0.00  0.00    +0.000 A 
ATOM      7  C   UNL     1       2.976   6.166  18.077  0.00  0.00    +0.000 A 
ATOM      8  C   UNL     1       2.879   4.847  18.573  0.00  0.00    +0.000 A 
BRANCH   3  10
ATOM      9  C   UNL     1       3.443   1.738  18.111  0.00  0.00    +0.000 C 
ATOM     10  O   UNL     1       3.969   2.734  18.989  0.00  0.00    +0.000 OA
ENDBRANCH   3  10
BRANCH   7  11
ATOM     11  O   UNL     1       2.027   7.157  18.051  0.00  0.00    +0.000 OA
ATOM     12  C   UNL     1       2.418   8.509  17.891  0.00  0.00    +0.000 C 
ENDBRANCH   7  11
BRANCH   8  13
ATOM     13  O   UNL     1       1.659   4.496  19.083  0.00  0.00    +0.000 OA
ATOM     14  C   UNL     1       1.403   4.545  20.474  0.00  0.00    +0.000 C 
ENDBRANCH   8  13
ENDBRANCH   1   5
BRANCH   1  15
ATOM     15  C   UNL     1       7.372   7.200  17.528  0.00  0.00    +0.000 A 
ATOM     16  N   UNL     1       7.547   8.482  17.272  0.00  0.00    +0.000 NA
ATOM     17  C   UNL     1       8.409   8.905  18.265  0.00  0.00    +0.000 A 
ATOM     18  N   UNL     1       8.784   7.923  19.102  0.00  0.00    +0.000 NA
ATOM     19  N   UNL     1       8.089   6.875  18.640  0.00  0.00    +0.000 N 
ATOM     20  H   UNL     1       8.163   5.973  19.096  0.00  0.00    +0.000 HD
BRANCH  17  21
ATOM     21  C   UNL     1       8.847  10.292  18.399  0.00  0.00    +0.000 A 
ATOM     22  C   UNL     1       8.325  11.298  17.573  0.00  0.00    +0.000 A 
ATOM     23  C   UNL     1       8.719  12.633  17.739  0.00  0.00    +0.000 A 
ATOM     24  C   UNL     1       9.647  12.984  18.726  0.00  0.00    +0.000 A 
ATOM     25  C   UNL     1      10.069  14.408  18.934  0.00  0.00    +0.000 C 
ATOM     26  C   UNL     1      10.180  11.980  19.542  0.00  0.00    +0.000 A 
ATOM     27  C   UNL     1       9.782  10.647  19.380  0.00  0.00    +0.000 A 
ENDBRANCH  17  21
ENDBRANCH   1  15
TORSDOF 6
ENDMDL
MODEL 5
REMARK VINA RESULT:      -7.7      1.755      2.551
REMARK  Name = 
REMARK  10 active torsions:
REMARK  status: ('A' for Active; 'I' for Inactive)
REMARK    1  A    between atoms: C_1  and  O_2
REMARK    2  A    between atoms: O_2  and  C_3
REMARK    3  A    between atoms: C_5  and  C_6
REMARK    4  A    between atoms: C_6  and  C_8
REMARK    5  A    between atoms: C_10  and  C_11
REMARK    6  A    between atoms: C_14  and  C_15
REMARK    7  A    between atoms: C_21  and  O_22
REMARK    8  A    between atoms: O_22  and  C_23
REMARK    9  A    between atoms: C_24  and  O_25
REMARK   10  A    between atoms: O_25  and  C_26
REMARK                            x       y       z     vdW  Elec       q    Type
REMARK                         _______ _______ _______ _____ _____    ______ ____
ROOT
ATOM      1  C   UNL     1       7.737   5.877  18.843  0.00  0.00    +0.000 C 
ATOM      2  O   UNL     1       8.537   5.174  19.460  0.00  0.00    +0.000 OA
ENDROOT
BRANCH   1   5
ATOM      3  C   UNL     1       4.121   4.757  18.846  0.00  0.00    +0.000 A 
ATOM      4  C   UNL     1       5.360   5.269  19.266  0.00  0.00    +0.000 A 
ATOM      5  C   UNL     1       6.454   5.269  18.402  0.00  0.00    +0.000 A 
ATOM      6  C   UNL     1       6.336   4.662  17.155  0.00  0.00    +0.000 A 
ATOM      7  C   UNL     1       5.137   4.066  16.751  0.00  0.00    +0.000 A 
ATOM      8  C   UNL     1       4.003   4.108  17.594  0.00  0.00    +0.000 A 
BRANCH   3  10
ATOM      9  C   UNL     1       2.369   6.110  19.709  0.00  0.00    +0.000 C 
ATOM     10  O   UNL     1       3.032   4.844  19.677  0.00  0.00    +0.000 OA
ENDBRANCH   3  10
BRANCH   7  11
ATOM     11  O   UNL     1       5.272   3.510  15.505  0.00  0.00    +0.000 OA
ATOM     12  C   UNL     1       5.677   4.313  14.410  0.00  0.00    +0.000 C 
ENDBRANCH   7  11
BRANCH   8  13
ATOM     13  O   UNL     1       2.884   3.488  17.110  0.00  0.00    +0.000 OA
ATOM     14  C   UNL     1       2.419   2.273  17.668  0.00  0.00    +0.000 C 
ENDBRANCH   8  13
ENDBRANCH   1   5
BRANCH   1  15
ATOM     15  C   UNL     1       8.012   7.252  18.516  0.00  0.00    +0.000 A 
ATOM     16  N   UNL     1       8.722   8.118  19.212  0.00  0.00    +0.000 NA
ATOM     17  C   UNL     1       8.678   9.271  18.452  0.00  0.00    +0.000 A 
ATOM     18  N   UNL     1       7.947   9.146  17.331  0.00  0.00    +0.000 NA
ATOM     19  N   UNL     1       7.575   7.860  17.377  0.00  0.00    +0.000 N 
ATOM     20  H   UNL     1       7.009   7.465  16.634  0.00  0.00    +0.000 HD
BRANCH  17  21
ATOM     21  C   UNL     1       9.380  10.496  18.826  0.00  0.00    +0.000 A 
ATOM     22  C   UNL     1       9.534  10.858  20.172  0.00  0.00    +0.000 A 
ATOM     23  C   UNL     1      10.248  12.013  20.523  0.00  0.00    +0.000 A 
ATOM     24  C   UNL     1      10.811  12.829  19.535  0.00  0.00    +0.000 A 
ATOM     25  C   UNL     1      11.594  14.059  19.888  0.00  0.00    +0.000 C 
ATOM     26  C   UNL     1      10.646  12.478  18.191  0.00  0.00    +0.000 A 
ATOM     27  C   UNL     1       9.938  11.321  17.841  0.00  0.00    +0.000 A 
ENDBRANCH  17  21
ENDBRANCH   1  15
TORSDOF 6
ENDMDL
MODEL 6
REMARK VINA RESULT:      -7.6      4.450      7.169
REMARK  Name = 
REMARK  10 active torsions:
REMARK  status: ('A' for Active; 'I' for Inactive)
REMARK    1  A    between atoms: C_1  and  O_2
REMARK    2  A    between atoms: O_2  and  C_3
REMARK    3  A    between atoms: C_5  and  C_6
REMARK    4  A    between atoms: C_6  and  C_8
REMARK    5  A    between atoms: C_10  and  C_11
REMARK    6  A    between atoms: C_14  and  C_15
REMARK    7  A    between atoms: C_21  and  O_22
REMARK    8  A    between atoms: O_22  and  C_23
REMARK    9  A    between atoms: C_24  and  O_25
REMARK   10  A    between atoms: O_25  and  C_26
REMARK                            x       y       z     vdW  Elec       q    Type
REMARK                         _______ _______ _______ _____ _____    ______ ____
ROOT
ATOM      1  C   UNL     1       2.553   7.752  18.243  0.00  0.00    +0.000 C 
ATOM      2  O   UNL     1       2.788   8.451  17.259  0.00  0.00    +0.000 OA
ENDROOT
BRANCH   1   5
ATOM      3  C   UNL     1       2.339   3.984  17.952  0.00  0.00    +0.000 A 
ATOM      4  C   UNL     1       1.978   5.338  18.052  0.00  0.00    +0.000 A 
ATOM      5  C   UNL     1       2.953   6.320  18.208  0.00  0.00    +0.000 A 
ATOM      6  C   UNL     1       4.282   5.941  18.369  0.00  0.00    +0.000 A 
ATOM      7  C   UNL     1       4.655   4.592  18.363  0.00  0.00    +0.000 A 
ATOM      8  C   UNL     1       3.684   3.588  18.150  0.00  0.00    +0.000 A 
BRANCH   3  10
ATOM      9  C   UNL     1       0.672   2.553  18.857  0.00  0.00    +0.000 C 
ATOM     10  O   UNL     1       1.375   3.037  17.711  0.00  0.00    +0.000 OA
ENDBRANCH   3  10
BRANCH   7  11
ATOM     11  O   UNL     1       6.005   4.465  18.570  0.00  0.00    +0.000 OA
ATOM     12  C   UNL     1       6.710   5.464  19.285  0.00  0.00    +0.000 C 
ENDBRANCH   7  11
BRANCH   8  13
ATOM     13  O   UNL     1       4.149   2.302  18.172  0.00  0.00    +0.000 OA
ATOM     14  C   UNL     1       4.209   1.564  19.379  0.00  0.00    +0.000 C 
ENDBRANCH   8  13
ENDBRANCH   1   5
BRANCH   1  15
ATOM     15  C   UNL     1       1.883   8.265  19.411  0.00  0.00    +0.000 A 
ATOM     16  N   UNL     1       1.076   9.305  19.483  0.00  0.00    +0.000 NA
ATOM     17  C   UNL     1       0.708   9.349  20.814  0.00  0.00    +0.000 A 
ATOM     18  N   UNL     1       1.281   8.389  21.559  0.00  0.00    +0.000 NA
ATOM     19  N   UNL     1       1.980   7.701  20.647  0.00  0.00    +0.000 N 
ATOM     20  H   UNL     1       2.519   6.888  20.924  0.00  0.00    +0.000 HD
BRANCH  17  21
ATOM     21  C   UNL     1      -0.230  10.334  21.347  0.00  0.00    +0.000 A 
ATOM     22  C   UNL     1      -0.806  11.306  20.517  0.00  0.00    +0.000 A 
ATOM     23  C   UNL     1      -1.739  12.219  21.029  0.00  0.00    +0.000 A 
ATOM     24  C   UNL     1      -2.106  12.180  22.378  0.00  0.00    +0.000 A 
ATOM     25  C   UNL     1      -3.116  13.134  22.944  0.00  0.00    +0.000 C 
ATOM     26  C   UNL     1      -1.522  11.220  23.212  0.00  0.00    +0.000 A 
ATOM     27  C   UNL     1      -0.594  10.305  22.699  0.00  0.00    +0.000 A 
ENDBRANCH  17  21
ENDBRANCH   1  15
TORSDOF 6
ENDMDL
MODEL 7
REMARK VINA RESULT:      -7.6      1.419      1.789
REMARK  Name = 
REMARK  10 active torsions:
REMARK  status: ('A' for Active; 'I' for Inactive)
REMARK    1  A    between atoms: C_1  and  O_2
REMARK    2  A    between atoms: O_2  and  C_3
REMARK    3  A    between atoms: C_5  and  C_6
REMARK    4  A    between atoms: C_6  and  C_8
REMARK    5  A    between atoms: C_10  and  C_11
REMARK    6  A    between atoms: C_14  and  C_15
REMARK    7  A    between atoms: C_21  and  O_22
REMARK    8  A    between atoms: O_22  and  C_23
REMARK    9  A    between atoms: C_24  and  O_25
REMARK   10  A    between atoms: O_25  and  C_26
REMARK                            x       y       z     vdW  Elec       q    Type
REMARK                         _______ _______ _______ _____ _____    ______ ____
ROOT
ATOM      1  C   UNL     1       7.187   5.523  18.339  0.00  0.00    +0.000 C 
ATOM      2  O   UNL     1       8.009   4.608  18.384  0.00  0.00    +0.000 OA
ENDROOT
BRANCH   1   5
ATOM      3  C   UNL     1       3.419   5.876  18.409  0.00  0.00    +0.000 A 
ATOM      4  C   UNL     1       4.787   6.182  18.320  0.00  0.00    +0.000 A 
ATOM      5  C   UNL     1       5.747   5.190  18.505  0.00  0.00    +0.000 A 
ATOM      6  C   UNL     1       5.343   3.914  18.883  0.00  0.00    +0.000 A 
ATOM      7  C   UNL     1       3.989   3.608  19.066  0.00  0.00    +0.000 A 
ATOM      8  C   UNL     1       3.001   4.590  18.826  0.00  0.00    +0.000 A 
BRANCH   3  10
ATOM      9  C   UNL     1       2.166   7.726  19.214  0.00  0.00    +0.000 C 
ATOM     10  O   UNL     1       2.485   6.844  18.136  0.00  0.00    +0.000 OA
ENDBRANCH   3  10
BRANCH   7  11
ATOM     11  O   UNL     1       3.840   2.305  19.465  0.00  0.00    +0.000 OA
ATOM     12  C   UNL     1       3.560   1.297  18.509  0.00  0.00    +0.000 C 
ENDBRANCH   7  11
BRANCH   8  13
ATOM     13  O   UNL     1       1.710   4.193  19.043  0.00  0.00    +0.000 OA
ATOM     14  C   UNL     1       1.146   4.206  20.341  0.00  0.00    +0.000 C 
ENDBRANCH   8  13
ENDBRANCH   1   5
BRANCH   1  15
ATOM     15  C   UNL     1       7.569   6.892  18.107  0.00  0.00    +0.000 A 
ATOM     16  N   UNL     1       8.309   7.663  18.880  0.00  0.00    +0.000 NA
ATOM     17  C   UNL     1       8.375   8.859  18.191  0.00  0.00    +0.000 A 
ATOM     18  N   UNL     1       7.681   8.852  17.040  0.00  0.00    +0.000 NA
ATOM     19  N   UNL     1       7.220   7.595  16.993  0.00  0.00    +0.000 N 
ATOM     20  H   UNL     1       6.659   7.286  16.208  0.00  0.00    +0.000 HD
BRANCH  17  21
ATOM     21  C   UNL     1       9.144  10.007  18.665  0.00  0.00    +0.000 A 
ATOM     22  C   UNL     1       9.249  10.291  20.034  0.00  0.00    +0.000 A 
ATOM     23  C   UNL     1      10.025  11.369  20.481  0.00  0.00    +0.000 A 
ATOM     24  C   UNL     1      10.702  12.185  19.568  0.00  0.00    +0.000 A 
ATOM     25  C   UNL     1      11.555  13.332  20.025  0.00  0.00    +0.000 C 
ATOM     26  C   UNL     1      10.588  11.912  18.201  0.00  0.00    +0.000 A 
ATOM     27  C   UNL     1       9.817  10.832  17.754  0.00  0.00    +0.000 A 
ENDBRANCH  17  21
ENDBRANCH   1  15
TORSDOF 6
ENDMDL
MODEL 8
REMARK VINA RESULT:      -7.6      1.769      3.044
REMARK  Name = 
REMARK  10 active torsions:
REMARK  status: ('A' for Active; 'I' for Inactive)
REMARK    1  A    between atoms: C_1  and  O_2
REMARK    2  A    between atoms: O_2  and  C_3
REMARK    3  A    between atoms: C_5  and  C_6
REMARK    4  A    between atoms: C_6  and  C_8
REMARK    5  A    between atoms: C_10  and  C_11
REMARK    6  A    between atoms: C_14  and  C_15
REMARK    7  A    between atoms: C_21  and  O_22
REMARK    8  A    between atoms: O_22  and  C_23
REMARK    9  A    between atoms: C_24  and  O_25
REMARK   10  A    between atoms: O_25  and  C_26
REMARK                            x       y       z     vdW  Elec       q    Type
REMARK                         _______ _______ _______ _____ _____    ______ ____
ROOT
ATOM      1  C   UNL     1       7.749   5.861  18.803  0.00  0.00    +0.000 C 
ATOM      2  O   UNL     1       8.558   5.151  19.400  0.00  0.00    +0.000 OA
ENDROOT
BRANCH   1   5
ATOM      3  C   UNL     1       5.134   4.162  16.658  0.00  0.00    +0.000 A 
ATOM      4  C   UNL     1       6.321   4.793  17.067  0.00  0.00    +0.000 A 
ATOM      5  C   UNL     1       6.460   5.258  18.374  0.00  0.00    +0.000 A 
ATOM      6  C   UNL     1       5.375   5.186  19.241  0.00  0.00    +0.000 A 
ATOM      7  C   UNL     1       4.152   4.644  18.827  0.00  0.00    +0.000 A 
ATOM      8  C   UNL     1       4.014   4.117  17.523  0.00  0.00    +0.000 A 
BRANCH   3  10
ATOM      9  C   UNL     1       5.945   4.170  14.425  0.00  0.00    +0.000 C 
ATOM     10  O   UNL     1       5.045   3.631  15.395  0.00  0.00    +0.000 OA
ENDBRANCH   3  10
BRANCH   7  11
ATOM     11  O   UNL     1       3.229   4.710  19.839  0.00  0.00    +0.000 OA
ATOM     12  C   UNL     1       2.363   5.826  19.937  0.00  0.00    +0.000 C 
ENDBRANCH   7  11
BRANCH   8  13
ATOM     13  O   UNL     1       2.779   3.619  17.215  0.00  0.00    +0.000 OA
ATOM     14  C   UNL     1       2.407   2.302  17.579  0.00  0.00    +0.000 C 
ENDBRANCH   8  13
ENDBRANCH   1   5
BRANCH   1  15
ATOM     15  C   UNL     1       8.020   7.240  18.487  0.00  0.00    +0.000 A 
ATOM     16  N   UNL     1       8.717   8.106  19.196  0.00  0.00    +0.000 NA
ATOM     17  C   UNL     1       8.675   9.263  18.442  0.00  0.00    +0.000 A 
ATOM     18  N   UNL     1       7.956   9.140  17.313  0.00  0.00    +0.000 NA
ATOM     19  N   UNL     1       7.592   7.851  17.347  0.00  0.00    +0.000 N 
ATOM     20  H   UNL     1       7.037   7.458  16.595  0.00  0.00    +0.000 HD
BRANCH  17  21
ATOM     21  C   UNL     1       9.364  10.490  18.832  0.00  0.00    +0.000 A 
ATOM     22  C   UNL     1       9.514  10.838  20.182  0.00  0.00    +0.000 A 
ATOM     23  C   UNL     1      10.215  11.995  20.547  0.00  0.00    +0.000 A 
ATOM     24  C   UNL     1      10.772  12.828  19.570  0.00  0.00    +0.000 A 
ATOM     25  C   UNL     1      11.544  14.060  19.938  0.00  0.00    +0.000 C 
ATOM     26  C   UNL     1      10.613  12.491  18.222  0.00  0.00    +0.000 A 
ATOM     27  C   UNL     1       9.915  11.332  17.857  0.00  0.00    +0.000 A 
ENDBRANCH  17  21
ENDBRANCH   1  15
TORSDOF 6
ENDMDL
MODEL 9
REMARK VINA RESULT:      -7.6      1.279      1.394
REMARK  Name = 
REMARK  10 active torsions:
REMARK  status: ('A' for Active; 'I' for Inactive)
REMARK    1  A    between atoms: C_1  and  O_2
REMARK    2  A    between atoms: O_2  and  C_3
REMARK    3  A    between atoms: C_5  and  C_6
REMARK    4  A    between atoms: C_6  and  C_8
REMARK    5  A    between atoms: C_10  and  C_11
REMARK    6  A    between atoms: C_14  and  C_15
REMARK    7  A    between atoms: C_21  and  O_22
REMARK    8  A    between atoms: O_22  and  C_23
REMARK    9  A    between atoms: C_24  and  O_25
REMARK   10  A    between atoms: O_25  and  C_26
REMARK                            x       y       z     vdW  Elec       q    Type
REMARK                         _______ _______ _______ _____ _____    ______ ____
ROOT
ATOM      1  C   UNL     1       7.028   6.446  17.060  0.00  0.00    +0.000 C 
ATOM      2  O   UNL     1       7.414   5.914  16.020  0.00  0.00    +0.000 OA
ENDROOT
BRANCH   1   5
ATOM      3  C   UNL     1       3.399   6.184  18.103  0.00  0.00    +0.000 A 
ATOM      4  C   UNL     1       4.602   6.674  17.568  0.00  0.00    +0.000 A 
ATOM      5  C   UNL     1       5.781   5.941  17.692  0.00  0.00    +0.000 A 
ATOM      6  C   UNL     1       5.778   4.769  18.442  0.00  0.00    +0.000 A 
ATOM      7  C   UNL     1       4.610   4.309  19.060  0.00  0.00    +0.000 A 
ATOM      8  C   UNL     1       3.395   5.012  18.896  0.00  0.00    +0.000 A 
BRANCH   3  10
ATOM      9  C   UNL     1       2.308   8.294  18.044  0.00  0.00    +0.000 C 
ATOM     10  O   UNL     1       2.231   6.875  17.897  0.00  0.00    +0.000 OA
ENDBRANCH   3  10
BRANCH   7  11
ATOM     11  O   UNL     1       4.859   3.159  19.764  0.00  0.00    +0.000 OA
ATOM     12  C   UNL     1       4.248   1.941  19.374  0.00  0.00    +0.000 C 
ENDBRANCH   7  11
BRANCH   8  13
ATOM     13  O   UNL     1       2.315   4.484  19.548  0.00  0.00    +0.000 OA
ATOM     14  C   UNL     1       1.969   4.905  20.855  0.00  0.00    +0.000 C 
ENDBRANCH   8  13
ENDBRANCH   1   5
BRANCH   1  15
ATOM     15  C   UNL     1       7.725   7.551  17.666  0.00  0.00    +0.000 A 
ATOM     16  N   UNL     1       7.825   8.786  17.212  0.00  0.00    +0.000 NA
ATOM     17  C   UNL     1       8.581   9.432  18.171  0.00  0.00    +0.000 A 
ATOM     18  N   UNL     1       8.965   8.630  19.179  0.00  0.00    +0.000 NA
ATOM     19  N   UNL     1       8.382   7.469  18.856  0.00  0.00    +0.000 N 
ATOM     20  H   UNL     1       8.488   6.660  19.459  0.00  0.00    +0.000 HD
BRANCH  17  21
ATOM     21  C   UNL     1       8.907  10.854  18.099  0.00  0.00    +0.000 A 
ATOM     22  C   UNL     1       7.988  11.782  17.590  0.00  0.00    +0.000 A 
ATOM     23  C   UNL     1       8.294  13.150  17.566  0.00  0.00    +0.000 A 
ATOM     24  C   UNL     1       9.526  13.612  18.043  0.00  0.00    +0.000 A 
ATOM     25  C   UNL     1       9.867  15.072  18.045  0.00  0.00    +0.000 C 
ATOM     26  C   UNL     1      10.450  12.687  18.539  0.00  0.00    +0.000 A 
ATOM     27  C   UNL     1      10.143  11.320  18.567  0.00  0.00    +0.000 A 
ENDBRANCH  17  21
ENDBRANCH   1  15
TORSDOF 6
ENDMDL
