MODEL 1
REMARK VINA RESULT:      -8.1      0.000      0.000
REMARK  Name = 
REMARK  6 active torsions:
REMARK  status: ('A' for Active; 'I' for Inactive)
REMARK    1  A    between atoms: C_2  and  C_22
REMARK    2  A    between atoms: N_3  and  C_4
REMARK    3  A    between atoms: C_4  and  C_5
REMARK    4  A    between atoms: C_5  and  C_6
REMARK    5  A    between atoms: C_5  and  N_16
REMARK    6  A    between atoms: C_9  and  C_10
REMARK                            x       y       z     vdW  Elec       q    Type
REMARK                         _______ _______ _______ _____ _____    ______ ____
ROOT
ATOM      1  C   UNL     1       4.484   4.532  17.331  0.00  0.00    +0.000 C 
ENDROOT
BRANCH   1   2
ATOM      2  C   UNL     1       5.429   4.552  16.137  0.00  0.00    +0.000 A 
ATOM      3  C   UNL     1       5.227   3.822  14.962  0.00  0.00    +0.000 A 
ATOM      4  C   UNL     1       6.081   3.996  13.869  0.00  0.00    +0.000 A 
ATOM      5  C   UNL     1       7.130   4.911  13.958  0.00  0.00    +0.000 A 
ATOM      6  N   UNL     1       7.398   5.562  15.123  0.00  0.00    +0.000 NA
ATOM      7  C   UNL     1       6.563   5.360  16.169  0.00  0.00    +0.000 A 
BRANCH   5   8
ATOM      8  C   UNL     1       7.950   5.250  12.717  0.00  0.00    +0.000 C 
ATOM      9  F   UNL     1       7.873   4.293  11.742  0.00  0.00    +0.000 F 
ATOM     10  F   UNL     1       7.538   6.404  12.113  0.00  0.00    +0.000 F 
ATOM     11  F   UNL     1       9.282   5.408  12.964  0.00  0.00    +0.000 F 
ENDBRANCH   5   8
ENDBRANCH   1   2
BRANCH   1  12
ATOM     12  N   UNL     1       4.283   3.199  17.938  0.00  0.00    +0.000 NA
ATOM     13  C   UNL     1       3.168   2.367  17.484  0.00  0.00    +0.000 C 
ATOM     14  C   UNL     1       1.934   2.436  18.388  0.00  0.00    +0.000 C 
ATOM     15  O   UNL     1       2.277   2.074  19.728  0.00  0.00    +0.000 OA
ATOM     16  C   UNL     1       3.254   2.980  20.256  0.00  0.00    +0.000 C 
ATOM     17  C   UNL     1       4.518   3.061  19.379  0.00  0.00    +0.000 C 
ENDBRANCH   1  12
BRANCH   1  18
ATOM     18  C   UNL     1       4.843   5.534  18.475  0.00  0.00    +0.000 C 
BRANCH  18  21
ATOM     19  O   UNL     1       2.043   5.838  18.316  0.00  0.00    +0.000 OA
ATOM     20  C   UNL     1       2.740   6.832  18.487  0.00  0.00    +0.000 C 
ATOM     21  N   UNL     1       4.111   6.786  18.492  0.00  0.00    +0.000 N 
ATOM     22  H   UNL     1       4.634   7.632  18.678  0.00  0.00    +0.000 HD
BRANCH  20  23
ATOM     23  C   UNL     1       2.097   8.146  18.792  0.00  0.00    +0.000 A 
ATOM     24  C   UNL     1       2.232   9.120  17.782  0.00  0.00    +0.000 A 
ATOM     25  C   UNL     1       1.640  10.374  17.911  0.00  0.00    +0.000 A 
ATOM     26  C   UNL     1       0.905  10.671  19.053  0.00  0.00    +0.000 A 
ATOM     27  C   UNL     1       0.773   9.722  20.071  0.00  0.00    +0.000 A 
ATOM     28 CL   UNL     1      -0.165  10.187  21.452  0.00  0.00    +0.000 Cl
ATOM     29  C   UNL     1       1.374   8.455  19.958  0.00  0.00    +0.000 A 
ATOM     30 CL   UNL     1       1.222   7.327  21.273  0.00  0.00    +0.000 Cl
ENDBRANCH  20  23
ENDBRANCH  18  21
ENDBRANCH   1  18
TORSDOF 6
ENDMDL
MODEL 2
REMARK VINA RESULT:      -8.1      3.105      4.256
REMARK  Name = 
REMARK  6 active torsions:
REMARK  status: ('A' for Active; 'I' for Inactive)
REMARK    1  A    between atoms: C_2  and  C_22
REMARK    2  A    between atoms: N_3  and  C_4
REMARK    3  A    between atoms: C_4  and  C_5
REMARK    4  A    between atoms: C_5  and  C_6
REMARK    5  A    between atoms: C_5  and  N_16
REMARK    6  A    between atoms: C_9  and  C_10
REMARK                            x       y       z     vdW  Elec       q    Type
REMARK                         _______ _______ _______ _____ _____    ______ ____
ROOT
ATOM      1  C   UNL     1       1.936   5.964  19.406  0.00  0.00    +0.000 C 
ENDROOT
BRANCH   1   2
ATOM      2  C   UNL     1       3.356   5.876  18.866  0.00  0.00    +0.000 A 
ATOM      3  C   UNL     1       3.766   6.411  17.641  0.00  0.00    +0.000 A 
ATOM      4  C   UNL     1       5.117   6.392  17.281  0.00  0.00    +0.000 A 
ATOM      5  C   UNL     1       6.052   5.843  18.158  0.00  0.00    +0.000 A 
ATOM      6  N   UNL     1       5.662   5.236  19.313  0.00  0.00    +0.000 NA
ATOM      7  C   UNL     1       4.345   5.256  19.625  0.00  0.00    +0.000 A 
BRANCH   5   8
ATOM      8  C   UNL     1       7.542   5.987  17.866  0.00  0.00    +0.000 C 
ATOM      9  F   UNL     1       8.266   6.404  18.949  0.00  0.00    +0.000 F 
ATOM     10  F   UNL     1       8.121   4.809  17.487  0.00  0.00    +0.000 F 
ATOM     11  F   UNL     1       7.825   6.881  16.875  0.00  0.00    +0.000 F 
ENDBRANCH   5   8
ENDBRANCH   1   2
BRANCH   1  12
ATOM     12  N   UNL     1       1.182   4.693  19.372  0.00  0.00    +0.000 NA
ATOM     13  C   UNL     1       1.092   3.881  20.587  0.00  0.00    +0.000 C 
ATOM     14  C   UNL     1       2.098   2.727  20.638  0.00  0.00    +0.000 C 
ATOM     15  O   UNL     1       1.947   1.883  19.493  0.00  0.00    +0.000 OA
ATOM     16  C   UNL     1       2.194   2.622  18.291  0.00  0.00    +0.000 C 
ATOM     17  C   UNL     1       1.291   3.864  18.166  0.00  0.00    +0.000 C 
ENDBRANCH   1  12
BRANCH   1  18
ATOM     18  C   UNL     1       1.811   6.560  20.846  0.00  0.00    +0.000 C 
BRANCH  18  21
ATOM     19  O   UNL     1       2.096   8.905  22.388  0.00  0.00    +0.000 OA
ATOM     20  C   UNL     1       1.067   8.739  21.742  0.00  0.00    +0.000 C 
ATOM     21  N   UNL     1       0.811   7.593  21.034  0.00  0.00    +0.000 N 
ATOM     22  H   UNL     1      -0.038   7.529  20.487  0.00  0.00    +0.000 HD
BRANCH  20  23
ATOM     23  C   UNL     1       0.074   9.850  21.632  0.00  0.00    +0.000 A 
ATOM     24  C   UNL     1      -0.505  10.250  22.853  0.00  0.00    +0.000 A 
ATOM     25  C   UNL     1      -1.411  11.307  22.905  0.00  0.00    +0.000 A 
ATOM     26  C   UNL     1      -1.749  11.979  21.736  0.00  0.00    +0.000 A 
ATOM     27  C   UNL     1      -1.195  11.586  20.514  0.00  0.00    +0.000 A 
ATOM     28 CL   UNL     1      -1.679  12.488  19.115  0.00  0.00    +0.000 Cl
ATOM     29  C   UNL     1      -0.288  10.514  20.446  0.00  0.00    +0.000 A 
ATOM     30 CL   UNL     1       0.336  10.032  18.894  0.00  0.00    +0.000 Cl
ENDBRANCH  20  23
ENDBRANCH  18  21
ENDBRANCH   1  18
TORSDOF 6
ENDMDL
MODEL 3
REMARK VINA RESULT:      -8.1      4.073      5.645
REMARK  Name = 
REMARK  6 active torsions:
REMARK  status: ('A' for Active; 'I' for Inactive)
REMARK    1  A    between atoms: C_2  and  C_22
REMARK    2  A    between atoms: N_3  and  C_4
REMARK    3  A    between atoms: C_4  and  C_5
REMARK    4  A    between atoms: C_5  and  C_6
REMARK    5  A    between atoms: C_5  and  N_16
REMARK    6  A    between atoms: C_9  and  C_10
REMARK                            x       y       z     vdW  Elec       q    Type
REMARK                         _______ _______ _______ _____ _____    ______ ____
ROOT
ATOM      1  C   UNL     1       4.348   7.076  17.882  0.00  0.00    +0.000 C 
ENDROOT
BRANCH   1   2
ATOM      2  C   UNL     1       3.717   5.779  18.368  0.00  0.00    +0.000 A 
ATOM      3  C   UNL     1       4.294   4.930  19.317  0.00  0.00    +0.000 A 
ATOM      4  C   UNL     1       3.586   3.823  19.795  0.00  0.00    +0.000 A 
ATOM      5  C   UNL     1       2.297   3.579  19.323  0.00  0.00    +0.000 A 
ATOM      6  N   UNL     1       1.753   4.340  18.333  0.00  0.00    +0.000 NA
ATOM      7  C   UNL     1       2.471   5.395  17.879  0.00  0.00    +0.000 A 
BRANCH   5   8
ATOM      8  C   UNL     1       1.444   2.493  19.972  0.00  0.00    +0.000 C 
ATOM      9  F   UNL     1       1.758   2.274  21.285  0.00  0.00    +0.000 F 
ATOM     10  F   UNL     1       0.113   2.798  19.973  0.00  0.00    +0.000 F 
ATOM     11  F   UNL     1       1.551   1.275  19.366  0.00  0.00    +0.000 F 
ENDBRANCH   5   8
ENDBRANCH   1   2
BRANCH   1  12
ATOM     12  N   UNL     1       5.441   6.903  16.902  0.00  0.00    +0.000 NA
ATOM     13  C   UNL     1       5.264   5.964  15.792  0.00  0.00    +0.000 C 
ATOM     14  C   UNL     1       5.906   4.594  16.030  0.00  0.00    +0.000 C 
ATOM     15  O   UNL     1       7.302   4.739  16.308  0.00  0.00    +0.000 OA
ATOM     16  C   UNL     1       7.497   5.522  17.492  0.00  0.00    +0.000 C 
ATOM     17  C   UNL     1       6.819   6.903  17.405  0.00  0.00    +0.000 C 
ENDBRANCH   1  12
BRANCH   1  18
ATOM     18  C   UNL     1       3.344   8.126  17.305  0.00  0.00    +0.000 C 
BRANCH  18  21
ATOM     19  O   UNL     1       0.638   8.923  17.339  0.00  0.00    +0.000 OA
ATOM     20  C   UNL     1       1.378   9.292  18.244  0.00  0.00    +0.000 C 
ATOM     21  N   UNL     1       2.723   9.021  18.262  0.00  0.00    +0.000 N 
ATOM     22  H   UNL     1       3.276   9.316  19.055  0.00  0.00    +0.000 HD
BRANCH  20  23
ATOM     23  C   UNL     1       0.804   9.990  19.434  0.00  0.00    +0.000 A 
ATOM     24  C   UNL     1       0.359  11.305  19.190  0.00  0.00    +0.000 A 
ATOM     25  C   UNL     1      -0.244  12.056  20.197  0.00  0.00    +0.000 A 
ATOM     26  C   UNL     1      -0.409  11.501  21.461  0.00  0.00    +0.000 A 
ATOM     27  C   UNL     1       0.039  10.203  21.724  0.00  0.00    +0.000 A 
ATOM     28 CL   UNL     1      -0.216   9.602  23.328  0.00  0.00    +0.000 Cl
ATOM     29  C   UNL     1       0.658   9.438  20.719  0.00  0.00    +0.000 A 
ATOM     30 CL   UNL     1       1.243   7.847  21.109  0.00  0.00    +0.000 Cl
ENDBRANCH  20  23
ENDBRANCH  18  21
ENDBRANCH   1  18
TORSDOF 6
ENDMDL
MODEL 4
REMARK VINA RESULT:      -8.0      3.853      5.424
REMARK  Name = 
REMARK  6 active torsions:
REMARK  status: ('A' for Active; 'I' for Inactive)
REMARK    1  A    between atoms: C_2  and  C_22
REMARK    2  A    between atoms: N_3  and  C_4
REMARK    3  A    between atoms: C_4  and  C_5
REMARK    4  A    between atoms: C_5  and  C_6
REMARK    5  A    between atoms: C_5  and  N_16
REMARK    6  A    between atoms: C_9  and  C_10
REMARK                            x       y       z     vdW  Elec       q    Type
REMARK                         _______ _______ _______ _____ _____    ______ ____
ROOT
ATOM      1  C   UNL     1       4.250   7.176  17.867  0.00  0.00    +0.000 C 
ENDROOT
BRANCH   1   2
ATOM      2  C   UNL     1       3.485   5.943  18.325  0.00  0.00    +0.000 A 
ATOM      3  C   UNL     1       2.227   5.572  17.840  0.00  0.00    +0.000 A 
ATOM      4  C   UNL     1       1.654   4.356  18.226  0.00  0.00    +0.000 A 
ATOM      5  C   UNL     1       2.351   3.514  19.092  0.00  0.00    +0.000 A 
ATOM      6  N   UNL     1       3.534   3.898  19.647  0.00  0.00    +0.000 NA
ATOM      7  C   UNL     1       4.056   5.089  19.265  0.00  0.00    +0.000 A 
BRANCH   5   8
ATOM      8  C   UNL     1       1.827   2.109  19.370  0.00  0.00    +0.000 C 
ATOM      9  F   UNL     1       1.526   1.897  20.688  0.00  0.00    +0.000 F 
ATOM     10  F   UNL     1       0.672   1.834  18.696  0.00  0.00    +0.000 F 
ATOM     11  F   UNL     1       2.704   1.119  19.036  0.00  0.00    +0.000 F 
ENDBRANCH   5   8
ENDBRANCH   1   2
BRANCH   1  12
ATOM     12  N   UNL     1       5.340   6.906  16.905  0.00  0.00    +0.000 NA
ATOM     13  C   UNL     1       5.179   5.831  15.925  0.00  0.00    +0.000 C 
ATOM     14  C   UNL     1       5.855   4.517  16.327  0.00  0.00    +0.000 C 
ATOM     15  O   UNL     1       7.248   4.729  16.571  0.00  0.00    +0.000 OA
ATOM     16  C   UNL     1       7.433   5.659  17.645  0.00  0.00    +0.000 C 
ATOM     17  C   UNL     1       6.721   7.002  17.391  0.00  0.00    +0.000 C 
ENDBRANCH   1  12
BRANCH   1  18
ATOM     18  C   UNL     1       3.365   8.325  17.283  0.00  0.00    +0.000 C 
BRANCH  18  21
ATOM     19  O   UNL     1       0.608   8.913  17.389  0.00  0.00    +0.000 OA
ATOM     20  C   UNL     1       1.344   9.353  18.265  0.00  0.00    +0.000 C 
ATOM     21  N   UNL     1       2.706   9.186  18.245  0.00  0.00    +0.000 N 
ATOM     22  H   UNL     1       3.258   9.537  19.016  0.00  0.00    +0.000 HD
BRANCH  20  23
ATOM     23  C   UNL     1       0.753  10.026  19.461  0.00  0.00    +0.000 A 
ATOM     24  C   UNL     1       0.276  11.332  19.230  0.00  0.00    +0.000 A 
ATOM     25  C   UNL     1      -0.344  12.058  20.244  0.00  0.00    +0.000 A 
ATOM     26  C   UNL     1      -0.496  11.488  21.502  0.00  0.00    +0.000 A 
ATOM     27  C   UNL     1      -0.016  10.198  21.753  0.00  0.00    +0.000 A 
ATOM     28 CL   UNL     1      -0.256   9.576  23.352  0.00  0.00    +0.000 Cl
ATOM     29  C   UNL     1       0.621   9.458  20.741  0.00  0.00    +0.000 A 
ATOM     30 CL   UNL     1       1.245   7.878  21.116  0.00  0.00    +0.000 Cl
ENDBRANCH  20  23
ENDBRANCH  18  21
ENDBRANCH   1  18
TORSDOF 6
ENDMDL
MODEL 5
REMARK VINA RESULT:      -8.0      2.458      3.510
REMARK  Name = 
REMARK  6 active torsions:
REMARK  status: ('A' for Active; 'I' for Inactive)
REMARK    1  A    between atoms: C_2  and  C_22
REMARK    2  A    between atoms: N_3  and  C_4
REMARK    3  A    between atoms: C_4  and  C_5
REMARK    4  A    between atoms: C_5  and  C_6
REMARK    5  A    between atoms: C_5  and  N_16
REMARK    6  A    between atoms: C_9  and  C_10
REMARK                            x       y       z     vdW  Elec       q    Type
REMARK                         _______ _______ _______ _____ _____    ______ ____
ROOT
ATOM      1  C   UNL     1       2.118   5.808  19.437  0.00  0.00    +0.000 C 
ENDROOT
BRANCH   1   2
ATOM      2  C   UNL     1       3.376   5.358  18.707  0.00  0.00    +0.000 A 
ATOM      3  C   UNL     1       3.385   4.804  17.423  0.00  0.00    +0.000 A 
ATOM      4  C   UNL     1       4.598   4.535  16.781  0.00  0.00    +0.000 A 
ATOM      5  C   UNL     1       5.797   4.831  17.429  0.00  0.00    +0.000 A 
ATOM      6  N   UNL     1       5.810   5.284  18.713  0.00  0.00    +0.000 NA
ATOM      7  C   UNL     1       4.619   5.519  19.314  0.00  0.00    +0.000 A 
BRANCH   5   8
ATOM      8  C   UNL     1       7.117   4.721  16.672  0.00  0.00    +0.000 C 
ATOM      9  F   UNL     1       8.120   4.163  17.416  0.00  0.00    +0.000 F 
ATOM     10  F   UNL     1       7.023   3.933  15.560  0.00  0.00    +0.000 F 
ATOM     11  F   UNL     1       7.606   5.919  16.244  0.00  0.00    +0.000 F 
ENDBRANCH   5   8
ENDBRANCH   1   2
BRANCH   1  12
ATOM     12  N   UNL     1       1.442   4.747  20.213  0.00  0.00    +0.000 NA
ATOM     13  C   UNL     1       2.110   4.183  21.388  0.00  0.00    +0.000 C 
ATOM     14  C   UNL     1       2.830   2.859  21.116  0.00  0.00    +0.000 C 
ATOM     15  O   UNL     1       1.917   1.895  20.584  0.00  0.00    +0.000 OA
ATOM     16  C   UNL     1       1.371   2.356  19.342  0.00  0.00    +0.000 C 
ATOM     17  C   UNL     1       0.687   3.731  19.471  0.00  0.00    +0.000 C 
ENDBRANCH   1  12
BRANCH   1  18
ATOM     18  C   UNL     1       2.302   7.047  20.371  0.00  0.00    +0.000 C 
BRANCH  18  21
ATOM     19  O   UNL     1       2.407   8.898  18.245  0.00  0.00    +0.000 OA
ATOM     20  C   UNL     1       1.482   8.965  19.047  0.00  0.00    +0.000 C 
ATOM     21  N   UNL     1       1.399   8.161  20.154  0.00  0.00    +0.000 N 
ATOM     22  H   UNL     1       0.591   8.233  20.759  0.00  0.00    +0.000 HD
BRANCH  20  23
ATOM     23  C   UNL     1       0.338   9.891  18.785  0.00  0.00    +0.000 A 
ATOM     24  C   UNL     1      -0.514   9.496  17.734  0.00  0.00    +0.000 A 
ATOM     25  C   UNL     1      -1.647  10.239  17.412  0.00  0.00    +0.000 A 
ATOM     26  C   UNL     1      -1.943  11.387  18.138  0.00  0.00    +0.000 A 
ATOM     27  C   UNL     1      -1.101  11.801  19.174  0.00  0.00    +0.000 A 
ATOM     28 CL   UNL     1      -1.559  13.243  20.019  0.00  0.00    +0.000 Cl
ATOM     29  C   UNL     1       0.052  11.066  19.503  0.00  0.00    +0.000 A 
ATOM     30 CL   UNL     1       1.094  11.650  20.767  0.00  0.00    +0.000 Cl
ENDBRANCH  20  23
ENDBRANCH  18  21
ENDBRANCH   1  18
TORSDOF 6
ENDMDL
MODEL 6
REMARK VINA RESULT:      -8.0      2.617      3.619
REMARK  Name = 
REMARK  6 active torsions:
REMARK  status: ('A' for Active; 'I' for Inactive)
REMARK    1  A    between atoms: C_2  and  C_22
REMARK    2  A    between atoms: N_3  and  C_4
REMARK    3  A    between atoms: C_4  and  C_5
REMARK    4  A    between atoms: C_5  and  C_6
REMARK    5  A    between atoms: C_5  and  N_16
REMARK    6  A    between atoms: C_9  and  C_10
REMARK                            x       y       z     vdW  Elec       q    Type
REMARK                         _______ _______ _______ _____ _____    ______ ____
ROOT
ATOM      1  C   UNL     1       2.104   5.711  19.483  0.00  0.00    +0.000 C 
ENDROOT
BRANCH   1   2
ATOM      2  C   UNL     1       3.375   5.294  18.758  0.00  0.00    +0.000 A 
ATOM      3  C   UNL     1       3.405   4.753  17.469  0.00  0.00    +0.000 A 
ATOM      4  C   UNL     1       4.627   4.514  16.834  0.00  0.00    +0.000 A 
ATOM      5  C   UNL     1       5.816   4.828  17.493  0.00  0.00    +0.000 A 
ATOM      6  N   UNL     1       5.810   5.268  18.781  0.00  0.00    +0.000 NA
ATOM      7  C   UNL     1       4.611   5.474  19.376  0.00  0.00    +0.000 A 
BRANCH   5   8
ATOM      8  C   UNL     1       7.142   4.751  16.745  0.00  0.00    +0.000 C 
ATOM      9  F   UNL     1       7.077   3.994  15.607  0.00  0.00    +0.000 F 
ATOM     10  F   UNL     1       7.585   5.975  16.329  0.00  0.00    +0.000 F 
ATOM     11  F   UNL     1       8.158   4.213  17.479  0.00  0.00    +0.000 F 
ENDBRANCH   5   8
ENDBRANCH   1   2
BRANCH   1  12
ATOM     12  N   UNL     1       1.452   4.635  20.258  0.00  0.00    +0.000 NA
ATOM     13  C   UNL     1       2.131   4.088  21.435  0.00  0.00    +0.000 C 
ATOM     14  C   UNL     1       2.886   2.783  21.165  0.00  0.00    +0.000 C 
ATOM     15  O   UNL     1       1.999   1.796  20.631  0.00  0.00    +0.000 OA
ATOM     16  C   UNL     1       1.444   2.242  19.388  0.00  0.00    +0.000 C 
ATOM     17  C   UNL     1       0.726   3.599  19.515  0.00  0.00    +0.000 C 
ENDBRANCH   1  12
BRANCH   1  18
ATOM     18  C   UNL     1       2.252   6.956  20.417  0.00  0.00    +0.000 C 
BRANCH  18  21
ATOM     19  O   UNL     1       1.576   8.946  22.299  0.00  0.00    +0.000 OA
ATOM     20  C   UNL     1       1.077   8.992  21.180  0.00  0.00    +0.000 C 
ATOM     21  N   UNL     1       1.285   8.021  20.233  0.00  0.00    +0.000 N 
ATOM     22  H   UNL     1       0.880   8.133  19.313  0.00  0.00    +0.000 HD
BRANCH  20  23
ATOM     23  C   UNL     1       0.277  10.187  20.773  0.00  0.00    +0.000 A 
ATOM     24  C   UNL     1       0.509  10.634  19.456  0.00  0.00    +0.000 A 
ATOM     25  C   UNL     1      -0.203  11.708  18.928  0.00  0.00    +0.000 A 
ATOM     26  C   UNL     1      -1.157  12.349  19.709  0.00  0.00    +0.000 A 
ATOM     27  C   UNL     1      -1.390  11.928  21.022  0.00  0.00    +0.000 A 
ATOM     28 CL   UNL     1      -2.601  12.790  21.913  0.00  0.00    +0.000 Cl
ATOM     29  C   UNL     1      -0.671  10.851  21.572  0.00  0.00    +0.000 A 
ATOM     30 CL   UNL     1      -0.962  10.397  23.226  0.00  0.00    +0.000 Cl
ENDBRANCH  20  23
ENDBRANCH  18  21
ENDBRANCH   1  18
TORSDOF 6
ENDMDL
MODEL 7
REMARK VINA RESULT:      -8.0      2.962      3.959
REMARK  Name = 
REMARK  6 active torsions:
REMARK  status: ('A' for Active; 'I' for Inactive)
REMARK    1  A    between atoms: C_2  and  C_22
REMARK    2  A    between atoms: N_3  and  C_4
REMARK    3  A    between atoms: C_4  and  C_5
REMARK    4  A    between atoms: C_5  and  C_6
REMARK    5  A    between atoms: C_5  and  N_16
REMARK    6  A    between atoms: C_9  and  C_10
REMARK                            x       y       z     vdW  Elec       q    Type
REMARK                         _______ _______ _______ _____ _____    ______ ____
ROOT
ATOM      1  C   UNL     1       1.882   5.791  19.309  0.00  0.00    +0.000 C 
ENDROOT
BRANCH   1   2
ATOM      2  C   UNL     1       3.309   5.676  18.792  0.00  0.00    +0.000 A 
ATOM      3  C   UNL     1       3.702   5.997  17.489  0.00  0.00    +0.000 A 
ATOM      4  C   UNL     1       5.055   5.979  17.137  0.00  0.00    +0.000 A 
ATOM      5  C   UNL     1       6.009   5.648  18.099  0.00  0.00    +0.000 A 
ATOM      6  N   UNL     1       5.640   5.245  19.346  0.00  0.00    +0.000 NA
ATOM      7  C   UNL     1       4.321   5.256  19.652  0.00  0.00    +0.000 A 
BRANCH   5   8
ATOM      8  C   UNL     1       7.493   5.809  17.784  0.00  0.00    +0.000 C 
ATOM      9  F   UNL     1       8.177   6.498  18.748  0.00  0.00    +0.000 F 
ATOM     10  F   UNL     1       8.142   4.612  17.677  0.00  0.00    +0.000 F 
ATOM     11  F   UNL     1       7.738   6.476  16.620  0.00  0.00    +0.000 F 
ENDBRANCH   5   8
ENDBRANCH   1   2
BRANCH   1  12
ATOM     12  N   UNL     1       1.185   4.500  19.491  0.00  0.00    +0.000 NA
ATOM     13  C   UNL     1       1.209   3.852  20.803  0.00  0.00    +0.000 C 
ATOM     14  C   UNL     1       2.267   2.752  20.933  0.00  0.00    +0.000 C 
ATOM     15  O   UNL     1       2.081   1.760  19.920  0.00  0.00    +0.000 OA
ATOM     16  C   UNL     1       2.217   2.342  18.618  0.00  0.00    +0.000 C 
ATOM     17  C   UNL     1       1.254   3.525  18.397  0.00  0.00    +0.000 C 
ENDBRANCH   1  12
BRANCH   1  18
ATOM     18  C   UNL     1       1.719   6.617  20.626  0.00  0.00    +0.000 C 
BRANCH  18  21
ATOM     19  O   UNL     1      -0.566   7.999  21.535  0.00  0.00    +0.000 OA
ATOM     20  C   UNL     1       0.346   8.634  21.016  0.00  0.00    +0.000 C 
ATOM     21  N   UNL     1       1.453   8.034  20.473  0.00  0.00    +0.000 N 
ATOM     22  H   UNL     1       2.192   8.611  20.094  0.00  0.00    +0.000 HD
BRANCH  20  23
ATOM     23  C   UNL     1       0.318  10.127  21.042  0.00  0.00    +0.000 A 
ATOM     24  C   UNL     1       0.946  10.750  19.945  0.00  0.00    +0.000 A 
ATOM     25  C   UNL     1       0.952  12.137  19.815  0.00  0.00    +0.000 A 
ATOM     26  C   UNL     1       0.330  12.919  20.780  0.00  0.00    +0.000 A 
ATOM     27  C   UNL     1      -0.286  12.319  21.883  0.00  0.00    +0.000 A 
ATOM     28 CL   UNL     1      -1.035  13.380  23.029  0.00  0.00    +0.000 Cl
ATOM     29  C   UNL     1      -0.291  10.920  22.032  0.00  0.00    +0.000 A 
ATOM     30 CL   UNL     1      -1.026  10.224  23.446  0.00  0.00    +0.000 Cl
ENDBRANCH  20  23
ENDBRANCH  18  21
ENDBRANCH   1  18
TORSDOF 6
ENDMDL
MODEL 8
REMARK VINA RESULT:      -7.9      3.042      4.142
REMARK  Name = 
REMARK  6 active torsions:
REMARK  status: ('A' for Active; 'I' for Inactive)
REMARK    1  A    between atoms: C_2  and  C_22
REMARK    2  A    between atoms: N_3  and  C_4
REMARK    3  A    between atoms: C_4  and  C_5
REMARK    4  A    between atoms: C_5  and  C_6
REMARK    5  A    between atoms: C_5  and  N_16
REMARK    6  A    between atoms: C_9  and  C_10
REMARK                            x       y       z     vdW  Elec       q    Type
REMARK                         _______ _______ _______ _____ _____    ______ ____
ROOT
ATOM      1  C   UNL     1       1.908   5.874  19.420  0.00  0.00    +0.000 C 
ENDROOT
BRANCH   1   2
ATOM      2  C   UNL     1       3.323   5.783  18.866  0.00  0.00    +0.000 A 
ATOM      3  C   UNL     1       3.706   6.249  17.605  0.00  0.00    +0.000 A 
ATOM      4  C   UNL     1       5.053   6.237  17.228  0.00  0.00    +0.000 A 
ATOM      5  C   UNL     1       6.011   5.765  18.125  0.00  0.00    +0.000 A 
ATOM      6  N   UNL     1       5.649   5.224  19.321  0.00  0.00    +0.000 NA
ATOM      7  C   UNL     1       4.335   5.234  19.650  0.00  0.00    +0.000 A 
BRANCH   5   8
ATOM      8  C   UNL     1       7.494   5.922  17.805  0.00  0.00    +0.000 C 
ATOM      9  F   UNL     1       7.725   6.615  16.648  0.00  0.00    +0.000 F 
ATOM     10  F   UNL     1       8.172   6.611  18.770  0.00  0.00    +0.000 F 
ATOM     11  F   UNL     1       8.152   4.737  17.654  0.00  0.00    +0.000 F 
ENDBRANCH   5   8
ENDBRANCH   1   2
BRANCH   1  12
ATOM     12  N   UNL     1       1.221   4.574  19.573  0.00  0.00    +0.000 NA
ATOM     13  C   UNL     1       1.306   3.865  20.851  0.00  0.00    +0.000 C 
ATOM     14  C   UNL     1       2.369   2.763  20.879  0.00  0.00    +0.000 C 
ATOM     15  O   UNL     1       2.136   1.819  19.831  0.00  0.00    +0.000 OA
ATOM     16  C   UNL     1       2.211   2.462  18.553  0.00  0.00    +0.000 C 
ATOM     17  C   UNL     1       1.239   3.651  18.433  0.00  0.00    +0.000 C 
ENDBRANCH   1  12
BRANCH   1  18
ATOM     18  C   UNL     1       1.773   6.653  20.768  0.00  0.00    +0.000 C 
BRANCH  18  21
ATOM     19  O   UNL     1      -0.678   7.796  21.571  0.00  0.00    +0.000 OA
ATOM     20  C   UNL     1       0.214   8.530  21.160  0.00  0.00    +0.000 C 
ATOM     21  N   UNL     1       1.404   8.052  20.672  0.00  0.00    +0.000 N 
ATOM     22  H   UNL     1       2.119   8.707  20.385  0.00  0.00    +0.000 HD
BRANCH  20  23
ATOM     23  C   UNL     1       0.063  10.013  21.266  0.00  0.00    +0.000 A 
ATOM     24  C   UNL     1      -0.594  10.459  22.431  0.00  0.00    +0.000 A 
ATOM     25  C   UNL     1      -0.761  11.818  22.683  0.00  0.00    +0.000 A 
ATOM     26  C   UNL     1      -0.272  12.750  21.775  0.00  0.00    +0.000 A 
ATOM     27  C   UNL     1       0.369  12.325  20.607  0.00  0.00    +0.000 A 
ATOM     28 CL   UNL     1       0.944  13.563  19.540  0.00  0.00    +0.000 Cl
ATOM     29  C   UNL     1       0.535  10.955  20.335  0.00  0.00    +0.000 A 
ATOM     30 CL   UNL     1       1.296  10.476  18.845  0.00  0.00    +0.000 Cl
ENDBRANCH  20  23
ENDBRANCH  18  21
ENDBRANCH   1  18
TORSDOF 6
ENDMDL
MODEL 9
REMARK VINA RESULT:      -7.9      2.733      4.058
REMARK  Name = 
REMARK  6 active torsions:
REMARK  status: ('A' for Active; 'I' for Inactive)
REMARK    1  A    between atoms: C_2  and  C_22
REMARK    2  A    between atoms: N_3  and  C_4
REMARK    3  A    between atoms: C_4  and  C_5
REMARK    4  A    between atoms: C_5  and  C_6
REMARK    5  A    between atoms: C_5  and  N_16
REMARK    6  A    between atoms: C_9  and  C_10
REMARK                            x       y       z     vdW  Elec       q    Type
REMARK                         _______ _______ _______ _____ _____    ______ ____
ROOT
ATOM      1  C   UNL     1       1.907   5.980  19.454  0.00  0.00    +0.000 C 
ENDROOT
BRANCH   1   2
ATOM      2  C   UNL     1       3.345   6.018  18.956  0.00  0.00    +0.000 A 
ATOM      3  C   UNL     1       4.408   5.349  19.570  0.00  0.00    +0.000 A 
ATOM      4  C   UNL     1       5.672   5.338  18.973  0.00  0.00    +0.000 A 
ATOM      5  C   UNL     1       5.861   5.993  17.755  0.00  0.00    +0.000 A 
ATOM      6  N   UNL     1       4.863   6.725  17.188  0.00  0.00    +0.000 NA
ATOM      7  C   UNL     1       3.654   6.730  17.800  0.00  0.00    +0.000 A 
BRANCH   5   8
ATOM      8  C   UNL     1       7.177   5.830  17.001  0.00  0.00    +0.000 C 
ATOM      9  F   UNL     1       7.006   5.541  15.675  0.00  0.00    +0.000 F 
ATOM     10  F   UNL     1       7.939   6.963  17.021  0.00  0.00    +0.000 F 
ATOM     11  F   UNL     1       7.970   4.833  17.489  0.00  0.00    +0.000 F 
ENDBRANCH   5   8
ENDBRANCH   1   2
BRANCH   1  12
ATOM     12  N   UNL     1       1.246   4.663  19.337  0.00  0.00    +0.000 NA
ATOM     13  C   UNL     1       1.215   3.772  20.498  0.00  0.00    +0.000 C 
ATOM     14  C   UNL     1       2.302   2.693  20.482  0.00  0.00    +0.000 C 
ATOM     15  O   UNL     1       2.212   1.913  19.286  0.00  0.00    +0.000 OA
ATOM     16  C   UNL     1       2.404   2.742  18.133  0.00  0.00    +0.000 C 
ATOM     17  C   UNL     1       1.415   3.922  18.083  0.00  0.00    +0.000 C 
ENDBRANCH   1  12
BRANCH   1  18
ATOM     18  C   UNL     1       1.699   6.496  20.915  0.00  0.00    +0.000 C 
BRANCH  18  21
ATOM     19  O   UNL     1       2.073   8.878  22.379  0.00  0.00    +0.000 OA
ATOM     20  C   UNL     1       1.026   8.718  21.762  0.00  0.00    +0.000 C 
ATOM     21  N   UNL     1       0.728   7.558  21.094  0.00  0.00    +0.000 N 
ATOM     22  H   UNL     1      -0.134   7.498  20.568  0.00  0.00    +0.000 HD
BRANCH  20  23
ATOM     23  C   UNL     1       0.057   9.849  21.640  0.00  0.00    +0.000 A 
ATOM     24  C   UNL     1      -0.529  10.260  22.855  0.00  0.00    +0.000 A 
ATOM     25  C   UNL     1      -1.414  11.334  22.896  0.00  0.00    +0.000 A 
ATOM     26  C   UNL     1      -1.724  12.013  21.724  0.00  0.00    +0.000 A 
ATOM     27  C   UNL     1      -1.164  11.610  20.508  0.00  0.00    +0.000 A 
ATOM     28 CL   UNL     1      -1.612  12.522  19.104  0.00  0.00    +0.000 Cl
ATOM     29  C   UNL     1      -0.277  10.520  20.450  0.00  0.00    +0.000 A 
ATOM     30 CL   UNL     1       0.355  10.026  18.906  0.00  0.00    +0.000 Cl
ENDBRANCH  20  23
ENDBRANCH  18  21
ENDBRANCH   1  18
TORSDOF 6
ENDMDL
