MODEL 1
REMARK VINA RESULT:      -7.0      0.000      0.000
REMARK  Name = 
REMARK  2 active torsions:
REMARK  status: ('A' for Active; 'I' for Inactive)
REMARK    1  A    between atoms: N_1  and  C_2
REMARK    2  A    between atoms: N_11  and  C_12
REMARK                            x       y       z     vdW  Elec       q    Type
REMARK                         _______ _______ _______ _____ _____    ______ ____
ROOT
ATOM      1  C   UNL     1       2.417   3.550  20.306  0.00  0.00    +0.000 A 
ATOM      2  N   UNL     1       3.326   2.562  20.446  0.00  0.00    +0.000 NA
ATOM      3  C   UNL     1       4.537   2.730  19.880  0.00  0.00    +0.000 A 
ATOM      4  N   UNL     1       4.975   3.778  19.165  0.00  0.00    +0.000 NA
ATOM      5  C   UNL     1       4.047   4.738  19.048  0.00  0.00    +0.000 A 
ATOM      6  C   UNL     1       2.781   4.713  19.606  0.00  0.00    +0.000 A 
ATOM      7  N   UNL     1       2.107   5.879  19.337  0.00  0.00    +0.000 NA
ATOM      8  C   UNL     1       2.931   6.586  18.593  0.00  0.00    +0.000 A 
ATOM      9 BR   UNL     1       2.443   8.297  17.989  0.00  0.00    +0.000 Br
ATOM     10  N   UNL     1       4.111   5.911  18.334  0.00  0.00    +0.000 N 
ENDROOT
BRANCH  10  11
ATOM     11  C   UNL     1       5.135   6.317  17.372  0.00  0.00    +0.000 C 
ATOM     12  C   UNL     1       6.553   6.480  17.937  0.00  0.00    +0.000 C 
ATOM     13  C   UNL     1       7.360   5.190  18.012  0.00  0.00    +0.000 C 
ATOM     14  C   UNL     1       7.314   4.373  16.725  0.00  0.00    +0.000 C 
ATOM     15  C   UNL     1       5.925   4.204  16.116  0.00  0.00    +0.000 C 
ATOM     16  C   UNL     1       5.122   5.500  16.069  0.00  0.00    +0.000 C 
ENDBRANCH  10  11
BRANCH   1  17
ATOM     17  N   UNL     1       1.162   3.356  20.865  0.00  0.00    +0.000 N 
ATOM     18  H   UNL     1       0.687   2.555  20.470  0.00  0.00    +0.000 HD
ATOM     19  H   UNL     1       1.136   3.484  21.868  0.00  0.00    +0.000 HD
ENDBRANCH   1  17
TORSDOF 2
ENDMDL
MODEL 2
REMARK VINA RESULT:      -6.7      2.057      4.689
REMARK  Name = 
REMARK  2 active torsions:
REMARK  status: ('A' for Active; 'I' for Inactive)
REMARK    1  A    between atoms: N_1  and  C_2
REMARK    2  A    between atoms: N_11  and  C_12
REMARK                            x       y       z     vdW  Elec       q    Type
REMARK                         _______ _______ _______ _____ _____    ______ ____
ROOT
ATOM      1  C   UNL     1       6.837   6.011  16.529  0.00  0.00    +0.000 A 
ATOM      2  N   UNL     1       7.240   4.882  15.905  0.00  0.00    +0.000 NA
ATOM      3  C   UNL     1       6.353   3.878  15.777  0.00  0.00    +0.000 A 
ATOM      4  N   UNL     1       5.081   3.841  16.204  0.00  0.00    +0.000 NA
ATOM      5  C   UNL     1       4.716   4.977  16.816  0.00  0.00    +0.000 A 
ATOM      6  C   UNL     1       5.511   6.096  16.986  0.00  0.00    +0.000 A 
ATOM      7  N   UNL     1       4.810   7.102  17.606  0.00  0.00    +0.000 NA
ATOM      8  C   UNL     1       3.621   6.591  17.848  0.00  0.00    +0.000 A 
ATOM      9 BR   UNL     1       2.290   7.622  18.680  0.00  0.00    +0.000 Br
ATOM     10  N   UNL     1       3.527   5.271  17.440  0.00  0.00    +0.000 N 
ENDROOT
BRANCH  10  11
ATOM     11  C   UNL     1       2.432   4.354  17.755  0.00  0.00    +0.000 C 
ATOM     12  C   UNL     1       2.733   2.863  17.556  0.00  0.00    +0.000 C 
ATOM     13  C   UNL     1       3.424   2.190  18.736  0.00  0.00    +0.000 C 
ATOM     14  C   UNL     1       2.767   2.499  20.077  0.00  0.00    +0.000 C 
ATOM     15  C   UNL     1       2.429   3.970  20.307  0.00  0.00    +0.000 C 
ATOM     16  C   UNL     1       1.759   4.633  19.109  0.00  0.00    +0.000 C 
ENDBRANCH  10  11
BRANCH   1  17
ATOM     17  N   UNL     1       7.767   7.029  16.685  0.00  0.00    +0.000 N 
ATOM     18  H   UNL     1       7.442   7.905  16.300  0.00  0.00    +0.000 HD
ATOM     19  H   UNL     1       8.215   7.039  17.592  0.00  0.00    +0.000 HD
ENDBRANCH   1  17
TORSDOF 2
ENDMDL
MODEL 3
REMARK VINA RESULT:      -6.7      1.210      1.530
REMARK  Name = 
REMARK  2 active torsions:
REMARK  status: ('A' for Active; 'I' for Inactive)
REMARK    1  A    between atoms: N_1  and  C_2
REMARK    2  A    between atoms: N_11  and  C_12
REMARK                            x       y       z     vdW  Elec       q    Type
REMARK                         _______ _______ _______ _____ _____    ______ ____
ROOT
ATOM      1  C   UNL     1       1.612   3.005  19.430  0.00  0.00    +0.000 A 
ATOM      2  N   UNL     1       2.160   1.783  19.254  0.00  0.00    +0.000 NA
ATOM      3  C   UNL     1       3.278   1.692  18.509  0.00  0.00    +0.000 A 
ATOM      4  N   UNL     1       3.940   2.682  17.889  0.00  0.00    +0.000 NA
ATOM      5  C   UNL     1       3.369   3.878  18.087  0.00  0.00    +0.000 A 
ATOM      6  C   UNL     1       2.244   4.121  18.855  0.00  0.00    +0.000 A 
ATOM      7  N   UNL     1       1.958   5.464  18.889  0.00  0.00    +0.000 NA
ATOM      8  C   UNL     1       2.868   6.026  18.121  0.00  0.00    +0.000 A 
ATOM      9 BR   UNL     1       2.891   7.889  17.876  0.00  0.00    +0.000 Br
ATOM     10  N   UNL     1       3.721   5.095  17.554  0.00  0.00    +0.000 N 
ENDROOT
BRANCH  10  11
ATOM     11  C   UNL     1       4.692   5.359  16.493  0.00  0.00    +0.000 C 
ATOM     12  C   UNL     1       5.217   6.799  16.413  0.00  0.00    +0.000 C 
ATOM     13  C   UNL     1       6.387   7.102  17.341  0.00  0.00    +0.000 C 
ATOM     14  C   UNL     1       7.492   6.052  17.282  0.00  0.00    +0.000 C 
ATOM     15  C   UNL     1       7.012   4.604  17.335  0.00  0.00    +0.000 C 
ATOM     16  C   UNL     1       5.826   4.324  16.417  0.00  0.00    +0.000 C 
ENDBRANCH  10  11
BRANCH   1  17
ATOM     17  N   UNL     1       0.443   3.087  20.173  0.00  0.00    +0.000 N 
ATOM     18  H   UNL     1      -0.294   2.511  19.790  0.00  0.00    +0.000 HD
ATOM     19  H   UNL     1       0.592   3.077  21.173  0.00  0.00    +0.000 HD
ENDBRANCH   1  17
TORSDOF 2
ENDMDL
MODEL 4
REMARK VINA RESULT:      -6.6      1.913      4.470
REMARK  Name = 
REMARK  2 active torsions:
REMARK  status: ('A' for Active; 'I' for Inactive)
REMARK    1  A    between atoms: N_1  and  C_2
REMARK    2  A    between atoms: N_11  and  C_12
REMARK                            x       y       z     vdW  Elec       q    Type
REMARK                         _______ _______ _______ _____ _____    ______ ____
ROOT
ATOM      1  C   UNL     1       6.877   6.573  17.153  0.00  0.00    +0.000 A 
ATOM      2  N   UNL     1       7.454   5.351  17.136  0.00  0.00    +0.000 NA
ATOM      3  C   UNL     1       6.678   4.281  17.392  0.00  0.00    +0.000 A 
ATOM      4  N   UNL     1       5.367   4.262  17.680  0.00  0.00    +0.000 NA
ATOM      5  C   UNL     1       4.829   5.490  17.687  0.00  0.00    +0.000 A 
ATOM      6  C   UNL     1       5.499   6.668  17.408  0.00  0.00    +0.000 A 
ATOM      7  N   UNL     1       4.639   7.739  17.450  0.00  0.00    +0.000 NA
ATOM      8  C   UNL     1       3.474   7.228  17.791  0.00  0.00    +0.000 A 
ATOM      9 BR   UNL     1       1.961   8.328  17.957  0.00  0.00    +0.000 Br
ATOM     10  N   UNL     1       3.546   5.863  18.008  0.00  0.00    +0.000 N 
ENDROOT
BRANCH  10  11
ATOM     11  C   UNL     1       2.497   5.035  18.603  0.00  0.00    +0.000 C 
ATOM     12  C   UNL     1       1.829   4.026  17.659  0.00  0.00    +0.000 C 
ATOM     13  C   UNL     1       2.570   2.703  17.513  0.00  0.00    +0.000 C 
ATOM     14  C   UNL     1       2.988   2.095  18.848  0.00  0.00    +0.000 C 
ATOM     15  C   UNL     1       3.637   3.069  19.827  0.00  0.00    +0.000 C 
ATOM     16  C   UNL     1       2.895   4.397  19.944  0.00  0.00    +0.000 C 
ENDBRANCH  10  11
BRANCH   1  17
ATOM     17  N   UNL     1       7.690   7.673  16.919  0.00  0.00    +0.000 N 
ATOM     18  H   UNL     1       7.911   7.782  15.939  0.00  0.00    +0.000 HD
ATOM     19  H   UNL     1       7.429   8.495  17.448  0.00  0.00    +0.000 HD
ENDBRANCH   1  17
TORSDOF 2
ENDMDL
MODEL 5
REMARK VINA RESULT:      -6.6      2.708      5.061
REMARK  Name = 
REMARK  2 active torsions:
REMARK  status: ('A' for Active; 'I' for Inactive)
REMARK    1  A    between atoms: N_1  and  C_2
REMARK    2  A    between atoms: N_11  and  C_12
REMARK                            x       y       z     vdW  Elec       q    Type
REMARK                         _______ _______ _______ _____ _____    ______ ____
ROOT
ATOM      1  C   UNL     1       1.663   9.162  18.632  0.00  0.00    +0.000 A 
ATOM      2  N   UNL     1       0.985   9.332  19.787  0.00  0.00    +0.000 NA
ATOM      3  C   UNL     1       1.072   8.365  20.721  0.00  0.00    +0.000 A 
ATOM      4  N   UNL     1       1.759   7.214  20.655  0.00  0.00    +0.000 NA
ATOM      5  C   UNL     1       2.419   7.080  19.496  0.00  0.00    +0.000 A 
ATOM      6  C   UNL     1       2.446   8.007  18.468  0.00  0.00    +0.000 A 
ATOM      7  N   UNL     1       3.263   7.580  17.449  0.00  0.00    +0.000 NA
ATOM      8  C   UNL     1       3.693   6.395  17.830  0.00  0.00    +0.000 A 
ATOM      9 BR   UNL     1       4.874   5.415  16.747  0.00  0.00    +0.000 Br
ATOM     10  N   UNL     1       3.159   6.012  19.048  0.00  0.00    +0.000 N 
ENDROOT
BRANCH  10  11
ATOM     11  C   UNL     1       3.257   4.680  19.644  0.00  0.00    +0.000 C 
ATOM     12  C   UNL     1       2.298   4.399  20.810  0.00  0.00    +0.000 C 
ATOM     13  C   UNL     1       0.907   3.937  20.392  0.00  0.00    +0.000 C 
ATOM     14  C   UNL     1       0.929   2.826  19.347  0.00  0.00    +0.000 C 
ATOM     15  C   UNL     1       1.887   3.054  18.181  0.00  0.00    +0.000 C 
ATOM     16  C   UNL     1       3.267   3.538  18.615  0.00  0.00    +0.000 C 
ENDBRANCH  10  11
BRANCH   1  17
ATOM     17  N   UNL     1       1.544  10.147  17.662  0.00  0.00    +0.000 N 
ATOM     18  H   UNL     1       0.591  10.250  17.338  0.00  0.00    +0.000 HD
ATOM     19  H   UNL     1       2.079  10.983  17.859  0.00  0.00    +0.000 HD
ENDBRANCH   1  17
TORSDOF 2
ENDMDL
MODEL 6
REMARK VINA RESULT:      -6.6      0.713      1.203
REMARK  Name = 
REMARK  2 active torsions:
REMARK  status: ('A' for Active; 'I' for Inactive)
REMARK    1  A    between atoms: N_1  and  C_2
REMARK    2  A    between atoms: N_11  and  C_12
REMARK                            x       y       z     vdW  Elec       q    Type
REMARK                         _______ _______ _______ _____ _____    ______ ____
ROOT
ATOM      1  C   UNL     1       2.112   3.239  19.966  0.00  0.00    +0.000 A 
ATOM      2  N   UNL     1       2.911   2.207  20.315  0.00  0.00    +0.000 NA
ATOM      3  C   UNL     1       4.233   2.325  20.090  0.00  0.00    +0.000 A 
ATOM      4  N   UNL     1       4.887   3.361  19.540  0.00  0.00    +0.000 NA
ATOM      5  C   UNL     1       4.064   4.365  19.208  0.00  0.00    +0.000 A 
ATOM      6  C   UNL     1       2.696   4.392  19.414  0.00  0.00    +0.000 A 
ATOM      7  N   UNL     1       2.165   5.592  19.007  0.00  0.00    +0.000 NA
ATOM      8  C   UNL     1       3.185   6.269  18.523  0.00  0.00    +0.000 A 
ATOM      9 BR   UNL     1       2.945   8.008  17.854  0.00  0.00    +0.000 Br
ATOM     10  N   UNL     1       4.362   5.542  18.564  0.00  0.00    +0.000 N 
ENDROOT
BRANCH  10  11
ATOM     11  C   UNL     1       5.619   5.911  17.914  0.00  0.00    +0.000 C 
ATOM     12  C   UNL     1       6.568   4.749  17.588  0.00  0.00    +0.000 C 
ATOM     13  C   UNL     1       6.278   4.041  16.271  0.00  0.00    +0.000 C 
ATOM     14  C   UNL     1       6.075   5.000  15.102  0.00  0.00    +0.000 C 
ATOM     15  C   UNL     1       5.156   6.185  15.390  0.00  0.00    +0.000 C 
ATOM     16  C   UNL     1       5.445   6.867  16.723  0.00  0.00    +0.000 C 
ENDBRANCH  10  11
BRANCH   1  17
ATOM     17  N   UNL     1       0.747   3.097  20.172  0.00  0.00    +0.000 N 
ATOM     18  H   UNL     1       0.366   2.305  19.673  0.00  0.00    +0.000 HD
ATOM     19  H   UNL     1       0.460   3.245  21.131  0.00  0.00    +0.000 HD
ENDBRANCH   1  17
TORSDOF 2
ENDMDL
MODEL 7
REMARK VINA RESULT:      -6.4      0.891      1.294
REMARK  Name = 
REMARK  2 active torsions:
REMARK  status: ('A' for Active; 'I' for Inactive)
REMARK    1  A    between atoms: N_1  and  C_2
REMARK    2  A    between atoms: N_11  and  C_12
REMARK                            x       y       z     vdW  Elec       q    Type
REMARK                         _______ _______ _______ _____ _____    ______ ____
ROOT
ATOM      1  C   UNL     1       2.767   3.207  21.098  0.00  0.00    +0.000 A 
ATOM      2  N   UNL     1       3.602   2.145  21.088  0.00  0.00    +0.000 NA
ATOM      3  C   UNL     1       4.570   2.109  20.152  0.00  0.00    +0.000 A 
ATOM      4  N   UNL     1       4.822   3.012  19.191  0.00  0.00    +0.000 NA
ATOM      5  C   UNL     1       3.975   4.050  19.232  0.00  0.00    +0.000 A 
ATOM      6  C   UNL     1       2.962   4.232  20.157  0.00  0.00    +0.000 A 
ATOM      7  N   UNL     1       2.319   5.428  19.946  0.00  0.00    +0.000 NA
ATOM      8  C   UNL     1       2.902   5.947  18.886  0.00  0.00    +0.000 A 
ATOM      9 BR   UNL     1       2.363   7.619  18.222  0.00  0.00    +0.000 Br
ATOM     10  N   UNL     1       3.883   5.117  18.370  0.00  0.00    +0.000 N 
ENDROOT
BRANCH  10  11
ATOM     11  C   UNL     1       4.563   5.290  17.087  0.00  0.00    +0.000 C 
ATOM     12  C   UNL     1       4.942   6.732  16.723  0.00  0.00    +0.000 C 
ATOM     13  C   UNL     1       6.265   7.210  17.308  0.00  0.00    +0.000 C 
ATOM     14  C   UNL     1       7.406   6.218  17.109  0.00  0.00    +0.000 C 
ATOM     15  C   UNL     1       7.066   4.766  17.438  0.00  0.00    +0.000 C 
ATOM     16  C   UNL     1       5.727   4.312  16.864  0.00  0.00    +0.000 C 
ENDBRANCH  10  11
BRANCH   1  17
ATOM     17  N   UNL     1       1.753   3.221  22.045  0.00  0.00    +0.000 N 
ATOM     18  H   UNL     1       0.987   2.611  21.794  0.00  0.00    +0.000 HD
ATOM     19  H   UNL     1       2.085   3.210  23.000  0.00  0.00    +0.000 HD
ENDBRANCH   1  17
TORSDOF 2
ENDMDL
MODEL 8
REMARK VINA RESULT:      -6.4      2.452      4.898
REMARK  Name = 
REMARK  2 active torsions:
REMARK  status: ('A' for Active; 'I' for Inactive)
REMARK    1  A    between atoms: N_1  and  C_2
REMARK    2  A    between atoms: N_11  and  C_12
REMARK                            x       y       z     vdW  Elec       q    Type
REMARK                         _______ _______ _______ _____ _____    ______ ____
ROOT
ATOM      1  C   UNL     1       2.394   8.063  18.625  0.00  0.00    +0.000 A 
ATOM      2  N   UNL     1       1.686   8.179  19.769  0.00  0.00    +0.000 NA
ATOM      3  C   UNL     1       1.533   7.081  20.533  0.00  0.00    +0.000 A 
ATOM      4  N   UNL     1       1.999   5.843  20.301  0.00  0.00    +0.000 NA
ATOM      5  C   UNL     1       2.696   5.767  19.159  0.00  0.00    +0.000 A 
ATOM      6  C   UNL     1       2.960   6.819  18.300  0.00  0.00    +0.000 A 
ATOM      7  N   UNL     1       3.747   6.407  17.252  0.00  0.00    +0.000 NA
ATOM      8  C   UNL     1       3.926   5.117  17.446  0.00  0.00    +0.000 A 
ATOM      9 BR   UNL     1       4.973   4.108  16.257  0.00  0.00    +0.000 Br
ATOM     10  N   UNL     1       3.254   4.659  18.566  0.00  0.00    +0.000 N 
ENDROOT
BRANCH  10  11
ATOM     11  C   UNL     1       3.065   3.257  18.938  0.00  0.00    +0.000 C 
ATOM     12  C   UNL     1       3.609   2.853  20.315  0.00  0.00    +0.000 C 
ATOM     13  C   UNL     1       2.662   3.123  21.477  0.00  0.00    +0.000 C 
ATOM     14  C   UNL     1       1.240   2.634  21.223  0.00  0.00    +0.000 C 
ATOM     15  C   UNL     1       0.667   2.994  19.855  0.00  0.00    +0.000 C 
ATOM     16  C   UNL     1       1.637   2.739  18.705  0.00  0.00    +0.000 C 
ENDBRANCH  10  11
BRANCH   1  17
ATOM     17  N   UNL     1       2.521   9.192  17.827  0.00  0.00    +0.000 N 
ATOM     18  H   UNL     1       1.632   9.643  17.660  0.00  0.00    +0.000 HD
ATOM     19  H   UNL     1       3.317   9.770  18.060  0.00  0.00    +0.000 HD
ENDBRANCH   1  17
TORSDOF 2
ENDMDL
MODEL 9
REMARK VINA RESULT:      -6.3      2.373      5.316
REMARK  Name = 
REMARK  2 active torsions:
REMARK  status: ('A' for Active; 'I' for Inactive)
REMARK    1  A    between atoms: N_1  and  C_2
REMARK    2  A    between atoms: N_11  and  C_12
REMARK                            x       y       z     vdW  Elec       q    Type
REMARK                         _______ _______ _______ _____ _____    ______ ____
ROOT
ATOM      1  C   UNL     1       6.978   5.050  17.345  0.00  0.00    +0.000 A 
ATOM      2  N   UNL     1       6.899   6.181  16.611  0.00  0.00    +0.000 NA
ATOM      3  C   UNL     1       5.742   6.870  16.631  0.00  0.00    +0.000 A 
ATOM      4  N   UNL     1       4.616   6.572  17.297  0.00  0.00    +0.000 NA
ATOM      5  C   UNL     1       4.732   5.445  18.015  0.00  0.00    +0.000 A 
ATOM      6  C   UNL     1       5.867   4.661  18.113  0.00  0.00    +0.000 A 
ATOM      7  N   UNL     1       5.661   3.610  18.973  0.00  0.00    +0.000 NA
ATOM      8  C   UNL     1       4.408   3.726  19.359  0.00  0.00    +0.000 A 
ATOM      9 BR   UNL     1       3.666   2.502  20.576  0.00  0.00    +0.000 Br
ATOM     10  N   UNL     1       3.772   4.798  18.756  0.00  0.00    +0.000 N 
ENDROOT
BRANCH  10  11
ATOM     11  C   UNL     1       2.336   5.075  18.797  0.00  0.00    +0.000 C 
ATOM     12  C   UNL     1       1.459   4.174  17.917  0.00  0.00    +0.000 C 
ATOM     13  C   UNL     1       1.061   2.851  18.558  0.00  0.00    +0.000 C 
ATOM     14  C   UNL     1       0.532   3.004  19.981  0.00  0.00    +0.000 C 
ATOM     15  C   UNL     1       1.364   3.910  20.885  0.00  0.00    +0.000 C 
ATOM     16  C   UNL     1       1.772   5.221  20.219  0.00  0.00    +0.000 C 
ENDBRANCH  10  11
BRANCH   1  17
ATOM     17  N   UNL     1       8.162   4.329  17.294  0.00  0.00    +0.000 N 
ATOM     18  H   UNL     1       8.173   3.665  16.532  0.00  0.00    +0.000 HD
ATOM     19  H   UNL     1       8.989   4.889  17.457  0.00  0.00    +0.000 HD
ENDBRANCH   1  17
TORSDOF 2
ENDMDL
