MODEL 1
REMARK VINA RESULT:      -8.0      0.000      0.000
REMARK  Name = 
REMARK  5 active torsions:
REMARK  status: ('A' for Active; 'I' for Inactive)
REMARK    1  A    between atoms: C_2  and  C_3
REMARK    2  A    between atoms: C_3  and  C_4
REMARK    3  A    between atoms: C_4  and  C_5
REMARK    4  A    between atoms: C_5  and  C_6
REMARK    5  A    between atoms: N_12  and  C_13
REMARK                            x       y       z     vdW  Elec       q    Type
REMARK                         _______ _______ _______ _____ _____    ______ ____
ROOT
ATOM      1  O   UNL     1       7.876   6.848  18.774  0.00  0.00    +0.000 OA
ATOM      2  C   UNL     1       7.658   7.575  17.806  0.00  0.00    +0.000 C 
ATOM      3  N   UNL     1       6.586   7.451  16.943  0.00  0.00    +0.000 N 
ATOM      4  H   UNL     1       6.606   7.997  16.088  0.00  0.00    +0.000 HD
ENDROOT
BRANCH   3   5
ATOM      5  C   UNL     1       5.544   6.507  17.072  0.00  0.00    +0.000 A 
ATOM      6  C   UNL     1       4.283   6.760  17.560  0.00  0.00    +0.000 A 
ATOM      7  N   UNL     1       3.323   5.816  17.705  0.00  0.00    +0.000 NA
ATOM      8  C   UNL     1       3.617   4.553  17.362  0.00  0.00    +0.000 A 
ATOM      9  N   UNL     1       2.652   3.583  17.501  0.00  0.00    +0.000 N 
ATOM     10  C   UNL     1       1.367   3.907  18.128  0.00  0.00    +0.000 C 
ATOM     11  C   UNL     1       1.275   3.293  19.533  0.00  0.00    +0.000 C 
ATOM     12  O   UNL     1       1.553   1.882  19.514  0.00  0.00    +0.000 OA
ATOM     13  C   UNL     1       2.879   1.649  19.014  0.00  0.00    +0.000 C 
ATOM     14  C   UNL     1       3.044   2.175  17.578  0.00  0.00    +0.000 C 
ATOM     15  N   UNL     1       4.811   4.217  16.844  0.00  0.00    +0.000 NA
ATOM     16  C   UNL     1       5.734   5.196  16.696  0.00  0.00    +0.000 A 
ENDBRANCH   3   5
BRANCH   2  17
ATOM     17  C   UNL     1       8.591   8.723  17.472  0.00  0.00    +0.000 C 
BRANCH  17  18
ATOM     18  C   UNL     1       8.235   9.983  18.260  0.00  0.00    +0.000 C 
BRANCH  18  19
ATOM     19  C   UNL     1       9.284  10.257  19.340  0.00  0.00    +0.000 C 
BRANCH  19  20
ATOM     20  C   UNL     1      10.293  11.295  18.919  0.00  0.00    +0.000 A 
ATOM     21  C   UNL     1      10.142  11.985  17.708  0.00  0.00    +0.000 A 
ATOM     22  C   UNL     1      11.074  12.951  17.322  0.00  0.00    +0.000 A 
ATOM     23  C   UNL     1      12.168  13.231  18.139  0.00  0.00    +0.000 A 
ATOM     24  C   UNL     1      12.332  12.546  19.341  0.00  0.00    +0.000 A 
ATOM     25  C   UNL     1      11.401  11.580  19.728  0.00  0.00    +0.000 A 
ENDBRANCH  19  20
ENDBRANCH  18  19
ENDBRANCH  17  18
ENDBRANCH   2  17
TORSDOF 5
ENDMDL
MODEL 2
REMARK VINA RESULT:      -7.7      1.106      1.701
REMARK  Name = 
REMARK  5 active torsions:
REMARK  status: ('A' for Active; 'I' for Inactive)
REMARK    1  A    between atoms: C_2  and  C_3
REMARK    2  A    between atoms: C_3  and  C_4
REMARK    3  A    between atoms: C_4  and  C_5
REMARK    4  A    between atoms: C_5  and  C_6
REMARK    5  A    between atoms: N_12  and  C_13
REMARK                            x       y       z     vdW  Elec       q    Type
REMARK                         _______ _______ _______ _____ _____    ______ ____
ROOT
ATOM      1  O   UNL     1       8.264   6.805  18.821  0.00  0.00    +0.000 OA
ATOM      2  C   UNL     1       7.716   7.426  17.911  0.00  0.00    +0.000 C 
ATOM      3  N   UNL     1       6.519   7.074  17.317  0.00  0.00    +0.000 N 
ATOM      4  H   UNL     1       6.255   7.561  16.467  0.00  0.00    +0.000 HD
ENDROOT
BRANCH   3   5
ATOM      5  C   UNL     1       5.711   5.982  17.701  0.00  0.00    +0.000 A 
ATOM      6  C   UNL     1       4.783   5.349  16.907  0.00  0.00    +0.000 A 
ATOM      7  N   UNL     1       3.998   4.328  17.327  0.00  0.00    +0.000 NA
ATOM      8  C   UNL     1       4.121   3.911  18.595  0.00  0.00    +0.000 A 
ATOM      9  N   UNL     1       3.333   2.874  19.035  0.00  0.00    +0.000 N 
ATOM     10  C   UNL     1       2.291   2.319  18.165  0.00  0.00    +0.000 C 
ATOM     11  C   UNL     1       0.894   2.738  18.649  0.00  0.00    +0.000 C 
ATOM     12  O   UNL     1       0.698   2.419  20.038  0.00  0.00    +0.000 OA
ATOM     13  C   UNL     1       1.670   3.105  20.843  0.00  0.00    +0.000 C 
ATOM     14  C   UNL     1       3.105   2.693  20.470  0.00  0.00    +0.000 C 
ATOM     15  N   UNL     1       5.024   4.446  19.434  0.00  0.00    +0.000 NA
ATOM     16  C   UNL     1       5.804   5.449  18.968  0.00  0.00    +0.000 A 
ENDBRANCH   3   5
BRANCH   2  17
ATOM     17  C   UNL     1       8.339   8.687  17.347  0.00  0.00    +0.000 C 
BRANCH  17  18
ATOM     18  C   UNL     1       8.122   9.884  18.274  0.00  0.00    +0.000 C 
BRANCH  18  19
ATOM     19  C   UNL     1       9.270  10.001  19.279  0.00  0.00    +0.000 C 
BRANCH  19  20
ATOM     20  C   UNL     1      10.206  11.139  18.961  0.00  0.00    +0.000 A 
ATOM     21  C   UNL     1      11.183  11.537  19.884  0.00  0.00    +0.000 A 
ATOM     22  C   UNL     1      12.054  12.587  19.586  0.00  0.00    +0.000 A 
ATOM     23  C   UNL     1      11.953  13.252  18.365  0.00  0.00    +0.000 A 
ATOM     24  C   UNL     1      10.981  12.870  17.443  0.00  0.00    +0.000 A 
ATOM     25  C   UNL     1      10.109  11.820  17.740  0.00  0.00    +0.000 A 
ENDBRANCH  19  20
ENDBRANCH  18  19
ENDBRANCH  17  18
ENDBRANCH   2  17
TORSDOF 5
ENDMDL
MODEL 3
REMARK VINA RESULT:      -7.5      1.598      1.995
REMARK  Name = 
REMARK  5 active torsions:
REMARK  status: ('A' for Active; 'I' for Inactive)
REMARK    1  A    between atoms: C_2  and  C_3
REMARK    2  A    between atoms: C_3  and  C_4
REMARK    3  A    between atoms: C_4  and  C_5
REMARK    4  A    between atoms: C_5  and  C_6
REMARK    5  A    between atoms: N_12  and  C_13
REMARK                            x       y       z     vdW  Elec       q    Type
REMARK                         _______ _______ _______ _____ _____    ______ ____
ROOT
ATOM      1  O   UNL     1       8.380   7.162  18.800  0.00  0.00    +0.000 OA
ATOM      2  C   UNL     1       7.813   7.850  17.953  0.00  0.00    +0.000 C 
ATOM      3  N   UNL     1       6.657   7.496  17.283  0.00  0.00    +0.000 N 
ATOM      4  H   UNL     1       6.381   8.064  16.489  0.00  0.00    +0.000 HD
ENDROOT
BRANCH   3   5
ATOM      5  C   UNL     1       5.918   6.314  17.508  0.00  0.00    +0.000 A 
ATOM      6  C   UNL     1       4.814   5.907  16.794  0.00  0.00    +0.000 A 
ATOM      7  N   UNL     1       4.107   4.784  17.067  0.00  0.00    +0.000 NA
ATOM      8  C   UNL     1       4.495   4.025  18.102  0.00  0.00    +0.000 A 
ATOM      9  N   UNL     1       3.790   2.881  18.391  0.00  0.00    +0.000 N 
ATOM     10  C   UNL     1       2.562   2.567  17.654  0.00  0.00    +0.000 C 
ATOM     11  C   UNL     1       1.323   2.785  18.536  0.00  0.00    +0.000 C 
ATOM     12  O   UNL     1       1.430   2.075  19.783  0.00  0.00    +0.000 OA
ATOM     13  C   UNL     1       2.581   2.531  20.513  0.00  0.00    +0.000 C 
ATOM     14  C   UNL     1       3.881   2.289  19.726  0.00  0.00    +0.000 C 
ATOM     15  N   UNL     1       5.581   4.325  18.835  0.00  0.00    +0.000 NA
ATOM     16  C   UNL     1       6.272   5.443  18.514  0.00  0.00    +0.000 A 
ENDBRANCH   3   5
BRANCH   2  17
ATOM     17  C   UNL     1       8.360   9.209  17.563  0.00  0.00    +0.000 C 
BRANCH  17  18
ATOM     18  C   UNL     1       8.982   9.929  18.760  0.00  0.00    +0.000 C 
BRANCH  18  19
ATOM     19  C   UNL     1       9.686  11.211  18.311  0.00  0.00    +0.000 C 
BRANCH  19  20
ATOM     20  C   UNL     1       9.830  12.215  19.426  0.00  0.00    +0.000 A 
ATOM     21  C   UNL     1       9.434  11.892  20.732  0.00  0.00    +0.000 A 
ATOM     22  C   UNL     1       9.574  12.821  21.765  0.00  0.00    +0.000 A 
ATOM     23  C   UNL     1      10.105  14.082  21.502  0.00  0.00    +0.000 A 
ATOM     24  C   UNL     1      10.496  14.417  20.207  0.00  0.00    +0.000 A 
ATOM     25  C   UNL     1      10.355  13.489  19.173  0.00  0.00    +0.000 A 
ENDBRANCH  19  20
ENDBRANCH  18  19
ENDBRANCH  17  18
ENDBRANCH   2  17
TORSDOF 5
ENDMDL
MODEL 4
REMARK VINA RESULT:      -7.4      5.524      9.257
REMARK  Name = 
REMARK  5 active torsions:
REMARK  status: ('A' for Active; 'I' for Inactive)
REMARK    1  A    between atoms: C_2  and  C_3
REMARK    2  A    between atoms: C_3  and  C_4
REMARK    3  A    between atoms: C_4  and  C_5
REMARK    4  A    between atoms: C_5  and  C_6
REMARK    5  A    between atoms: N_12  and  C_13
REMARK                            x       y       z     vdW  Elec       q    Type
REMARK                         _______ _______ _______ _____ _____    ______ ____
ROOT
ATOM      1  O   UNL     1       4.911   7.141  17.371  0.00  0.00    +0.000 OA
ATOM      2  C   UNL     1       4.335   6.171  17.864  0.00  0.00    +0.000 C 
ATOM      3  N   UNL     1       3.147   6.225  18.568  0.00  0.00    +0.000 N 
ATOM      4  H   UNL     1       2.861   5.391  19.071  0.00  0.00    +0.000 HD
ENDROOT
BRANCH   3   5
ATOM      5  C   UNL     1       2.380   7.391  18.781  0.00  0.00    +0.000 A 
ATOM      6  C   UNL     1       1.994   8.289  17.813  0.00  0.00    +0.000 A 
ATOM      7  N   UNL     1       1.291   9.419  18.065  0.00  0.00    +0.000 NA
ATOM      8  C   UNL     1       0.958   9.690  19.335  0.00  0.00    +0.000 A 
ATOM      9  N   UNL     1       0.242  10.832  19.608  0.00  0.00    +0.000 N 
ATOM     10  C   UNL     1      -0.042  11.795  18.540  0.00  0.00    +0.000 C 
ATOM     11  C   UNL     1       0.812  13.061  18.703  0.00  0.00    +0.000 C 
ATOM     12  O   UNL     1       0.677  13.624  20.021  0.00  0.00    +0.000 OA
ATOM     13  C   UNL     1       1.102  12.672  21.009  0.00  0.00    +0.000 C 
ATOM     14  C   UNL     1       0.252  11.390  20.961  0.00  0.00    +0.000 C 
ATOM     15  N   UNL     1       1.263   8.854  20.343  0.00  0.00    +0.000 NA
ATOM     16  C   UNL     1       1.946   7.725  20.045  0.00  0.00    +0.000 A 
ENDBRANCH   3   5
BRANCH   2  17
ATOM     17  C   UNL     1       4.910   4.775  17.727  0.00  0.00    +0.000 C 
BRANCH  17  18
ATOM     18  C   UNL     1       3.958   3.849  16.970  0.00  0.00    +0.000 C 
BRANCH  18  19
ATOM     19  C   UNL     1       3.760   2.539  17.737  0.00  0.00    +0.000 C 
BRANCH  19  20
ATOM     20  C   UNL     1       2.893   2.706  18.958  0.00  0.00    +0.000 A 
ATOM     21  C   UNL     1       3.444   2.597  20.243  0.00  0.00    +0.000 A 
ATOM     22  C   UNL     1       2.641   2.758  21.374  0.00  0.00    +0.000 A 
ATOM     23  C   UNL     1       1.281   3.026  21.232  0.00  0.00    +0.000 A 
ATOM     24  C   UNL     1       0.721   3.130  19.961  0.00  0.00    +0.000 A 
ATOM     25  C   UNL     1       1.523   2.968  18.829  0.00  0.00    +0.000 A 
ENDBRANCH  19  20
ENDBRANCH  18  19
ENDBRANCH  17  18
ENDBRANCH   2  17
TORSDOF 5
ENDMDL
MODEL 5
REMARK VINA RESULT:      -7.3      5.537      9.005
REMARK  Name = 
REMARK  5 active torsions:
REMARK  status: ('A' for Active; 'I' for Inactive)
REMARK    1  A    between atoms: C_2  and  C_3
REMARK    2  A    between atoms: C_3  and  C_4
REMARK    3  A    between atoms: C_4  and  C_5
REMARK    4  A    between atoms: C_5  and  C_6
REMARK    5  A    between atoms: N_12  and  C_13
REMARK                            x       y       z     vdW  Elec       q    Type
REMARK                         _______ _______ _______ _____ _____    ______ ____
ROOT
ATOM      1  O   UNL     1       5.288   6.905  17.437  0.00  0.00    +0.000 OA
ATOM      2  C   UNL     1       4.405   6.054  17.340  0.00  0.00    +0.000 C 
ATOM      3  N   UNL     1       3.104   6.204  17.779  0.00  0.00    +0.000 N 
ATOM      4  H   UNL     1       2.516   5.377  17.801  0.00  0.00    +0.000 HD
ENDROOT
BRANCH   3   5
ATOM      5  C   UNL     1       2.571   7.378  18.356  0.00  0.00    +0.000 A 
ATOM      6  C   UNL     1       2.182   7.527  19.667  0.00  0.00    +0.000 A 
ATOM      7  N   UNL     1       1.637   8.659  20.172  0.00  0.00    +0.000 NA
ATOM      8  C   UNL     1       1.454   9.699  19.346  0.00  0.00    +0.000 A 
ATOM      9  N   UNL     1       0.904  10.857  19.844  0.00  0.00    +0.000 N 
ATOM     10  C   UNL     1       0.416  10.906  21.225  0.00  0.00    +0.000 C 
ATOM     11  C   UNL     1      -1.120  10.921  21.262  0.00  0.00    +0.000 C 
ATOM     12  O   UNL     1      -1.659  11.968  20.436  0.00  0.00    +0.000 OA
ATOM     13  C   UNL     1      -1.250  11.779  19.072  0.00  0.00    +0.000 C 
ATOM     14  C   UNL     1       0.282  11.817  18.931  0.00  0.00    +0.000 C 
ATOM     15  N   UNL     1       1.834   9.659  18.057  0.00  0.00    +0.000 NA
ATOM     16  C   UNL     1       2.395   8.516  17.599  0.00  0.00    +0.000 A 
ENDBRANCH   3   5
BRANCH   2  17
ATOM     17  C   UNL     1       4.687   4.711  16.695  0.00  0.00    +0.000 C 
BRANCH  17  18
ATOM     18  C   UNL     1       3.516   3.745  16.874  0.00  0.00    +0.000 C 
BRANCH  18  19
ATOM     19  C   UNL     1       3.842   2.694  17.937  0.00  0.00    +0.000 C 
BRANCH  19  20
ATOM     20  C   UNL     1       2.941   2.787  19.141  0.00  0.00    +0.000 A 
ATOM     21  C   UNL     1       1.581   3.094  18.991  0.00  0.00    +0.000 A 
ATOM     22  C   UNL     1       0.746   3.173  20.108  0.00  0.00    +0.000 A 
ATOM     23  C   UNL     1       1.262   2.952  21.383  0.00  0.00    +0.000 A 
ATOM     24  C   UNL     1       2.613   2.653  21.544  0.00  0.00    +0.000 A 
ATOM     25  C   UNL     1       3.450   2.575  20.429  0.00  0.00    +0.000 A 
ENDBRANCH  19  20
ENDBRANCH  18  19
ENDBRANCH  17  18
ENDBRANCH   2  17
TORSDOF 5
ENDMDL
MODEL 6
REMARK VINA RESULT:      -7.3      5.575      9.058
REMARK  Name = 
REMARK  5 active torsions:
REMARK  status: ('A' for Active; 'I' for Inactive)
REMARK    1  A    between atoms: C_2  and  C_3
REMARK    2  A    between atoms: C_3  and  C_4
REMARK    3  A    between atoms: C_4  and  C_5
REMARK    4  A    between atoms: C_5  and  C_6
REMARK    5  A    between atoms: N_12  and  C_13
REMARK                            x       y       z     vdW  Elec       q    Type
REMARK                         _______ _______ _______ _____ _____    ______ ____
ROOT
ATOM      1  O   UNL     1       5.136   7.027  17.359  0.00  0.00    +0.000 OA
ATOM      2  C   UNL     1       4.269   6.155  17.317  0.00  0.00    +0.000 C 
ATOM      3  N   UNL     1       2.989   6.281  17.823  0.00  0.00    +0.000 N 
ATOM      4  H   UNL     1       2.423   5.441  17.884  0.00  0.00    +0.000 HD
ENDROOT
BRANCH   3   5
ATOM      5  C   UNL     1       2.460   7.448  18.415  0.00  0.00    +0.000 A 
ATOM      6  C   UNL     1       2.118   7.596  19.739  0.00  0.00    +0.000 A 
ATOM      7  N   UNL     1       1.575   8.722  20.261  0.00  0.00    +0.000 NA
ATOM      8  C   UNL     1       1.345   9.756  19.439  0.00  0.00    +0.000 A 
ATOM      9  N   UNL     1       0.796  10.907  19.954  0.00  0.00    +0.000 N 
ATOM     10  C   UNL     1       0.359  10.953  21.352  0.00  0.00    +0.000 C 
ATOM     11  C   UNL     1      -1.174  10.944  21.446  0.00  0.00    +0.000 C 
ATOM     12  O   UNL     1      -1.760  11.980  20.638  0.00  0.00    +0.000 OA
ATOM     13  C   UNL     1      -1.399  11.793  19.260  0.00  0.00    +0.000 C 
ATOM     14  C   UNL     1       0.126  11.854  19.061  0.00  0.00    +0.000 C 
ATOM     15  N   UNL     1       1.678   9.716  18.137  0.00  0.00    +0.000 NA
ATOM     16  C   UNL     1       2.239   8.580  17.662  0.00  0.00    +0.000 A 
ENDBRANCH   3   5
BRANCH   2  17
ATOM     17  C   UNL     1       4.548   4.813  16.671  0.00  0.00    +0.000 C 
BRANCH  17  18
ATOM     18  C   UNL     1       4.805   3.729  17.719  0.00  0.00    +0.000 C 
BRANCH  18  19
ATOM     19  C   UNL     1       3.641   2.737  17.763  0.00  0.00    +0.000 C 
BRANCH  19  20
ATOM     20  C   UNL     1       2.830   2.849  19.028  0.00  0.00    +0.000 A 
ATOM     21  C   UNL     1       3.424   2.623  20.278  0.00  0.00    +0.000 A 
ATOM     22  C   UNL     1       2.673   2.733  21.450  0.00  0.00    +0.000 A 
ATOM     23  C   UNL     1       1.321   3.067  21.384  0.00  0.00    +0.000 A 
ATOM     24  C   UNL     1       0.719   3.287  20.147  0.00  0.00    +0.000 A 
ATOM     25  C   UNL     1       1.468   3.175  18.974  0.00  0.00    +0.000 A 
ENDBRANCH  19  20
ENDBRANCH  18  19
ENDBRANCH  17  18
ENDBRANCH   2  17
TORSDOF 5
ENDMDL
MODEL 7
REMARK VINA RESULT:      -7.3      1.716      2.346
REMARK  Name = 
REMARK  5 active torsions:
REMARK  status: ('A' for Active; 'I' for Inactive)
REMARK    1  A    between atoms: C_2  and  C_3
REMARK    2  A    between atoms: C_3  and  C_4
REMARK    3  A    between atoms: C_4  and  C_5
REMARK    4  A    between atoms: C_5  and  C_6
REMARK    5  A    between atoms: N_12  and  C_13
REMARK                            x       y       z     vdW  Elec       q    Type
REMARK                         _______ _______ _______ _____ _____    ______ ____
ROOT
ATOM      1  O   UNL     1       7.252   9.465  17.540  0.00  0.00    +0.000 OA
ATOM      2  C   UNL     1       8.264   9.075  18.122  0.00  0.00    +0.000 C 
ATOM      3  N   UNL     1       8.461   7.797  18.608  0.00  0.00    +0.000 N 
ATOM      4  H   UNL     1       9.257   7.642  19.217  0.00  0.00    +0.000 HD
ENDROOT
BRANCH   3   5
ATOM      5  C   UNL     1       7.555   6.723  18.461  0.00  0.00    +0.000 A 
ATOM      6  C   UNL     1       6.711   6.522  17.393  0.00  0.00    +0.000 A 
ATOM      7  N   UNL     1       5.827   5.500  17.309  0.00  0.00    +0.000 NA
ATOM      8  C   UNL     1       5.758   4.633  18.330  0.00  0.00    +0.000 A 
ATOM      9  N   UNL     1       4.867   3.588  18.258  0.00  0.00    +0.000 N 
ATOM     10  C   UNL     1       3.925   3.499  17.139  0.00  0.00    +0.000 C 
ATOM     11  C   UNL     1       2.499   3.842  17.595  0.00  0.00    +0.000 C 
ATOM     12  O   UNL     1       2.102   3.052  18.730  0.00  0.00    +0.000 OA
ATOM     13  C   UNL     1       2.990   3.293  19.833  0.00  0.00    +0.000 C 
ATOM     14  C   UNL     1       4.440   2.912  19.485  0.00  0.00    +0.000 C 
ATOM     15  N   UNL     1       6.566   4.730  19.399  0.00  0.00    +0.000 NA
ATOM     16  C   UNL     1       7.451   5.753  19.433  0.00  0.00    +0.000 A 
ENDBRANCH   3   5
BRANCH   2  17
ATOM     17  C   UNL     1       9.432  10.012  18.359  0.00  0.00    +0.000 C 
BRANCH  17  18
ATOM     18  C   UNL     1       9.388  10.621  19.761  0.00  0.00    +0.000 C 
BRANCH  18  19
ATOM     19  C   UNL     1      10.631  11.476  20.015  0.00  0.00    +0.000 C 
BRANCH  19  20
ATOM     20  C   UNL     1      10.854  12.511  18.942  0.00  0.00    +0.000 A 
ATOM     21  C   UNL     1      11.925  12.388  18.045  0.00  0.00    +0.000 A 
ATOM     22  C   UNL     1      12.127  13.343  17.047  0.00  0.00    +0.000 A 
ATOM     23  C   UNL     1      11.264  14.433  16.939  0.00  0.00    +0.000 A 
ATOM     24  C   UNL     1      10.201  14.569  17.829  0.00  0.00    +0.000 A 
ATOM     25  C   UNL     1       9.999  13.615  18.828  0.00  0.00    +0.000 A 
ENDBRANCH  19  20
ENDBRANCH  18  19
ENDBRANCH  17  18
ENDBRANCH   2  17
TORSDOF 5
ENDMDL
MODEL 8
REMARK VINA RESULT:      -7.2      7.581     10.112
REMARK  Name = 
REMARK  5 active torsions:
REMARK  status: ('A' for Active; 'I' for Inactive)
REMARK    1  A    between atoms: C_2  and  C_3
REMARK    2  A    between atoms: C_3  and  C_4
REMARK    3  A    between atoms: C_4  and  C_5
REMARK    4  A    between atoms: C_5  and  C_6
REMARK    5  A    between atoms: N_12  and  C_13
REMARK                            x       y       z     vdW  Elec       q    Type
REMARK                         _______ _______ _______ _____ _____    ______ ____
ROOT
ATOM      1  O   UNL     1       0.162   9.493  19.695  0.00  0.00    +0.000 OA
ATOM      2  C   UNL     1       0.445   9.808  18.540  0.00  0.00    +0.000 C 
ATOM      3  N   UNL     1      -0.418  10.412  17.646  0.00  0.00    +0.000 N 
ATOM      4  H   UNL     1      -0.127  10.467  16.675  0.00  0.00    +0.000 HD
ENDROOT
BRANCH   3   5
ATOM      5  C   UNL     1      -1.740  10.813  17.937  0.00  0.00    +0.000 A 
ATOM      6  C   UNL     1      -2.103  11.874  18.735  0.00  0.00    +0.000 A 
ATOM      7  N   UNL     1      -3.386  12.201  19.022  0.00  0.00    +0.000 NA
ATOM      8  C   UNL     1      -4.366  11.443  18.509  0.00  0.00    +0.000 A 
ATOM      9  N   UNL     1      -5.673  11.764  18.789  0.00  0.00    +0.000 N 
ATOM     10  C   UNL     1      -5.981  12.842  19.732  0.00  0.00    +0.000 C 
ATOM     11  C   UNL     1      -6.508  12.275  21.059  0.00  0.00    +0.000 C 
ATOM     12  O   UNL     1      -7.613  11.378  20.848  0.00  0.00    +0.000 OA
ATOM     13  C   UNL     1      -7.201  10.274  20.027  0.00  0.00    +0.000 C 
ATOM     14  C   UNL     1      -6.717  10.748  18.645  0.00  0.00    +0.000 C 
ATOM     15  N   UNL     1      -4.108  10.407  17.692  0.00  0.00    +0.000 NA
ATOM     16  C   UNL     1      -2.814  10.128  17.412  0.00  0.00    +0.000 A 
ENDBRANCH   3   5
BRANCH   2  17
ATOM     17  C   UNL     1       1.832   9.551  17.983  0.00  0.00    +0.000 C 
BRANCH  17  18
ATOM     18  C   UNL     1       2.153   8.057  17.945  0.00  0.00    +0.000 C 
BRANCH  18  19
ATOM     19  C   UNL     1       3.650   7.834  17.720  0.00  0.00    +0.000 C 
BRANCH  19  20
ATOM     20  C   UNL     1       3.971   6.423  17.300  0.00  0.00    +0.000 A 
ATOM     21  C   UNL     1       3.255   5.341  17.832  0.00  0.00    +0.000 A 
ATOM     22  C   UNL     1       3.549   4.035  17.437  0.00  0.00    +0.000 A 
ATOM     23  C   UNL     1       4.563   3.796  16.511  0.00  0.00    +0.000 A 
ATOM     24  C   UNL     1       5.286   4.863  15.982  0.00  0.00    +0.000 A 
ATOM     25  C   UNL     1       4.994   6.170  16.377  0.00  0.00    +0.000 A 
ENDBRANCH  19  20
ENDBRANCH  18  19
ENDBRANCH  17  18
ENDBRANCH   2  17
TORSDOF 5
ENDMDL
MODEL 9
REMARK VINA RESULT:      -7.2      1.373      1.781
REMARK  Name = 
REMARK  5 active torsions:
REMARK  status: ('A' for Active; 'I' for Inactive)
REMARK    1  A    between atoms: C_2  and  C_3
REMARK    2  A    between atoms: C_3  and  C_4
REMARK    3  A    between atoms: C_4  and  C_5
REMARK    4  A    between atoms: C_5  and  C_6
REMARK    5  A    between atoms: N_12  and  C_13
REMARK                            x       y       z     vdW  Elec       q    Type
REMARK                         _______ _______ _______ _____ _____    ______ ____
ROOT
ATOM      1  O   UNL     1       8.117   6.967  18.682  0.00  0.00    +0.000 OA
ATOM      2  C   UNL     1       7.768   7.814  17.861  0.00  0.00    +0.000 C 
ATOM      3  N   UNL     1       6.626   7.749  17.086  0.00  0.00    +0.000 N 
ATOM      4  H   UNL     1       6.534   8.416  16.327  0.00  0.00    +0.000 HD
ENDROOT
BRANCH   3   5
ATOM      5  C   UNL     1       5.653   6.729  17.158  0.00  0.00    +0.000 A 
ATOM      6  C   UNL     1       4.332   6.898  17.506  0.00  0.00    +0.000 A 
ATOM      7  N   UNL     1       3.438   5.886  17.602  0.00  0.00    +0.000 NA
ATOM      8  C   UNL     1       3.862   4.638  17.354  0.00  0.00    +0.000 A 
ATOM      9  N   UNL     1       2.966   3.599  17.445  0.00  0.00    +0.000 N 
ATOM     10  C   UNL     1       1.602   3.842  17.924  0.00  0.00    +0.000 C 
ATOM     11  C   UNL     1       1.413   3.283  19.343  0.00  0.00    +0.000 C 
ATOM     12  O   UNL     1       1.800   1.900  19.422  0.00  0.00    +0.000 OA
ATOM     13  C   UNL     1       3.185   1.755  19.069  0.00  0.00    +0.000 C 
ATOM     14  C   UNL     1       3.455   2.232  17.631  0.00  0.00    +0.000 C 
ATOM     15  N   UNL     1       5.125   4.379  16.975  0.00  0.00    +0.000 NA
ATOM     16  C   UNL     1       5.981   5.423  16.869  0.00  0.00    +0.000 A 
ENDBRANCH   3   5
BRANCH   2  17
ATOM     17  C   UNL     1       8.603   9.058  17.627  0.00  0.00    +0.000 C 
BRANCH  17  18
ATOM     18  C   UNL     1       8.870   9.808  18.933  0.00  0.00    +0.000 C 
BRANCH  18  19
ATOM     19  C   UNL     1       9.985  10.839  18.742  0.00  0.00    +0.000 C 
BRANCH  19  20
ATOM     20  C   UNL     1       9.719  12.125  19.480  0.00  0.00    +0.000 A 
ATOM     21  C   UNL     1      10.252  12.336  20.760  0.00  0.00    +0.000 A 
ATOM     22  C   UNL     1      10.010  13.532  21.440  0.00  0.00    +0.000 A 
ATOM     23  C   UNL     1       9.229  14.524  20.851  0.00  0.00    +0.000 A 
ATOM     24  C   UNL     1       8.688  14.323  19.582  0.00  0.00    +0.000 A 
ATOM     25  C   UNL     1       8.929  13.127  18.902  0.00  0.00    +0.000 A 
ENDBRANCH  19  20
ENDBRANCH  18  19
ENDBRANCH  17  18
ENDBRANCH   2  17
TORSDOF 5
ENDMDL
