MODEL 1
REMARK VINA RESULT:      -8.0      0.000      0.000
REMARK  Name = 
REMARK  11 active torsions:
REMARK  status: ('A' for Active; 'I' for Inactive)
REMARK    1  A    between atoms: C_1  and  C_2
REMARK    2  A    between atoms: C_2  and  C_3
REMARK    3  A    between atoms: C_2  and  C_4
REMARK    4  A    between atoms: C_2  and  C_9
REMARK    5  A    between atoms: C_4  and  O_5
REMARK    6  A    between atoms: O_5  and  N_6
REMARK    7  A    between atoms: N_11  and  C_12
REMARK    8  A    between atoms: C_12  and  C_13
REMARK    9  A    between atoms: C_13  and  C_14
REMARK   10  A    between atoms: C_14  and  N_15
REMARK   11  A    between atoms: N_15  and  C_16
REMARK                            x       y       z     vdW  Elec       q    Type
REMARK                         _______ _______ _______ _____ _____    ______ ____
ROOT
ATOM      1  N   UNL     1       3.258   6.668  19.731  0.00  0.00    +0.000 N 
ATOM      2  H   UNL     1       3.193   6.322  20.688  0.00  0.00    +0.000 HD
ENDROOT
BRANCH   1   3
ATOM      3  C   UNL     1       3.550   5.587  18.837  0.00  0.00    +0.000 A 
ATOM      4  C   UNL     1       2.669   4.466  18.911  0.00  0.00    +0.000 A 
ATOM      5  C   UNL     1       2.920   3.371  18.082  0.00  0.00    +0.000 A 
ATOM      6  N   UNL     1       3.961   3.318  17.227  0.00  0.00    +0.000 NA
ATOM      7  C   UNL     1       4.814   4.342  17.164  0.00  0.00    +0.000 A 
ATOM      8  C   UNL     1       5.853   4.182  16.252  0.00  0.00    +0.000 A 
ATOM      9  C   UNL     1       6.837   5.143  16.053  0.00  0.00    +0.000 A 
ATOM     10  C   UNL     1       6.795   6.299  16.794  0.00  0.00    +0.000 A 
ATOM     11  C   UNL     1       5.758   6.469  17.715  0.00  0.00    +0.000 A 
ATOM     12  C   UNL     1       4.707   5.512  17.944  0.00  0.00    +0.000 A 
ATOM     13  C   UNL     1       2.108   2.104  18.132  0.00  0.00    +0.000 C 
ATOM     14  C   UNL     1       0.799   2.205  18.902  0.00  0.00    +0.000 C 
ATOM     15  C   UNL     1       0.990   3.030  20.166  0.00  0.00    +0.000 C 
ATOM     16  C   UNL     1       1.442   4.445  19.800  0.00  0.00    +0.000 C 
ENDBRANCH   1   3
BRANCH   1  17
ATOM     17  C   UNL     1       2.187   7.583  19.401  0.00  0.00    +0.000 C 
BRANCH  17  18
ATOM     18  C   UNL     1       2.119   8.067  17.966  0.00  0.00    +0.000 C 
BRANCH  18  19
ATOM     19  C   UNL     1       2.191   9.609  17.971  0.00  0.00    +0.000 C 
BRANCH  19  22
ATOM     20  C   UNL     1       0.400  10.879  19.117  0.00  0.00    +0.000 C 
ATOM     21  O   UNL     1       1.024  10.856  20.173  0.00  0.00    +0.000 OA
ATOM     22  N   UNL     1       0.891  10.271  17.982  0.00  0.00    +0.000 N 
ATOM     23  H   UNL     1       0.370  10.329  17.115  0.00  0.00    +0.000 HD
BRANCH  20  25
ATOM     24  C   UNL     1      -0.846  12.861  18.170  0.00  0.00    +0.000 C 
ATOM     25  C   UNL     1      -0.973  11.565  18.990  0.00  0.00    +0.000 C 
ATOM     26  C   UNL     1      -1.536  11.889  20.382  0.00  0.00    +0.000 C 
BRANCH  25  27
ATOM     27  C   UNL     1      -1.922  10.597  18.239  0.00  0.00    +0.000 C 
BRANCH  27  28
ATOM     28  O   UNL     1      -1.907  10.888  16.839  0.00  0.00    +0.000 OA
BRANCH  28  29
ATOM     29  N   UNL     1      -3.126  10.569  16.201  0.00  0.00    +0.000 N 
ATOM     30  O   UNL     1      -3.128   9.596  15.445  0.00  0.00    +0.000 OA
ATOM     31  O   UNL     1      -4.023  11.372  16.456  0.00  0.00    +0.000 OA
ENDBRANCH  28  29
ENDBRANCH  27  28
ENDBRANCH  25  27
ENDBRANCH  20  25
ENDBRANCH  19  22
ENDBRANCH  18  19
ENDBRANCH  17  18
ENDBRANCH   1  17
TORSDOF 9
ENDMDL
MODEL 2
REMARK VINA RESULT:      -7.9      1.918      3.135
REMARK  Name = 
REMARK  11 active torsions:
REMARK  status: ('A' for Active; 'I' for Inactive)
REMARK    1  A    between atoms: C_1  and  C_2
REMARK    2  A    between atoms: C_2  and  C_3
REMARK    3  A    between atoms: C_2  and  C_4
REMARK    4  A    between atoms: C_2  and  C_9
REMARK    5  A    between atoms: C_4  and  O_5
REMARK    6  A    between atoms: O_5  and  N_6
REMARK    7  A    between atoms: N_11  and  C_12
REMARK    8  A    between atoms: C_12  and  C_13
REMARK    9  A    between atoms: C_13  and  C_14
REMARK   10  A    between atoms: C_14  and  N_15
REMARK   11  A    between atoms: N_15  and  C_16
REMARK                            x       y       z     vdW  Elec       q    Type
REMARK                         _______ _______ _______ _____ _____    ______ ____
ROOT
ATOM      1  N   UNL     1       3.029   7.102  19.618  0.00  0.00    +0.000 N 
ATOM      2  H   UNL     1       3.127   6.969  20.625  0.00  0.00    +0.000 HD
ENDROOT
BRANCH   1   3
ATOM      3  C   UNL     1       3.270   5.866  18.934  0.00  0.00    +0.000 A 
ATOM      4  C   UNL     1       2.757   4.695  19.569  0.00  0.00    +0.000 A 
ATOM      5  C   UNL     1       2.985   3.459  18.962  0.00  0.00    +0.000 A 
ATOM      6  N   UNL     1       3.677   3.318  17.814  0.00  0.00    +0.000 NA
ATOM      7  C   UNL     1       4.192   4.396  17.220  0.00  0.00    +0.000 A 
ATOM      8  C   UNL     1       4.890   4.139  16.044  0.00  0.00    +0.000 A 
ATOM      9  C   UNL     1       5.496   5.138  15.291  0.00  0.00    +0.000 A 
ATOM     10  C   UNL     1       5.417   6.438  15.729  0.00  0.00    +0.000 A 
ATOM     11  C   UNL     1       4.722   6.709  16.910  0.00  0.00    +0.000 A 
ATOM     12  C   UNL     1       4.063   5.712  17.713  0.00  0.00    +0.000 A 
ATOM     13  C   UNL     1       2.562   2.153  19.581  0.00  0.00    +0.000 C 
ATOM     14  C   UNL     1       1.585   2.274  20.743  0.00  0.00    +0.000 C 
ATOM     15  C   UNL     1       1.967   3.445  21.635  0.00  0.00    +0.000 C 
ATOM     16  C   UNL     1       1.923   4.747  20.833  0.00  0.00    +0.000 C 
ENDBRANCH   1   3
BRANCH   1  17
ATOM     17  C   UNL     1       1.858   7.877  19.275  0.00  0.00    +0.000 C 
BRANCH  17  18
ATOM     18  C   UNL     1       2.004   8.875  18.143  0.00  0.00    +0.000 C 
BRANCH  18  19
ATOM     19  C   UNL     1       0.787   9.823  18.172  0.00  0.00    +0.000 C 
BRANCH  19  22
ATOM     20  C   UNL     1      -0.032  11.877  19.289  0.00  0.00    +0.000 C 
ATOM     21  O   UNL     1      -0.777  12.123  18.346  0.00  0.00    +0.000 OA
ATOM     22  N   UNL     1       0.792  10.772  19.281  0.00  0.00    +0.000 N 
ATOM     23  H   UNL     1       1.377  10.575  20.084  0.00  0.00    +0.000 HD
BRANCH  20  25
ATOM     24  C   UNL     1      -0.941  13.956  20.397  0.00  0.00    +0.000 C 
ATOM     25  C   UNL     1       0.050  12.786  20.529  0.00  0.00    +0.000 C 
ATOM     26  C   UNL     1       1.476  13.334  20.694  0.00  0.00    +0.000 C 
BRANCH  25  27
ATOM     27  C   UNL     1      -0.346  11.942  21.767  0.00  0.00    +0.000 C 
BRANCH  27  28
ATOM     28  O   UNL     1       0.692  11.006  22.070  0.00  0.00    +0.000 OA
BRANCH  28  29
ATOM     29  N   UNL     1       0.195   9.779  22.564  0.00  0.00    +0.000 N 
ATOM     30  O   UNL     1      -0.290   8.998  21.744  0.00  0.00    +0.000 OA
ATOM     31  O   UNL     1       0.268   9.692  23.789  0.00  0.00    +0.000 OA
ENDBRANCH  28  29
ENDBRANCH  27  28
ENDBRANCH  25  27
ENDBRANCH  20  25
ENDBRANCH  19  22
ENDBRANCH  18  19
ENDBRANCH  17  18
ENDBRANCH   1  17
TORSDOF 9
ENDMDL
MODEL 3
REMARK VINA RESULT:      -7.9      2.061      4.438
REMARK  Name = 
REMARK  11 active torsions:
REMARK  status: ('A' for Active; 'I' for Inactive)
REMARK    1  A    between atoms: C_1  and  C_2
REMARK    2  A    between atoms: C_2  and  C_3
REMARK    3  A    between atoms: C_2  and  C_4
REMARK    4  A    between atoms: C_2  and  C_9
REMARK    5  A    between atoms: C_4  and  O_5
REMARK    6  A    between atoms: O_5  and  N_6
REMARK    7  A    between atoms: N_11  and  C_12
REMARK    8  A    between atoms: C_12  and  C_13
REMARK    9  A    between atoms: C_13  and  C_14
REMARK   10  A    between atoms: C_14  and  N_15
REMARK   11  A    between atoms: N_15  and  C_16
REMARK                            x       y       z     vdW  Elec       q    Type
REMARK                         _______ _______ _______ _____ _____    ______ ____
ROOT
ATOM      1  N   UNL     1       3.452   6.695  19.559  0.00  0.00    +0.000 N 
ATOM      2  H   UNL     1       3.577   6.531  20.558  0.00  0.00    +0.000 HD
ENDROOT
BRANCH   1   3
ATOM      3  C   UNL     1       3.511   5.453  18.847  0.00  0.00    +0.000 A 
ATOM      4  C   UNL     1       4.552   5.344  17.875  0.00  0.00    +0.000 A 
ATOM      5  C   UNL     1       4.642   4.167  17.130  0.00  0.00    +0.000 A 
ATOM      6  N   UNL     1       3.786   3.135  17.277  0.00  0.00    +0.000 NA
ATOM      7  C   UNL     1       2.788   3.227  18.158  0.00  0.00    +0.000 A 
ATOM      8  C   UNL     1       1.964   2.109  18.227  0.00  0.00    +0.000 A 
ATOM      9  C   UNL     1       0.873   2.027  19.084  0.00  0.00    +0.000 A 
ATOM     10  C   UNL     1       0.584   3.098  19.895  0.00  0.00    +0.000 A 
ATOM     11  C   UNL     1       1.404   4.228  19.832  0.00  0.00    +0.000 A 
ATOM     12  C   UNL     1       2.553   4.354  18.974  0.00  0.00    +0.000 A 
ATOM     13  C   UNL     1       5.645   3.973  16.024  0.00  0.00    +0.000 C 
ATOM     14  C   UNL     1       6.766   5.002  15.981  0.00  0.00    +0.000 C 
ATOM     15  C   UNL     1       6.221   6.392  16.271  0.00  0.00    +0.000 C 
ATOM     16  C   UNL     1       5.594   6.424  17.667  0.00  0.00    +0.000 C 
ENDBRANCH   1   3
BRANCH   1  17
ATOM     17  C   UNL     1       2.367   7.611  19.282  0.00  0.00    +0.000 C 
BRANCH  17  18
ATOM     18  C   UNL     1       2.168   8.019  17.835  0.00  0.00    +0.000 C 
BRANCH  18  19
ATOM     19  C   UNL     1       2.025   9.555  17.780  0.00  0.00    +0.000 C 
BRANCH  19  22
ATOM     20  C   UNL     1       0.641  11.225  18.977  0.00  0.00    +0.000 C 
ATOM     21  O   UNL     1       1.639  11.874  19.276  0.00  0.00    +0.000 OA
ATOM     22  N   UNL     1       0.739  10.054  18.256  0.00  0.00    +0.000 N 
ATOM     23  H   UNL     1      -0.102   9.552  17.997  0.00  0.00    +0.000 HD
BRANCH  20  25
ATOM     24  C   UNL     1      -1.830  10.868  18.604  0.00  0.00    +0.000 C 
ATOM     25  C   UNL     1      -0.775  11.657  19.398  0.00  0.00    +0.000 C 
ATOM     26  C   UNL     1      -0.966  13.162  19.157  0.00  0.00    +0.000 C 
BRANCH  25  27
ATOM     27  C   UNL     1      -0.945  11.330  20.904  0.00  0.00    +0.000 C 
BRANCH  27  28
ATOM     28  O   UNL     1      -0.414  10.032  21.183  0.00  0.00    +0.000 OA
BRANCH  28  29
ATOM     29  N   UNL     1       0.240   9.965  22.433  0.00  0.00    +0.000 N 
ATOM     30  O   UNL     1      -0.430  10.229  23.433  0.00  0.00    +0.000 OA
ATOM     31  O   UNL     1       1.437   9.701  22.333  0.00  0.00    +0.000 OA
ENDBRANCH  28  29
ENDBRANCH  27  28
ENDBRANCH  25  27
ENDBRANCH  20  25
ENDBRANCH  19  22
ENDBRANCH  18  19
ENDBRANCH  17  18
ENDBRANCH   1  17
TORSDOF 9
ENDMDL
MODEL 4
REMARK VINA RESULT:      -7.7      2.565      4.620
REMARK  Name = 
REMARK  11 active torsions:
REMARK  status: ('A' for Active; 'I' for Inactive)
REMARK    1  A    between atoms: C_1  and  C_2
REMARK    2  A    between atoms: C_2  and  C_3
REMARK    3  A    between atoms: C_2  and  C_4
REMARK    4  A    between atoms: C_2  and  C_9
REMARK    5  A    between atoms: C_4  and  O_5
REMARK    6  A    between atoms: O_5  and  N_6
REMARK    7  A    between atoms: N_11  and  C_12
REMARK    8  A    between atoms: C_12  and  C_13
REMARK    9  A    between atoms: C_13  and  C_14
REMARK   10  A    between atoms: C_14  and  N_15
REMARK   11  A    between atoms: N_15  and  C_16
REMARK                            x       y       z     vdW  Elec       q    Type
REMARK                         _______ _______ _______ _____ _____    ______ ____
ROOT
ATOM      1  N   UNL     1       2.113   6.643  18.020  0.00  0.00    +0.000 N 
ATOM      2  H   UNL     1       2.106   6.650  17.001  0.00  0.00    +0.000 HD
ENDROOT
BRANCH   1   3
ATOM      3  C   UNL     1       3.017   5.638  18.498  0.00  0.00    +0.000 A 
ATOM      4  C   UNL     1       4.304   5.617  17.881  0.00  0.00    +0.000 A 
ATOM      5  C   UNL     1       5.217   4.642  18.286  0.00  0.00    +0.000 A 
ATOM      6  N   UNL     1       4.935   3.713  19.222  0.00  0.00    +0.000 NA
ATOM      7  C   UNL     1       3.728   3.695  19.789  0.00  0.00    +0.000 A 
ATOM      8  C   UNL     1       3.542   2.694  20.738  0.00  0.00    +0.000 A 
ATOM      9  C   UNL     1       2.349   2.521  21.429  0.00  0.00    +0.000 A 
ATOM     10  C   UNL     1       1.298   3.364  21.160  0.00  0.00    +0.000 A 
ATOM     11  C   UNL     1       1.472   4.371  20.207  0.00  0.00    +0.000 A 
ATOM     12  C   UNL     1       2.692   4.601  19.479  0.00  0.00    +0.000 A 
ATOM     13  C   UNL     1       6.571   4.473  17.650  0.00  0.00    +0.000 C 
ATOM     14  C   UNL     1       7.018   5.629  16.765  0.00  0.00    +0.000 C 
ATOM     15  C   UNL     1       5.851   6.142  15.935  0.00  0.00    +0.000 C 
ATOM     16  C   UNL     1       4.738   6.646  16.857  0.00  0.00    +0.000 C 
ENDBRANCH   1   3
BRANCH   1  17
ATOM     17  C   UNL     1       2.185   7.974  18.581  0.00  0.00    +0.000 C 
BRANCH  17  18
ATOM     18  C   UNL     1       1.590   9.098  17.756  0.00  0.00    +0.000 C 
BRANCH  18  19
ATOM     19  C   UNL     1       1.745  10.414  18.548  0.00  0.00    +0.000 C 
BRANCH  19  22
ATOM     20  C   UNL     1       0.382  12.126  19.709  0.00  0.00    +0.000 C 
ATOM     21  O   UNL     1       1.267  12.964  19.566  0.00  0.00    +0.000 OA
ATOM     22  N   UNL     1       0.540  10.834  19.255  0.00  0.00    +0.000 N 
ATOM     23  H   UNL     1      -0.217  10.169  19.360  0.00  0.00    +0.000 HD
BRANCH  20  25
ATOM     24  C   UNL     1      -2.117  12.346  19.423  0.00  0.00    +0.000 C 
ATOM     25  C   UNL     1      -0.947  12.449  20.417  0.00  0.00    +0.000 C 
ATOM     26  C   UNL     1      -0.901  13.863  21.015  0.00  0.00    +0.000 C 
BRANCH  25  27
ATOM     27  C   UNL     1      -1.157  11.399  21.538  0.00  0.00    +0.000 C 
BRANCH  27  28
ATOM     28  O   UNL     1       0.074  11.169  22.227  0.00  0.00    +0.000 OA
BRANCH  28  29
ATOM     29  N   UNL     1       0.234   9.824  22.627  0.00  0.00    +0.000 N 
ATOM     30  O   UNL     1       0.517   9.617  23.808  0.00  0.00    +0.000 OA
ATOM     31  O   UNL     1       0.122   9.031  21.693  0.00  0.00    +0.000 OA
ENDBRANCH  28  29
ENDBRANCH  27  28
ENDBRANCH  25  27
ENDBRANCH  20  25
ENDBRANCH  19  22
ENDBRANCH  18  19
ENDBRANCH  17  18
ENDBRANCH   1  17
TORSDOF 9
ENDMDL
MODEL 5
REMARK VINA RESULT:      -7.7      1.582      2.878
REMARK  Name = 
REMARK  11 active torsions:
REMARK  status: ('A' for Active; 'I' for Inactive)
REMARK    1  A    between atoms: C_1  and  C_2
REMARK    2  A    between atoms: C_2  and  C_3
REMARK    3  A    between atoms: C_2  and  C_4
REMARK    4  A    between atoms: C_2  and  C_9
REMARK    5  A    between atoms: C_4  and  O_5
REMARK    6  A    between atoms: O_5  and  N_6
REMARK    7  A    between atoms: N_11  and  C_12
REMARK    8  A    between atoms: C_12  and  C_13
REMARK    9  A    between atoms: C_13  and  C_14
REMARK   10  A    between atoms: C_14  and  N_15
REMARK   11  A    between atoms: N_15  and  C_16
REMARK                            x       y       z     vdW  Elec       q    Type
REMARK                         _______ _______ _______ _____ _____    ______ ____
ROOT
ATOM      1  N   UNL     1       3.194   6.693  19.667  0.00  0.00    +0.000 N 
ATOM      2  H   UNL     1       3.057   6.336  20.613  0.00  0.00    +0.000 HD
ENDROOT
BRANCH   1   3
ATOM      3  C   UNL     1       3.489   5.612  18.773  0.00  0.00    +0.000 A 
ATOM      4  C   UNL     1       2.618   4.484  18.855  0.00  0.00    +0.000 A 
ATOM      5  C   UNL     1       2.874   3.389  18.028  0.00  0.00    +0.000 A 
ATOM      6  N   UNL     1       3.909   3.342  17.166  0.00  0.00    +0.000 NA
ATOM      7  C   UNL     1       4.753   4.373  17.095  0.00  0.00    +0.000 A 
ATOM      8  C   UNL     1       5.787   4.220  16.176  0.00  0.00    +0.000 A 
ATOM      9  C   UNL     1       6.762   5.189  15.968  0.00  0.00    +0.000 A 
ATOM     10  C   UNL     1       6.715   6.347  16.707  0.00  0.00    +0.000 A 
ATOM     11  C   UNL     1       5.683   6.510  17.635  0.00  0.00    +0.000 A 
ATOM     12  C   UNL     1       4.642   5.545  17.873  0.00  0.00    +0.000 A 
ATOM     13  C   UNL     1       2.073   2.115  18.086  0.00  0.00    +0.000 C 
ATOM     14  C   UNL     1       0.768   2.207  18.865  0.00  0.00    +0.000 C 
ATOM     15  C   UNL     1       0.961   3.036  20.125  0.00  0.00    +0.000 C 
ATOM     16  C   UNL     1       1.398   4.454  19.753  0.00  0.00    +0.000 C 
ENDBRANCH   1   3
BRANCH   1  17
ATOM     17  C   UNL     1       2.187   7.660  19.290  0.00  0.00    +0.000 C 
BRANCH  17  18
ATOM     18  C   UNL     1       2.508   8.559  18.112  0.00  0.00    +0.000 C 
BRANCH  18  19
ATOM     19  C   UNL     1       1.183   9.133  17.566  0.00  0.00    +0.000 C 
BRANCH  19  22
ATOM     20  C   UNL     1      -0.540  10.633  18.522  0.00  0.00    +0.000 C 
ATOM     21  O   UNL     1      -1.422   9.814  18.282  0.00  0.00    +0.000 OA
ATOM     22  N   UNL     1       0.774  10.389  18.184  0.00  0.00    +0.000 N 
ATOM     23  H   UNL     1       1.487  11.069  18.419  0.00  0.00    +0.000 HD
BRANCH  20  25
ATOM     24  C   UNL     1      -2.357  12.187  19.335  0.00  0.00    +0.000 C 
ATOM     25  C   UNL     1      -0.838  11.987  19.192  0.00  0.00    +0.000 C 
ATOM     26  C   UNL     1      -0.242  13.134  18.363  0.00  0.00    +0.000 C 
BRANCH  25  27
ATOM     27  C   UNL     1      -0.209  11.966  20.609  0.00  0.00    +0.000 C 
BRANCH  27  28
ATOM     28  O   UNL     1      -1.034  11.207  21.497  0.00  0.00    +0.000 OA
BRANCH  28  29
ATOM     29  N   UNL     1      -0.641  11.330  22.848  0.00  0.00    +0.000 N 
ATOM     30  O   UNL     1      -0.242  10.312  23.415  0.00  0.00    +0.000 OA
ATOM     31  O   UNL     1      -0.818  12.463  23.295  0.00  0.00    +0.000 OA
ENDBRANCH  28  29
ENDBRANCH  27  28
ENDBRANCH  25  27
ENDBRANCH  20  25
ENDBRANCH  19  22
ENDBRANCH  18  19
ENDBRANCH  17  18
ENDBRANCH   1  17
TORSDOF 9
ENDMDL
MODEL 6
REMARK VINA RESULT:      -7.7      0.999      1.237
REMARK  Name = 
REMARK  11 active torsions:
REMARK  status: ('A' for Active; 'I' for Inactive)
REMARK    1  A    between atoms: C_1  and  C_2
REMARK    2  A    between atoms: C_2  and  C_3
REMARK    3  A    between atoms: C_2  and  C_4
REMARK    4  A    between atoms: C_2  and  C_9
REMARK    5  A    between atoms: C_4  and  O_5
REMARK    6  A    between atoms: O_5  and  N_6
REMARK    7  A    between atoms: N_11  and  C_12
REMARK    8  A    between atoms: C_12  and  C_13
REMARK    9  A    between atoms: C_13  and  C_14
REMARK   10  A    between atoms: C_14  and  N_15
REMARK   11  A    between atoms: N_15  and  C_16
REMARK                            x       y       z     vdW  Elec       q    Type
REMARK                         _______ _______ _______ _____ _____    ______ ____
ROOT
ATOM      1  N   UNL     1       3.254   6.624  19.735  0.00  0.00    +0.000 N 
ATOM      2  H   UNL     1       3.082   6.261  20.673  0.00  0.00    +0.000 HD
ENDROOT
BRANCH   1   3
ATOM      3  C   UNL     1       3.543   5.545  18.838  0.00  0.00    +0.000 A 
ATOM      4  C   UNL     1       2.655   4.429  18.903  0.00  0.00    +0.000 A 
ATOM      5  C   UNL     1       2.904   3.335  18.071  0.00  0.00    +0.000 A 
ATOM      6  N   UNL     1       3.948   3.280  17.220  0.00  0.00    +0.000 NA
ATOM      7  C   UNL     1       4.807   4.299  17.165  0.00  0.00    +0.000 A 
ATOM      8  C   UNL     1       5.849   4.137  16.256  0.00  0.00    +0.000 A 
ATOM      9  C   UNL     1       6.839   5.093  16.065  0.00  0.00    +0.000 A 
ATOM     10  C   UNL     1       6.801   6.247  16.811  0.00  0.00    +0.000 A 
ATOM     11  C   UNL     1       5.761   6.419  17.729  0.00  0.00    +0.000 A 
ATOM     12  C   UNL     1       4.704   5.467  17.949  0.00  0.00    +0.000 A 
ATOM     13  C   UNL     1       2.085   2.072  18.112  0.00  0.00    +0.000 C 
ATOM     14  C   UNL     1       0.773   2.178  18.878  0.00  0.00    +0.000 C 
ATOM     15  C   UNL     1       0.964   2.996  20.145  0.00  0.00    +0.000 C 
ATOM     16  C   UNL     1       1.425   4.411  19.787  0.00  0.00    +0.000 C 
ENDBRANCH   1   3
BRANCH   1  17
ATOM     17  C   UNL     1       2.283   7.622  19.342  0.00  0.00    +0.000 C 
BRANCH  17  18
ATOM     18  C   UNL     1       2.302   8.062  17.892  0.00  0.00    +0.000 C 
BRANCH  18  19
ATOM     19  C   UNL     1       1.995   9.574  17.840  0.00  0.00    +0.000 C 
BRANCH  19  22
ATOM     20  C   UNL     1       0.995  11.309  19.297  0.00  0.00    +0.000 C 
ATOM     21  O   UNL     1       1.843  12.125  18.951  0.00  0.00    +0.000 OA
ATOM     22  N   UNL     1       1.004  10.018  18.814  0.00  0.00    +0.000 N 
ATOM     23  H   UNL     1       0.276   9.372  19.094  0.00  0.00    +0.000 HD
BRANCH  20  25
ATOM     24  C   UNL     1       0.167  13.021  20.959  0.00  0.00    +0.000 C 
ATOM     25  C   UNL     1      -0.119  11.660  20.302  0.00  0.00    +0.000 C 
ATOM     26  C   UNL     1      -0.220  10.575  21.384  0.00  0.00    +0.000 C 
BRANCH  25  27
ATOM     27  C   UNL     1      -1.453  11.761  19.518  0.00  0.00    +0.000 C 
BRANCH  27  28
ATOM     28  O   UNL     1      -1.827  10.472  19.025  0.00  0.00    +0.000 OA
BRANCH  28  29
ATOM     29  N   UNL     1      -2.410  10.526  17.739  0.00  0.00    +0.000 N 
ATOM     30  O   UNL     1      -2.164  11.518  17.051  0.00  0.00    +0.000 OA
ATOM     31  O   UNL     1      -3.149   9.570  17.509  0.00  0.00    +0.000 OA
ENDBRANCH  28  29
ENDBRANCH  27  28
ENDBRANCH  25  27
ENDBRANCH  20  25
ENDBRANCH  19  22
ENDBRANCH  18  19
ENDBRANCH  17  18
ENDBRANCH   1  17
TORSDOF 9
ENDMDL
MODEL 7
REMARK VINA RESULT:      -7.7      1.669      3.117
REMARK  Name = 
REMARK  11 active torsions:
REMARK  status: ('A' for Active; 'I' for Inactive)
REMARK    1  A    between atoms: C_1  and  C_2
REMARK    2  A    between atoms: C_2  and  C_3
REMARK    3  A    between atoms: C_2  and  C_4
REMARK    4  A    between atoms: C_2  and  C_9
REMARK    5  A    between atoms: C_4  and  O_5
REMARK    6  A    between atoms: O_5  and  N_6
REMARK    7  A    between atoms: N_11  and  C_12
REMARK    8  A    between atoms: C_12  and  C_13
REMARK    9  A    between atoms: C_13  and  C_14
REMARK   10  A    between atoms: C_14  and  N_15
REMARK   11  A    between atoms: N_15  and  C_16
REMARK                            x       y       z     vdW  Elec       q    Type
REMARK                         _______ _______ _______ _____ _____    ______ ____
ROOT
ATOM      1  N   UNL     1       3.120   7.154  18.983  0.00  0.00    +0.000 N 
ATOM      2  H   UNL     1       2.815   7.069  19.952  0.00  0.00    +0.000 HD
ENDROOT
BRANCH   1   3
ATOM      3  C   UNL     1       3.324   5.852  18.418  0.00  0.00    +0.000 A 
ATOM      4  C   UNL     1       2.706   4.770  19.114  0.00  0.00    +0.000 A 
ATOM      5  C   UNL     1       2.894   3.475  18.626  0.00  0.00    +0.000 A 
ATOM      6  N   UNL     1       3.640   3.200  17.538  0.00  0.00    +0.000 NA
ATOM      7  C   UNL     1       4.252   4.193  16.890  0.00  0.00    +0.000 A 
ATOM      8  C   UNL     1       4.998   3.798  15.784  0.00  0.00    +0.000 A 
ATOM      9  C   UNL     1       5.705   4.694  14.991  0.00  0.00    +0.000 A 
ATOM     10  C   UNL     1       5.679   6.029  15.314  0.00  0.00    +0.000 A 
ATOM     11  C   UNL     1       4.936   6.437  16.424  0.00  0.00    +0.000 A 
ATOM     12  C   UNL     1       4.174   5.551  17.265  0.00  0.00    +0.000 A 
ATOM     13  C   UNL     1       2.359   2.252  19.323  0.00  0.00    +0.000 C 
ATOM     14  C   UNL     1       1.327   2.527  20.408  0.00  0.00    +0.000 C 
ATOM     15  C   UNL     1       1.728   3.746  21.224  0.00  0.00    +0.000 C 
ATOM     16  C   UNL     1       1.808   4.976  20.317  0.00  0.00    +0.000 C 
ENDBRANCH   1   3
BRANCH   1  17
ATOM     17  C   UNL     1       2.347   8.126  18.242  0.00  0.00    +0.000 C 
BRANCH  17  18
ATOM     18  C   UNL     1       1.247   8.845  18.998  0.00  0.00    +0.000 C 
BRANCH  18  19
ATOM     19  C   UNL     1       0.847  10.100  18.192  0.00  0.00    +0.000 C 
BRANCH  19  22
ATOM     20  C   UNL     1      -0.998  11.433  19.169  0.00  0.00    +0.000 C 
ATOM     21  O   UNL     1      -1.835  10.737  18.603  0.00  0.00    +0.000 OA
ATOM     22  N   UNL     1       0.351  11.204  19.008  0.00  0.00    +0.000 N 
ATOM     23  H   UNL     1       1.022  11.775  19.509  0.00  0.00    +0.000 HD
BRANCH  20  25
ATOM     24  C   UNL     1      -2.923  12.714  20.184  0.00  0.00    +0.000 C 
ATOM     25  C   UNL     1      -1.391  12.614  20.076  0.00  0.00    +0.000 C 
ATOM     26  C   UNL     1      -0.826  13.927  19.514  0.00  0.00    +0.000 C 
BRANCH  25  27
ATOM     27  C   UNL     1      -0.815  12.343  21.489  0.00  0.00    +0.000 C 
BRANCH  27  28
ATOM     28  O   UNL     1      -0.932  10.953  21.804  0.00  0.00    +0.000 OA
BRANCH  28  29
ATOM     29  N   UNL     1       0.203  10.447  22.475  0.00  0.00    +0.000 N 
ATOM     30  O   UNL     1       0.022   9.936  23.582  0.00  0.00    +0.000 OA
ATOM     31  O   UNL     1       1.251  10.649  21.863  0.00  0.00    +0.000 OA
ENDBRANCH  28  29
ENDBRANCH  27  28
ENDBRANCH  25  27
ENDBRANCH  20  25
ENDBRANCH  19  22
ENDBRANCH  18  19
ENDBRANCH  17  18
ENDBRANCH   1  17
TORSDOF 9
ENDMDL
MODEL 8
REMARK VINA RESULT:      -7.7      1.889      3.049
REMARK  Name = 
REMARK  11 active torsions:
REMARK  status: ('A' for Active; 'I' for Inactive)
REMARK    1  A    between atoms: C_1  and  C_2
REMARK    2  A    between atoms: C_2  and  C_3
REMARK    3  A    between atoms: C_2  and  C_4
REMARK    4  A    between atoms: C_2  and  C_9
REMARK    5  A    between atoms: C_4  and  O_5
REMARK    6  A    between atoms: O_5  and  N_6
REMARK    7  A    between atoms: N_11  and  C_12
REMARK    8  A    between atoms: C_12  and  C_13
REMARK    9  A    between atoms: C_13  and  C_14
REMARK   10  A    between atoms: C_14  and  N_15
REMARK   11  A    between atoms: N_15  and  C_16
REMARK                            x       y       z     vdW  Elec       q    Type
REMARK                         _______ _______ _______ _____ _____    ______ ____
ROOT
ATOM      1  N   UNL     1       3.043   7.139  18.432  0.00  0.00    +0.000 N 
ATOM      2  H   UNL     1       2.563   7.164  19.331  0.00  0.00    +0.000 HD
ENDROOT
BRANCH   1   3
ATOM      3  C   UNL     1       3.378   5.788  18.091  0.00  0.00    +0.000 A 
ATOM      4  C   UNL     1       2.779   4.777  18.902  0.00  0.00    +0.000 A 
ATOM      5  C   UNL     1       3.091   3.443  18.634  0.00  0.00    +0.000 A 
ATOM      6  N   UNL     1       3.938   3.067  17.656  0.00  0.00    +0.000 NA
ATOM      7  C   UNL     1       4.532   3.996  16.905  0.00  0.00    +0.000 A 
ATOM      8  C   UNL     1       5.389   3.500  15.928  0.00  0.00    +0.000 A 
ATOM      9  C   UNL     1       6.096   4.319  15.056  0.00  0.00    +0.000 A 
ATOM     10  C   UNL     1       5.956   5.682  15.167  0.00  0.00    +0.000 A 
ATOM     11  C   UNL     1       5.101   6.192  16.146  0.00  0.00    +0.000 A 
ATOM     12  C   UNL     1       4.335   5.385  17.059  0.00  0.00    +0.000 A 
ATOM     13  C   UNL     1       2.584   2.300  19.473  0.00  0.00    +0.000 C 
ATOM     14  C   UNL     1       1.453   2.652  20.430  0.00  0.00    +0.000 C 
ATOM     15  C   UNL     1       1.706   4.007  21.072  0.00  0.00    +0.000 C 
ATOM     16  C   UNL     1       1.776   5.090  19.993  0.00  0.00    +0.000 C 
ENDBRANCH   1   3
BRANCH   1  17
ATOM     17  C   UNL     1       2.403   7.975  17.440  0.00  0.00    +0.000 C 
BRANCH  17  18
ATOM     18  C   UNL     1       2.047   9.387  17.861  0.00  0.00    +0.000 C 
BRANCH  18  19
ATOM     19  C   UNL     1       1.291   9.316  19.205  0.00  0.00    +0.000 C 
BRANCH  19  22
ATOM     20  C   UNL     1      -0.690  10.797  19.068  0.00  0.00    +0.000 C 
ATOM     21  O   UNL     1      -1.244  10.025  18.292  0.00  0.00    +0.000 OA
ATOM     22  N   UNL     1       0.573  10.537  19.555  0.00  0.00    +0.000 N 
ATOM     23  H   UNL     1       0.998  11.177  20.216  0.00  0.00    +0.000 HD
BRANCH  20  25
ATOM     24  C   UNL     1      -2.853  12.093  19.201  0.00  0.00    +0.000 C 
ATOM     25  C   UNL     1      -1.350  12.108  19.532  0.00  0.00    +0.000 C 
ATOM     26  C   UNL     1      -0.683  13.311  18.850  0.00  0.00    +0.000 C 
BRANCH  25  27
ATOM     27  C   UNL     1      -1.186  12.205  21.071  0.00  0.00    +0.000 C 
BRANCH  27  28
ATOM     28  O   UNL     1      -1.087  10.894  21.634  0.00  0.00    +0.000 OA
BRANCH  28  29
ATOM     29  N   UNL     1      -1.146  10.899  23.045  0.00  0.00    +0.000 N 
ATOM     30  O   UNL     1      -0.264  10.284  23.647  0.00  0.00    +0.000 OA
ATOM     31  O   UNL     1      -2.134  11.488  23.481  0.00  0.00    +0.000 OA
ENDBRANCH  28  29
ENDBRANCH  27  28
ENDBRANCH  25  27
ENDBRANCH  20  25
ENDBRANCH  19  22
ENDBRANCH  18  19
ENDBRANCH  17  18
ENDBRANCH   1  17
TORSDOF 9
ENDMDL
MODEL 9
REMARK VINA RESULT:      -7.7      1.105      3.498
REMARK  Name = 
REMARK  11 active torsions:
REMARK  status: ('A' for Active; 'I' for Inactive)
REMARK    1  A    between atoms: C_1  and  C_2
REMARK    2  A    between atoms: C_2  and  C_3
REMARK    3  A    between atoms: C_2  and  C_4
REMARK    4  A    between atoms: C_2  and  C_9
REMARK    5  A    between atoms: C_4  and  O_5
REMARK    6  A    between atoms: O_5  and  N_6
REMARK    7  A    between atoms: N_11  and  C_12
REMARK    8  A    between atoms: C_12  and  C_13
REMARK    9  A    between atoms: C_13  and  C_14
REMARK   10  A    between atoms: C_14  and  N_15
REMARK   11  A    between atoms: N_15  and  C_16
REMARK                            x       y       z     vdW  Elec       q    Type
REMARK                         _______ _______ _______ _____ _____    ______ ____
ROOT
ATOM      1  N   UNL     1       3.625   7.217  18.183  0.00  0.00    +0.000 N 
ATOM      2  H   UNL     1       3.704   7.482  19.165  0.00  0.00    +0.000 HD
ENDROOT
BRANCH   1   3
ATOM      3  C   UNL     1       3.653   5.790  18.057  0.00  0.00    +0.000 A 
ATOM      4  C   UNL     1       4.529   5.273  17.055  0.00  0.00    +0.000 A 
ATOM      5  C   UNL     1       4.577   3.890  16.868  0.00  0.00    +0.000 A 
ATOM      6  N   UNL     1       3.828   3.023  17.578  0.00  0.00    +0.000 NA
ATOM      7  C   UNL     1       2.980   3.487  18.499  0.00  0.00    +0.000 A 
ATOM      8  C   UNL     1       2.254   2.508  19.171  0.00  0.00    +0.000 A 
ATOM      9  C   UNL     1       1.324   2.804  20.159  0.00  0.00    +0.000 A 
ATOM     10  C   UNL     1       1.097   4.120  20.484  0.00  0.00    +0.000 A 
ATOM     11  C   UNL     1       1.817   5.111  19.814  0.00  0.00    +0.000 A 
ATOM     12  C   UNL     1       2.804   4.854  18.797  0.00  0.00    +0.000 A 
ATOM     13  C   UNL     1       5.401   3.239  15.788  0.00  0.00    +0.000 C 
ATOM     14  C   UNL     1       6.429   4.145  15.124  0.00  0.00    +0.000 C 
ATOM     15  C   UNL     1       5.845   5.531  14.897  0.00  0.00    +0.000 C 
ATOM     16  C   UNL     1       5.449   6.155  16.237  0.00  0.00    +0.000 C 
ENDBRANCH   1   3
BRANCH   1  17
ATOM     17  C   UNL     1       2.596   7.962  17.491  0.00  0.00    +0.000 C 
BRANCH  17  18
ATOM     18  C   UNL     1       1.615   8.735  18.351  0.00  0.00    +0.000 C 
BRANCH  18  19
ATOM     19  C   UNL     1       1.898  10.242  18.172  0.00  0.00    +0.000 C 
BRANCH  19  22
ATOM     20  C   UNL     1       0.283  11.528  19.541  0.00  0.00    +0.000 C 
ATOM     21  O   UNL     1       0.848  11.186  20.575  0.00  0.00    +0.000 OA
ATOM     22  N   UNL     1       0.720  11.093  18.308  0.00  0.00    +0.000 N 
ATOM     23  H   UNL     1       0.254  11.413  17.468  0.00  0.00    +0.000 HD
BRANCH  20  25
ATOM     24  C   UNL     1      -0.667  13.734  18.762  0.00  0.00    +0.000 C 
ATOM     25  C   UNL     1      -0.956  12.443  19.548  0.00  0.00    +0.000 C 
ATOM     26  C   UNL     1      -1.351  12.793  20.990  0.00  0.00    +0.000 C 
BRANCH  25  27
ATOM     27  C   UNL     1      -2.111  11.686  18.844  0.00  0.00    +0.000 C 
BRANCH  27  28
ATOM     28  O   UNL     1      -2.077  11.945  17.438  0.00  0.00    +0.000 OA
BRANCH  28  29
ATOM     29  N   UNL     1      -2.212  10.771  16.662  0.00  0.00    +0.000 N 
ATOM     30  O   UNL     1      -1.800   9.720  17.156  0.00  0.00    +0.000 OA
ATOM     31  O   UNL     1      -2.682  10.988  15.546  0.00  0.00    +0.000 OA
ENDBRANCH  28  29
ENDBRANCH  27  28
ENDBRANCH  25  27
ENDBRANCH  20  25
ENDBRANCH  19  22
ENDBRANCH  18  19
ENDBRANCH  17  18
ENDBRANCH   1  17
TORSDOF 9
ENDMDL
