MODEL 1
REMARK VINA RESULT:      -8.1      0.000      0.000
REMARK  Name = 
REMARK  8 active torsions:
REMARK  status: ('A' for Active; 'I' for Inactive)
REMARK    1  A    between atoms: C_1  and  C_2
REMARK    2  A    between atoms: C_5  and  N_6
REMARK    3  A    between atoms: C_7  and  C_9
REMARK    4  A    between atoms: N_11  and  C_12
REMARK    5  A    between atoms: C_14  and  C_15
REMARK    6  A    between atoms: C_14  and  C_16
REMARK    7  A    between atoms: C_18  and  C_19
REMARK    8  A    between atoms: C_18  and  C_20
REMARK                            x       y       z     vdW  Elec       q    Type
REMARK                         _______ _______ _______ _____ _____    ______ ____
ROOT
ATOM      1  C   UNL     1       2.704   7.902  17.892  0.00  0.00    +0.000 C 
ATOM      2  O   UNL     1       3.057   8.068  16.735  0.00  0.00    +0.000 OA
ATOM      3  N   UNL     1       2.897   6.780  18.667  0.00  0.00    +0.000 N 
ATOM      4  H   UNL     1       2.612   6.878  19.640  0.00  0.00    +0.000 HD
ENDROOT
BRANCH   3   5
ATOM      5  C   UNL     1       3.620   5.581  18.258  0.00  0.00    +0.000 C 
ATOM      6  C   UNL     1       3.414   4.490  19.309  0.00  0.00    +0.000 C 
ATOM      7  C   UNL     1       4.217   3.208  19.025  0.00  0.00    +0.000 C 
ATOM      8  C   UNL     1       4.210   2.346  20.307  0.00  0.00    +0.000 C 
ATOM      9  C   UNL     1       3.558   2.363  17.921  0.00  0.00    +0.000 C 
ATOM     10  N   UNL     1       5.625   3.506  18.737  0.00  0.00    +0.000 NA
ATOM     11  C   UNL     1       5.948   4.607  17.819  0.00  0.00    +0.000 C 
ATOM     12  C   UNL     1       7.438   4.936  18.065  0.00  0.00    +0.000 C 
ATOM     13  C   UNL     1       5.826   4.192  16.341  0.00  0.00    +0.000 C 
ATOM     14  C   UNL     1       5.116   5.872  18.117  0.00  0.00    +0.000 C 
ATOM     15  H   UNL     1       6.128   2.658  18.474  0.00  0.00    +0.000 HD
ENDBRANCH   3   5
BRANCH   1  17
ATOM     16  N   UNL     1       1.303   8.577  19.795  0.00  0.00    +0.000 N 
ATOM     17  C   UNL     1       1.942   9.013  18.649  0.00  0.00    +0.000 C 
ATOM     18  O   UNL     1       1.976  10.143  18.173  0.00  0.00    +0.000 OA
ATOM     19  H   UNL     1       1.402   7.584  19.989  0.00  0.00    +0.000 HD
BRANCH  16  24
ATOM     20  C   UNL     1      -1.807  11.862  23.349  0.00  0.00    +0.000 C 
ATOM     21  C   UNL     1      -1.008  11.012  22.401  0.00  0.00    +0.000 A 
ATOM     22  C   UNL     1      -0.207   9.989  22.916  0.00  0.00    +0.000 A 
ATOM     23  C   UNL     1       0.557   9.180  22.070  0.00  0.00    +0.000 A 
ATOM     24  C   UNL     1       0.544   9.368  20.687  0.00  0.00    +0.000 A 
ATOM     25  C   UNL     1      -0.258  10.388  20.161  0.00  0.00    +0.000 A 
ATOM     26  C   UNL     1      -1.027  11.200  21.012  0.00  0.00    +0.000 A 
ATOM     27 CL   UNL     1      -1.992  12.440  20.292  0.00  0.00    +0.000 Cl
ENDBRANCH  16  24
ENDBRANCH   1  17
TORSDOF 3
ENDMDL
MODEL 2
REMARK VINA RESULT:      -7.9      5.691      8.532
REMARK  Name = 
REMARK  8 active torsions:
REMARK  status: ('A' for Active; 'I' for Inactive)
REMARK    1  A    between atoms: C_1  and  C_2
REMARK    2  A    between atoms: C_5  and  N_6
REMARK    3  A    between atoms: C_7  and  C_9
REMARK    4  A    between atoms: N_11  and  C_12
REMARK    5  A    between atoms: C_14  and  C_15
REMARK    6  A    between atoms: C_14  and  C_16
REMARK    7  A    between atoms: C_18  and  C_19
REMARK    8  A    between atoms: C_18  and  C_20
REMARK                            x       y       z     vdW  Elec       q    Type
REMARK                         _______ _______ _______ _____ _____    ______ ____
ROOT
ATOM      1  C   UNL     1       8.074   7.914  17.982  0.00  0.00    +0.000 C 
ATOM      2  O   UNL     1       8.127   8.238  16.805  0.00  0.00    +0.000 OA
ATOM      3  N   UNL     1       8.594   8.600  19.056  0.00  0.00    +0.000 N 
ATOM      4  H   UNL     1       8.358   8.209  19.968  0.00  0.00    +0.000 HD
ENDROOT
BRANCH   3   5
ATOM      5  C   UNL     1       9.269   9.891  18.992  0.00  0.00    +0.000 C 
ATOM      6  C   UNL     1       9.324  10.497  20.395  0.00  0.00    +0.000 C 
ATOM      7  C   UNL     1       9.931  11.910  20.427  0.00  0.00    +0.000 C 
ATOM      8  C   UNL     1       9.606  12.539  21.801  0.00  0.00    +0.000 C 
ATOM      9  C   UNL     1      11.465  11.868  20.312  0.00  0.00    +0.000 C 
ATOM     10  N   UNL     1       9.318  12.784  19.420  0.00  0.00    +0.000 NA
ATOM     11  C   UNL     1       9.117  12.271  18.058  0.00  0.00    +0.000 C 
ATOM     12  C   UNL     1       8.095  13.223  17.396  0.00  0.00    +0.000 C 
ATOM     13  C   UNL     1      10.400  12.343  17.209  0.00  0.00    +0.000 C 
ATOM     14  C   UNL     1       8.523  10.846  18.057  0.00  0.00    +0.000 C 
ATOM     15  H   UNL     1       9.781  13.693  19.398  0.00  0.00    +0.000 HD
ENDBRANCH   3   5
BRANCH   1  17
ATOM     16  N   UNL     1       6.096   6.457  17.904  0.00  0.00    +0.000 N 
ATOM     17  C   UNL     1       7.376   6.601  18.406  0.00  0.00    +0.000 C 
ATOM     18  O   UNL     1       8.008   5.836  19.126  0.00  0.00    +0.000 OA
ATOM     19  H   UNL     1       5.769   7.234  17.334  0.00  0.00    +0.000 HD
BRANCH  16  24
ATOM     20  C   UNL     1       2.547   2.031  18.854  0.00  0.00    +0.000 C 
ATOM     21  C   UNL     1       3.461   3.201  18.623  0.00  0.00    +0.000 A 
ATOM     22  C   UNL     1       4.295   3.201  17.501  0.00  0.00    +0.000 A 
ATOM     23  C   UNL     1       5.165   4.266  17.252  0.00  0.00    +0.000 A 
ATOM     24  C   UNL     1       5.230   5.361  18.114  0.00  0.00    +0.000 A 
ATOM     25  C   UNL     1       4.395   5.373  19.238  0.00  0.00    +0.000 A 
ATOM     26  C   UNL     1       3.520   4.303  19.488  0.00  0.00    +0.000 A 
ATOM     27 CL   UNL     1       2.521   4.386  20.897  0.00  0.00    +0.000 Cl
ENDBRANCH  16  24
ENDBRANCH   1  17
TORSDOF 3
ENDMDL
MODEL 3
REMARK VINA RESULT:      -7.8      2.208      2.907
REMARK  Name = 
REMARK  8 active torsions:
REMARK  status: ('A' for Active; 'I' for Inactive)
REMARK    1  A    between atoms: C_1  and  C_2
REMARK    2  A    between atoms: C_5  and  N_6
REMARK    3  A    between atoms: C_7  and  C_9
REMARK    4  A    between atoms: N_11  and  C_12
REMARK    5  A    between atoms: C_14  and  C_15
REMARK    6  A    between atoms: C_14  and  C_16
REMARK    7  A    between atoms: C_18  and  C_19
REMARK    8  A    between atoms: C_18  and  C_20
REMARK                            x       y       z     vdW  Elec       q    Type
REMARK                         _______ _______ _______ _____ _____    ______ ____
ROOT
ATOM      1  C   UNL     1       1.392   8.533  20.243  0.00  0.00    +0.000 C 
ATOM      2  O   UNL     1       1.444   8.821  19.058  0.00  0.00    +0.000 OA
ATOM      3  N   UNL     1       1.599   7.294  20.807  0.00  0.00    +0.000 N 
ATOM      4  H   UNL     1       1.606   7.284  21.826  0.00  0.00    +0.000 HD
ENDROOT
BRANCH   3   5
ATOM      5  C   UNL     1       1.981   6.086  20.084  0.00  0.00    +0.000 C 
ATOM      6  C   UNL     1       1.729   4.869  20.975  0.00  0.00    +0.000 C 
ATOM      7  C   UNL     1       2.190   3.544  20.345  0.00  0.00    +0.000 C 
ATOM      8  C   UNL     1       2.216   2.469  21.455  0.00  0.00    +0.000 C 
ATOM      9  C   UNL     1       1.197   3.052  19.277  0.00  0.00    +0.000 C 
ATOM     10  N   UNL     1       3.562   3.639  19.832  0.00  0.00    +0.000 NA
ATOM     11  C   UNL     1       3.951   4.819  19.048  0.00  0.00    +0.000 C 
ATOM     12  C   UNL     1       5.496   4.830  19.040  0.00  0.00    +0.000 C 
ATOM     13  C   UNL     1       3.503   4.719  17.578  0.00  0.00    +0.000 C 
ATOM     14  C   UNL     1       3.460   6.131  19.695  0.00  0.00    +0.000 C 
ATOM     15  H   UNL     1       3.828   2.781  19.348  0.00  0.00    +0.000 HD
ENDBRANCH   3   5
BRANCH   1  17
ATOM     16  N   UNL     1       0.202  10.598  20.842  0.00  0.00    +0.000 N 
ATOM     17  C   UNL     1       1.052   9.609  21.300  0.00  0.00    +0.000 C 
ATOM     18  O   UNL     1       1.556   9.485  22.411  0.00  0.00    +0.000 OA
ATOM     19  H   UNL     1      -0.082  10.503  19.870  0.00  0.00    +0.000 HD
BRANCH  16  24
ATOM     20  C   UNL     1      -1.872  15.017  23.885  0.00  0.00    +0.000 C 
ATOM     21  C   UNL     1      -1.345  13.847  23.104  0.00  0.00    +0.000 A 
ATOM     22  C   UNL     1      -0.187  14.008  22.337  0.00  0.00    +0.000 A 
ATOM     23  C   UNL     1       0.333  12.947  21.590  0.00  0.00    +0.000 A 
ATOM     24  C   UNL     1      -0.286  11.697  21.585  0.00  0.00    +0.000 A 
ATOM     25  C   UNL     1      -1.444  11.525  22.352  0.00  0.00    +0.000 A 
ATOM     26  C   UNL     1      -1.967  12.590  23.104  0.00  0.00    +0.000 A 
ATOM     27 CL   UNL     1      -3.401  12.305  24.026  0.00  0.00    +0.000 Cl
ENDBRANCH  16  24
ENDBRANCH   1  17
TORSDOF 3
ENDMDL
MODEL 4
REMARK VINA RESULT:      -7.8      1.603      1.799
REMARK  Name = 
REMARK  8 active torsions:
REMARK  status: ('A' for Active; 'I' for Inactive)
REMARK    1  A    between atoms: C_1  and  C_2
REMARK    2  A    between atoms: C_5  and  N_6
REMARK    3  A    between atoms: C_7  and  C_9
REMARK    4  A    between atoms: N_11  and  C_12
REMARK    5  A    between atoms: C_14  and  C_15
REMARK    6  A    between atoms: C_14  and  C_16
REMARK    7  A    between atoms: C_18  and  C_19
REMARK    8  A    between atoms: C_18  and  C_20
REMARK                            x       y       z     vdW  Elec       q    Type
REMARK                         _______ _______ _______ _____ _____    ______ ____
ROOT
ATOM      1  C   UNL     1       2.361   7.853  18.390  0.00  0.00    +0.000 C 
ATOM      2  O   UNL     1       2.744   8.218  17.289  0.00  0.00    +0.000 OA
ATOM      3  N   UNL     1       2.600   6.639  18.993  0.00  0.00    +0.000 N 
ATOM      4  H   UNL     1       2.274   6.568  19.956  0.00  0.00    +0.000 HD
ENDROOT
BRANCH   3   5
ATOM      5  C   UNL     1       3.418   5.564  18.440  0.00  0.00    +0.000 C 
ATOM      6  C   UNL     1       3.355   4.357  19.376  0.00  0.00    +0.000 C 
ATOM      7  C   UNL     1       4.263   3.196  18.937  0.00  0.00    +0.000 C 
ATOM      8  C   UNL     1       4.387   2.211  20.122  0.00  0.00    +0.000 C 
ATOM      9  C   UNL     1       3.645   2.407  17.770  0.00  0.00    +0.000 C 
ATOM     10  N   UNL     1       5.625   3.657  18.643  0.00  0.00    +0.000 NA
ATOM     11  C   UNL     1       5.808   4.872  17.837  0.00  0.00    +0.000 C 
ATOM     12  C   UNL     1       7.268   5.318  18.073  0.00  0.00    +0.000 C 
ATOM     13  C   UNL     1       5.670   4.599  16.327  0.00  0.00    +0.000 C 
ATOM     14  C   UNL     1       4.873   6.013  18.289  0.00  0.00    +0.000 C 
ATOM     15  H   UNL     1       6.196   2.893  18.279  0.00  0.00    +0.000 HD
ENDBRANCH   3   5
BRANCH   1  17
ATOM     16  N   UNL     1       0.847   9.782  18.566  0.00  0.00    +0.000 N 
ATOM     17  C   UNL     1       1.498   8.786  19.270  0.00  0.00    +0.000 C 
ATOM     18  O   UNL     1       1.475   8.559  20.475  0.00  0.00    +0.000 OA
ATOM     19  H   UNL     1       1.026   9.785  17.565  0.00  0.00    +0.000 HD
BRANCH  16  24
ATOM     20  C   UNL     1      -2.728  13.762  20.679  0.00  0.00    +0.000 C 
ATOM     21  C   UNL     1      -1.814  12.709  20.118  0.00  0.00    +0.000 A 
ATOM     22  C   UNL     1      -0.488  12.656  20.557  0.00  0.00    +0.000 A 
ATOM     23  C   UNL     1       0.397  11.698  20.056  0.00  0.00    +0.000 A 
ATOM     24  C   UNL     1      -0.014  10.765  19.103  0.00  0.00    +0.000 A 
ATOM     25  C   UNL     1      -1.341  10.807  18.660  0.00  0.00    +0.000 A 
ATOM     26  C   UNL     1      -2.231  11.770  19.164  0.00  0.00    +0.000 A 
ATOM     27 CL   UNL     1      -3.854  11.763  18.569  0.00  0.00    +0.000 Cl
ENDBRANCH  16  24
ENDBRANCH   1  17
TORSDOF 3
ENDMDL
MODEL 5
REMARK VINA RESULT:      -7.8      2.230      2.825
REMARK  Name = 
REMARK  8 active torsions:
REMARK  status: ('A' for Active; 'I' for Inactive)
REMARK    1  A    between atoms: C_1  and  C_2
REMARK    2  A    between atoms: C_5  and  N_6
REMARK    3  A    between atoms: C_7  and  C_9
REMARK    4  A    between atoms: N_11  and  C_12
REMARK    5  A    between atoms: C_14  and  C_15
REMARK    6  A    between atoms: C_14  and  C_16
REMARK    7  A    between atoms: C_18  and  C_19
REMARK    8  A    between atoms: C_18  and  C_20
REMARK                            x       y       z     vdW  Elec       q    Type
REMARK                         _______ _______ _______ _____ _____    ______ ____
ROOT
ATOM      1  C   UNL     1       1.483   8.413  20.289  0.00  0.00    +0.000 C 
ATOM      2  O   UNL     1       1.557   8.707  19.106  0.00  0.00    +0.000 OA
ATOM      3  N   UNL     1       1.651   7.165  20.846  0.00  0.00    +0.000 N 
ATOM      4  H   UNL     1       1.645   7.148  21.865  0.00  0.00    +0.000 HD
ENDROOT
BRANCH   3   5
ATOM      5  C   UNL     1       2.009   5.952  20.119  0.00  0.00    +0.000 C 
ATOM      6  C   UNL     1       1.802   4.743  21.032  0.00  0.00    +0.000 C 
ATOM      7  C   UNL     1       2.245   3.415  20.395  0.00  0.00    +0.000 C 
ATOM      8  C   UNL     1       2.324   2.351  21.513  0.00  0.00    +0.000 C 
ATOM      9  C   UNL     1       1.212   2.906  19.375  0.00  0.00    +0.000 C 
ATOM     10  N   UNL     1       3.594   3.512  19.824  0.00  0.00    +0.000 NA
ATOM     11  C   UNL     1       3.942   4.688  19.014  0.00  0.00    +0.000 C 
ATOM     12  C   UNL     1       5.485   4.707  18.941  0.00  0.00    +0.000 C 
ATOM     13  C   UNL     1       3.435   4.570  17.564  0.00  0.00    +0.000 C 
ATOM     14  C   UNL     1       3.471   6.003  19.669  0.00  0.00    +0.000 C 
ATOM     15  H   UNL     1       3.845   2.651  19.338  0.00  0.00    +0.000 HD
ENDBRANCH   3   5
BRANCH   1  17
ATOM     16  N   UNL     1       0.278  10.463  20.912  0.00  0.00    +0.000 N 
ATOM     17  C   UNL     1       1.159   9.491  21.349  0.00  0.00    +0.000 C 
ATOM     18  O   UNL     1       1.699   9.382  22.444  0.00  0.00    +0.000 OA
ATOM     19  H   UNL     1      -0.034  10.357  19.949  0.00  0.00    +0.000 HD
BRANCH  16  24
ATOM     20  C   UNL     1      -1.609  14.980  23.931  0.00  0.00    +0.000 C 
ATOM     21  C   UNL     1      -1.106  13.816  23.126  0.00  0.00    +0.000 A 
ATOM     22  C   UNL     1      -1.647  12.548  23.353  0.00  0.00    +0.000 A 
ATOM     23  C   UNL     1      -1.202  11.437  22.630  0.00  0.00    +0.000 A 
ATOM     24  C   UNL     1      -0.205  11.558  21.662  0.00  0.00    +0.000 A 
ATOM     25  C   UNL     1       0.341  12.825  21.425  0.00  0.00    +0.000 A 
ATOM     26  C   UNL     1      -0.107  13.942  22.150  0.00  0.00    +0.000 A 
ATOM     27 CL   UNL     1       0.615  15.474  21.804  0.00  0.00    +0.000 Cl
ENDBRANCH  16  24
ENDBRANCH   1  17
TORSDOF 3
ENDMDL
MODEL 6
REMARK VINA RESULT:      -7.7      1.807      2.037
REMARK  Name = 
REMARK  8 active torsions:
REMARK  status: ('A' for Active; 'I' for Inactive)
REMARK    1  A    between atoms: C_1  and  C_2
REMARK    2  A    between atoms: C_5  and  N_6
REMARK    3  A    between atoms: C_7  and  C_9
REMARK    4  A    between atoms: N_11  and  C_12
REMARK    5  A    between atoms: C_14  and  C_15
REMARK    6  A    between atoms: C_14  and  C_16
REMARK    7  A    between atoms: C_18  and  C_19
REMARK    8  A    between atoms: C_18  and  C_20
REMARK                            x       y       z     vdW  Elec       q    Type
REMARK                         _______ _______ _______ _____ _____    ______ ____
ROOT
ATOM      1  C   UNL     1       2.400   7.859  18.311  0.00  0.00    +0.000 C 
ATOM      2  O   UNL     1       2.746   8.175  17.183  0.00  0.00    +0.000 OA
ATOM      3  N   UNL     1       2.652   6.667  18.954  0.00  0.00    +0.000 N 
ATOM      4  H   UNL     1       2.360   6.639  19.930  0.00  0.00    +0.000 HD
ENDROOT
BRANCH   3   5
ATOM      5  C   UNL     1       3.440   5.564  18.417  0.00  0.00    +0.000 C 
ATOM      6  C   UNL     1       3.359   4.378  19.379  0.00  0.00    +0.000 C 
ATOM      7  C   UNL     1       4.238   3.188  18.957  0.00  0.00    +0.000 C 
ATOM      8  C   UNL     1       4.350   2.225  20.161  0.00  0.00    +0.000 C 
ATOM      9  C   UNL     1       3.591   2.389  17.812  0.00  0.00    +0.000 C 
ATOM     10  N   UNL     1       5.607   3.612  18.640  0.00  0.00    +0.000 NA
ATOM     11  C   UNL     1       5.809   4.806  17.807  0.00  0.00    +0.000 C 
ATOM     12  C   UNL     1       7.280   5.225  18.021  0.00  0.00    +0.000 C 
ATOM     13  C   UNL     1       5.650   4.505  16.305  0.00  0.00    +0.000 C 
ATOM     14  C   UNL     1       4.903   5.977  18.243  0.00  0.00    +0.000 C 
ATOM     15  H   UNL     1       6.157   2.829  18.287  0.00  0.00    +0.000 HD
ENDBRANCH   3   5
BRANCH   1  17
ATOM     16  N   UNL     1       1.094   9.932  18.497  0.00  0.00    +0.000 N 
ATOM     17  C   UNL     1       1.577   8.834  19.184  0.00  0.00    +0.000 C 
ATOM     18  O   UNL     1       1.437   8.548  20.368  0.00  0.00    +0.000 OA
ATOM     19  H   UNL     1       1.349   9.969  17.513  0.00  0.00    +0.000 HD
BRANCH  16  24
ATOM     20  C   UNL     1      -2.039  14.208  20.730  0.00  0.00    +0.000 C 
ATOM     21  C   UNL     1      -1.200  13.104  20.153  0.00  0.00    +0.000 A 
ATOM     22  C   UNL     1      -1.796  12.171  19.299  0.00  0.00    +0.000 A 
ATOM     23  C   UNL     1      -1.053  11.125  18.746  0.00  0.00    +0.000 A 
ATOM     24  C   UNL     1       0.305  10.977  19.030  0.00  0.00    +0.000 A 
ATOM     25  C   UNL     1       0.913  11.907  19.880  0.00  0.00    +0.000 A 
ATOM     26  C   UNL     1       0.166  12.960  20.435  0.00  0.00    +0.000 A 
ATOM     27 CL   UNL     1       0.983  14.070  21.478  0.00  0.00    +0.000 Cl
ENDBRANCH  16  24
ENDBRANCH   1  17
TORSDOF 3
ENDMDL
MODEL 7
REMARK VINA RESULT:      -7.6      1.719      2.982
REMARK  Name = 
REMARK  8 active torsions:
REMARK  status: ('A' for Active; 'I' for Inactive)
REMARK    1  A    between atoms: C_1  and  C_2
REMARK    2  A    between atoms: C_5  and  N_6
REMARK    3  A    between atoms: C_7  and  C_9
REMARK    4  A    between atoms: N_11  and  C_12
REMARK    5  A    between atoms: C_14  and  C_15
REMARK    6  A    between atoms: C_14  and  C_16
REMARK    7  A    between atoms: C_18  and  C_19
REMARK    8  A    between atoms: C_18  and  C_20
REMARK                            x       y       z     vdW  Elec       q    Type
REMARK                         _______ _______ _______ _____ _____    ______ ____
ROOT
ATOM      1  C   UNL     1       2.408   7.540  18.959  0.00  0.00    +0.000 C 
ATOM      2  O   UNL     1       2.103   6.877  19.938  0.00  0.00    +0.000 OA
ATOM      3  N   UNL     1       3.333   7.217  17.991  0.00  0.00    +0.000 N 
ATOM      4  H   UNL     1       3.370   7.862  17.203  0.00  0.00    +0.000 HD
ENDROOT
BRANCH   3   5
ATOM      5  C   UNL     1       4.094   5.975  17.927  0.00  0.00    +0.000 C 
ATOM      6  C   UNL     1       4.871   5.932  16.610  0.00  0.00    +0.000 C 
ATOM      7  C   UNL     1       5.635   4.614  16.394  0.00  0.00    +0.000 C 
ATOM      8  C   UNL     1       6.068   4.550  14.912  0.00  0.00    +0.000 C 
ATOM      9  C   UNL     1       6.923   4.565  17.233  0.00  0.00    +0.000 C 
ATOM     10  N   UNL     1       4.774   3.447  16.622  0.00  0.00    +0.000 NA
ATOM     11  C   UNL     1       3.901   3.424  17.804  0.00  0.00    +0.000 C 
ATOM     12  C   UNL     1       2.850   2.325  17.530  0.00  0.00    +0.000 C 
ATOM     13  C   UNL     1       4.656   3.004  19.079  0.00  0.00    +0.000 C 
ATOM     14  C   UNL     1       3.162   4.763  18.005  0.00  0.00    +0.000 C 
ATOM     15  H   UNL     1       5.310   2.582  16.552  0.00  0.00    +0.000 HD
ENDBRANCH   3   5
BRANCH   1  17
ATOM     16  N   UNL     1       1.143   9.465  19.815  0.00  0.00    +0.000 N 
ATOM     17  C   UNL     1       1.742   8.912  18.700  0.00  0.00    +0.000 C 
ATOM     18  O   UNL     1       1.809   9.363  17.561  0.00  0.00    +0.000 OA
ATOM     19  H   UNL     1       1.202   8.900  20.659  0.00  0.00    +0.000 HD
BRANCH  16  24
ATOM     20  C   UNL     1      -1.665  14.481  20.026  0.00  0.00    +0.000 C 
ATOM     21  C   UNL     1      -0.954  13.159  19.969  0.00  0.00    +0.000 A 
ATOM     22  C   UNL     1       0.388  13.092  20.355  0.00  0.00    +0.000 A 
ATOM     23  C   UNL     1       1.089  11.883  20.311  0.00  0.00    +0.000 A 
ATOM     24  C   UNL     1       0.473  10.708  19.880  0.00  0.00    +0.000 A 
ATOM     25  C   UNL     1      -0.872  10.763  19.495  0.00  0.00    +0.000 A 
ATOM     26  C   UNL     1      -1.577  11.978  19.541  0.00  0.00    +0.000 A 
ATOM     27 CL   UNL     1      -3.234  11.971  19.049  0.00  0.00    +0.000 Cl
ENDBRANCH  16  24
ENDBRANCH   1  17
TORSDOF 3
ENDMDL
MODEL 8
REMARK VINA RESULT:      -7.5      3.300      3.792
REMARK  Name = 
REMARK  8 active torsions:
REMARK  status: ('A' for Active; 'I' for Inactive)
REMARK    1  A    between atoms: C_1  and  C_2
REMARK    2  A    between atoms: C_5  and  N_6
REMARK    3  A    between atoms: C_7  and  C_9
REMARK    4  A    between atoms: N_11  and  C_12
REMARK    5  A    between atoms: C_14  and  C_15
REMARK    6  A    between atoms: C_14  and  C_16
REMARK    7  A    between atoms: C_18  and  C_19
REMARK    8  A    between atoms: C_18  and  C_20
REMARK                            x       y       z     vdW  Elec       q    Type
REMARK                         _______ _______ _______ _____ _____    ______ ____
ROOT
ATOM      1  C   UNL     1       1.942   8.791  18.358  0.00  0.00    +0.000 C 
ATOM      2  O   UNL     1       2.185   8.657  17.168  0.00  0.00    +0.000 OA
ATOM      3  N   UNL     1       1.931   7.805  19.319  0.00  0.00    +0.000 N 
ATOM      4  H   UNL     1       1.800   8.140  20.273  0.00  0.00    +0.000 HD
ENDROOT
BRANCH   3   5
ATOM      5  C   UNL     1       2.268   6.403  19.100  0.00  0.00    +0.000 C 
ATOM      6  C   UNL     1       1.870   5.595  20.336  0.00  0.00    +0.000 C 
ATOM      7  C   UNL     1       2.271   4.112  20.252  0.00  0.00    +0.000 C 
ATOM      8  C   UNL     1       2.146   3.501  21.666  0.00  0.00    +0.000 C 
ATOM      9  C   UNL     1       1.315   3.320  19.343  0.00  0.00    +0.000 C 
ATOM     10  N   UNL     1       3.677   3.954  19.858  0.00  0.00    +0.000 NA
ATOM     11  C   UNL     1       4.201   4.761  18.748  0.00  0.00    +0.000 C 
ATOM     12  C   UNL     1       5.740   4.696  18.870  0.00  0.00    +0.000 C 
ATOM     13  C   UNL     1       3.843   4.166  17.373  0.00  0.00    +0.000 C 
ATOM     14  C   UNL     1       3.769   6.239  18.850  0.00  0.00    +0.000 C 
ATOM     15  H   UNL     1       3.909   2.969  19.730  0.00  0.00    +0.000 HD
ENDBRANCH   3   5
BRANCH   1  17
ATOM     16  N   UNL     1       1.891  11.234  18.095  0.00  0.00    +0.000 N 
ATOM     17  C   UNL     1       1.587  10.179  18.937  0.00  0.00    +0.000 C 
ATOM     18  O   UNL     1       1.085  10.211  20.055  0.00  0.00    +0.000 OA
ATOM     19  H   UNL     1       2.319  10.968  17.212  0.00  0.00    +0.000 HD
BRANCH  16  24
ATOM     20  C   UNL     1       1.086  16.831  19.151  0.00  0.00    +0.000 C 
ATOM     21  C   UNL     1       1.319  15.374  18.866  0.00  0.00    +0.000 A 
ATOM     22  C   UNL     1       0.229  14.499  18.862  0.00  0.00    +0.000 A 
ATOM     23  C   UNL     1       0.403  13.135  18.608  0.00  0.00    +0.000 A 
ATOM     24  C   UNL     1       1.668  12.605  18.353  0.00  0.00    +0.000 A 
ATOM     25  C   UNL     1       2.766  13.474  18.351  0.00  0.00    +0.000 A 
ATOM     26  C   UNL     1       2.591  14.844  18.604  0.00  0.00    +0.000 A 
ATOM     27 CL   UNL     1       3.993  15.856  18.588  0.00  0.00    +0.000 Cl
ENDBRANCH  16  24
ENDBRANCH   1  17
TORSDOF 3
ENDMDL
MODEL 9
REMARK VINA RESULT:      -7.5      2.012      3.240
REMARK  Name = 
REMARK  8 active torsions:
REMARK  status: ('A' for Active; 'I' for Inactive)
REMARK    1  A    between atoms: C_1  and  C_2
REMARK    2  A    between atoms: C_5  and  N_6
REMARK    3  A    between atoms: C_7  and  C_9
REMARK    4  A    between atoms: N_11  and  C_12
REMARK    5  A    between atoms: C_14  and  C_15
REMARK    6  A    between atoms: C_14  and  C_16
REMARK    7  A    between atoms: C_18  and  C_19
REMARK    8  A    between atoms: C_18  and  C_20
REMARK                            x       y       z     vdW  Elec       q    Type
REMARK                         _______ _______ _______ _____ _____    ______ ____
ROOT
ATOM      1  C   UNL     1       2.387   7.646  18.935  0.00  0.00    +0.000 C 
ATOM      2  O   UNL     1       2.102   7.065  19.971  0.00  0.00    +0.000 OA
ATOM      3  N   UNL     1       3.275   7.231  17.967  0.00  0.00    +0.000 N 
ATOM      4  H   UNL     1       3.298   7.813  17.131  0.00  0.00    +0.000 HD
ENDROOT
BRANCH   3   5
ATOM      5  C   UNL     1       4.010   5.971  17.975  0.00  0.00    +0.000 C 
ATOM      6  C   UNL     1       4.844   5.872  16.697  0.00  0.00    +0.000 C 
ATOM      7  C   UNL     1       5.588   4.532  16.556  0.00  0.00    +0.000 C 
ATOM      8  C   UNL     1       6.086   4.414  15.097  0.00  0.00    +0.000 C 
ATOM      9  C   UNL     1       6.835   4.482  17.454  0.00  0.00    +0.000 C 
ATOM     10  N   UNL     1       4.691   3.391  16.777  0.00  0.00    +0.000 NA
ATOM     11  C   UNL     1       3.766   3.423  17.919  0.00  0.00    +0.000 C 
ATOM     12  C   UNL     1       2.704   2.338  17.629  0.00  0.00    +0.000 C 
ATOM     13  C   UNL     1       4.452   3.026  19.239  0.00  0.00    +0.000 C 
ATOM     14  C   UNL     1       3.048   4.783  18.046  0.00  0.00    +0.000 C 
ATOM     15  H   UNL     1       5.211   2.513  16.758  0.00  0.00    +0.000 HD
ENDBRANCH   3   5
BRANCH   1  17
ATOM     16  N   UNL     1       1.269   9.699  19.693  0.00  0.00    +0.000 N 
ATOM     17  C   UNL     1       1.740   9.007  18.592  0.00  0.00    +0.000 C 
ATOM     18  O   UNL     1       1.707   9.333  17.411  0.00  0.00    +0.000 OA
ATOM     19  H   UNL     1       1.394   9.223  20.584  0.00  0.00    +0.000 HD
BRANCH  16  24
ATOM     20  C   UNL     1      -1.179  14.904  19.658  0.00  0.00    +0.000 C 
ATOM     21  C   UNL     1      -0.520  13.554  19.656  0.00  0.00    +0.000 A 
ATOM     22  C   UNL     1      -1.297  12.417  19.892  0.00  0.00    +0.000 A 
ATOM     23  C   UNL     1      -0.722  11.143  19.906  0.00  0.00    +0.000 A 
ATOM     24  C   UNL     1       0.644  10.966  19.685  0.00  0.00    +0.000 A 
ATOM     25  C   UNL     1       1.431  12.098  19.443  0.00  0.00    +0.000 A 
ATOM     26  C   UNL     1       0.853  13.379  19.428  0.00  0.00    +0.000 A 
ATOM     27 CL   UNL     1       1.887  14.731  19.125  0.00  0.00    +0.000 Cl
ENDBRANCH  16  24
ENDBRANCH   1  17
TORSDOF 3
ENDMDL
