MODEL 1
REMARK VINA RESULT:      -7.4      0.000      0.000
REMARK  Name = 
REMARK  11 active torsions:
REMARK  status: ('A' for Active; 'I' for Inactive)
REMARK    1  A    between atoms: C_1  and  C_2
REMARK    2  A    between atoms: C_2  and  C_3
REMARK    3  A    between atoms: C_6  and  C_7
REMARK    4  A    between atoms: N_9  and  C_10
REMARK    5  A    between atoms: C_10  and  C_11
REMARK    6  A    between atoms: C_11  and  C_12
REMARK    7  A    between atoms: C_12  and  C_13
REMARK    8  A    between atoms: C_13  and  C_14
REMARK    9  A    between atoms: C_14  and  C_15
REMARK   10  A    between atoms: N_17  and  C_18
REMARK   11  A    between atoms: C_23  and  N_24
REMARK                            x       y       z     vdW  Elec       q    Type
REMARK                         _______ _______ _______ _____ _____    ______ ____
ROOT
ATOM      1  C   UNL     1       0.896   2.861  20.131  0.00  0.00    +0.000 C 
ENDROOT
BRANCH   1   2
ATOM      2  C   UNL     1       2.316   2.808  20.693  0.00  0.00    +0.000 C 
BRANCH   2   3
ATOM      3  C   UNL     1       2.567   3.927  21.694  0.00  0.00    +0.000 C 
BRANCH   3   6
ATOM      4  C   UNL     1       2.712   5.975  20.329  0.00  0.00    +0.000 C 
ATOM      5  O   UNL     1       3.809   5.652  19.882  0.00  0.00    +0.000 OA
ATOM      6  N   UNL     1       2.015   5.177  21.215  0.00  0.00    +0.000 N 
ATOM      7  H   UNL     1       1.175   5.509  21.661  0.00  0.00    +0.000 HD
BRANCH   4  11
ATOM      8  C   UNL     1       1.048   9.748  19.047  0.00  0.00    +0.000 A 
ATOM      9  C   UNL     1       1.769   8.931  18.169  0.00  0.00    +0.000 A 
ATOM     10  C   UNL     1       2.292   7.711  18.608  0.00  0.00    +0.000 A 
ATOM     11  C   UNL     1       2.098   7.279  19.929  0.00  0.00    +0.000 A 
ATOM     12  C   UNL     1       1.348   8.084  20.797  0.00  0.00    +0.000 A 
ATOM     13  C   UNL     1       0.830   9.306  20.357  0.00  0.00    +0.000 A 
BRANCH   8  15
ATOM     14  C   UNL     1       1.271  12.247  19.179  0.00  0.00    +0.000 C 
ATOM     15  C   UNL     1       0.505  11.076  18.587  0.00  0.00    +0.000 C 
ENDBRANCH   8  15
ENDBRANCH   4  11
ENDBRANCH   3   6
ENDBRANCH   2   3
ENDBRANCH   1   2
BRANCH   1  16
ATOM     16  C   UNL     1       0.860   2.609  18.624  0.00  0.00    +0.000 C 
BRANCH  16  17
ATOM     17  C   UNL     1       1.414   3.783  17.818  0.00  0.00    +0.000 C 
BRANCH  17  18
ATOM     18  C   UNL     1       2.822   3.527  17.352  0.00  0.00    +0.000 C 
ATOM     19  O   UNL     1       3.187   2.369  17.145  0.00  0.00    +0.000 OA
ATOM     20  N   UNL     1       3.594   4.669  17.222  0.00  0.00    +0.000 N 
ATOM     21  H   UNL     1       3.272   5.505  17.688  0.00  0.00    +0.000 HD
BRANCH  20  22
ATOM     22  C   UNL     1       4.889   4.733  16.651  0.00  0.00    +0.000 A 
ATOM     23  C   UNL     1       5.058   5.064  15.300  0.00  0.00    +0.000 A 
ATOM     24  C   UNL     1       6.318   5.081  14.713  0.00  0.00    +0.000 A 
ATOM     25  C   UNL     1       7.436   4.767  15.470  0.00  0.00    +0.000 A 
ATOM     26  C   UNL     1       7.289   4.456  16.823  0.00  0.00    +0.000 A 
ATOM     27  C   UNL     1       6.031   4.487  17.448  0.00  0.00    +0.000 A 
BRANCH  27  28
ATOM     28  N   UNL     1       5.947   4.048  18.788  0.00  0.00    +0.000 N 
ATOM     29  H   UNL     1       6.576   3.268  18.986  0.00  0.00    +0.000 HD
ATOM     30  H   UNL     1       6.055   4.779  19.479  0.00  0.00    +0.000 HD
ENDBRANCH  27  28
ENDBRANCH  20  22
ENDBRANCH  17  18
ENDBRANCH  16  17
ENDBRANCH   1  16
TORSDOF 10
ENDMDL
MODEL 2
REMARK VINA RESULT:      -7.4      0.918      1.419
REMARK  Name = 
REMARK  11 active torsions:
REMARK  status: ('A' for Active; 'I' for Inactive)
REMARK    1  A    between atoms: C_1  and  C_2
REMARK    2  A    between atoms: C_2  and  C_3
REMARK    3  A    between atoms: C_6  and  C_7
REMARK    4  A    between atoms: N_9  and  C_10
REMARK    5  A    between atoms: C_10  and  C_11
REMARK    6  A    between atoms: C_11  and  C_12
REMARK    7  A    between atoms: C_12  and  C_13
REMARK    8  A    between atoms: C_13  and  C_14
REMARK    9  A    between atoms: C_14  and  C_15
REMARK   10  A    between atoms: N_17  and  C_18
REMARK   11  A    between atoms: C_23  and  N_24
REMARK                            x       y       z     vdW  Elec       q    Type
REMARK                         _______ _______ _______ _____ _____    ______ ____
ROOT
ATOM      1  C   UNL     1       1.119   2.706  20.498  0.00  0.00    +0.000 C 
ENDROOT
BRANCH   1   2
ATOM      2  C   UNL     1       1.855   3.556  21.533  0.00  0.00    +0.000 C 
BRANCH   2   3
ATOM      3  C   UNL     1       2.825   4.528  20.875  0.00  0.00    +0.000 C 
BRANCH   3   6
ATOM      4  C   UNL     1       2.585   6.627  19.605  0.00  0.00    +0.000 C 
ATOM      5  O   UNL     1       3.465   6.299  18.812  0.00  0.00    +0.000 OA
ATOM      6  N   UNL     1       2.189   5.809  20.644  0.00  0.00    +0.000 N 
ATOM      7  H   UNL     1       1.553   6.140  21.351  0.00  0.00    +0.000 HD
BRANCH   4  11
ATOM      8  C   UNL     1       0.566  10.436  19.345  0.00  0.00    +0.000 A 
ATOM      9  C   UNL     1       0.579   9.695  20.532  0.00  0.00    +0.000 A 
ATOM     10  C   UNL     1       1.246   8.468  20.591  0.00  0.00    +0.000 A 
ATOM     11  C   UNL     1       1.919   7.960  19.470  0.00  0.00    +0.000 A 
ATOM     12  C   UNL     1       1.932   8.719  18.292  0.00  0.00    +0.000 A 
ATOM     13  C   UNL     1       1.260   9.944  18.234  0.00  0.00    +0.000 A 
BRANCH   8  15
ATOM     14  C   UNL     1      -1.402  11.662  18.378  0.00  0.00    +0.000 C 
ATOM     15  C   UNL     1      -0.173  11.747  19.267  0.00  0.00    +0.000 C 
ENDBRANCH   8  15
ENDBRANCH   4  11
ENDBRANCH   3   6
ENDBRANCH   2   3
ENDBRANCH   1   2
BRANCH   1  16
ATOM     16  C   UNL     1       1.250   3.273  19.085  0.00  0.00    +0.000 C 
BRANCH  16  17
ATOM     17  C   UNL     1       1.758   2.239  18.081  0.00  0.00    +0.000 C 
BRANCH  17  18
ATOM     18  C   UNL     1       3.221   2.426  17.780  0.00  0.00    +0.000 C 
ATOM     19  O   UNL     1       4.008   1.509  18.017  0.00  0.00    +0.000 OA
ATOM     20  N   UNL     1       3.541   3.671  17.265  0.00  0.00    +0.000 N 
ATOM     21  H   UNL     1       2.866   4.413  17.387  0.00  0.00    +0.000 HD
BRANCH  20  22
ATOM     22  C   UNL     1       4.803   4.055  16.747  0.00  0.00    +0.000 A 
ATOM     23  C   UNL     1       4.985   4.228  15.368  0.00  0.00    +0.000 A 
ATOM     24  C   UNL     1       6.228   4.554  14.840  0.00  0.00    +0.000 A 
ATOM     25  C   UNL     1       7.316   4.715  15.684  0.00  0.00    +0.000 A 
ATOM     26  C   UNL     1       7.149   4.567  17.062  0.00  0.00    +0.000 A 
ATOM     27  C   UNL     1       5.889   4.292  17.621  0.00  0.00    +0.000 A 
BRANCH  27  28
ATOM     28  N   UNL     1       5.820   4.042  19.009  0.00  0.00    +0.000 N 
ATOM     29  H   UNL     1       5.127   3.331  19.246  0.00  0.00    +0.000 HD
ATOM     30  H   UNL     1       6.710   3.834  19.444  0.00  0.00    +0.000 HD
ENDBRANCH  27  28
ENDBRANCH  20  22
ENDBRANCH  17  18
ENDBRANCH  16  17
ENDBRANCH   1  16
TORSDOF 10
ENDMDL
MODEL 3
REMARK VINA RESULT:      -7.2      2.378      3.984
REMARK  Name = 
REMARK  11 active torsions:
REMARK  status: ('A' for Active; 'I' for Inactive)
REMARK    1  A    between atoms: C_1  and  C_2
REMARK    2  A    between atoms: C_2  and  C_3
REMARK    3  A    between atoms: C_6  and  C_7
REMARK    4  A    between atoms: N_9  and  C_10
REMARK    5  A    between atoms: C_10  and  C_11
REMARK    6  A    between atoms: C_11  and  C_12
REMARK    7  A    between atoms: C_12  and  C_13
REMARK    8  A    between atoms: C_13  and  C_14
REMARK    9  A    between atoms: C_14  and  C_15
REMARK   10  A    between atoms: N_17  and  C_18
REMARK   11  A    between atoms: C_23  and  N_24
REMARK                            x       y       z     vdW  Elec       q    Type
REMARK                         _______ _______ _______ _____ _____    ______ ____
ROOT
ATOM      1  C   UNL     1       6.488   5.641  19.456  0.00  0.00    +0.000 C 
ENDROOT
BRANCH   1   2
ATOM      2  C   UNL     1       5.796   4.300  19.215  0.00  0.00    +0.000 C 
BRANCH   2   3
ATOM      3  C   UNL     1       4.649   4.429  18.223  0.00  0.00    +0.000 C 
BRANCH   3   6
ATOM      4  C   UNL     1       2.958   5.989  19.108  0.00  0.00    +0.000 C 
ATOM      5  O   UNL     1       2.464   5.119  19.820  0.00  0.00    +0.000 OA
ATOM      6  N   UNL     1       4.050   5.746  18.300  0.00  0.00    +0.000 N 
ATOM      7  H   UNL     1       4.369   6.434  17.638  0.00  0.00    +0.000 HD
BRANCH   4  11
ATOM      8  C   UNL     1       1.140   9.906  19.173  0.00  0.00    +0.000 A 
ATOM      9  C   UNL     1       1.116   9.071  20.295  0.00  0.00    +0.000 A 
ATOM     10  C   UNL     1       1.718   7.810  20.249  0.00  0.00    +0.000 A 
ATOM     11  C   UNL     1       2.362   7.361  19.087  0.00  0.00    +0.000 A 
ATOM     12  C   UNL     1       2.413   8.213  17.975  0.00  0.00    +0.000 A 
ATOM     13  C   UNL     1       1.807   9.472  18.021  0.00  0.00    +0.000 A 
BRANCH   8  15
ATOM     14  C   UNL     1       0.635  11.945  20.551  0.00  0.00    +0.000 C 
ATOM     15  C   UNL     1       0.471  11.256  19.207  0.00  0.00    +0.000 C 
ENDBRANCH   8  15
ENDBRANCH   4  11
ENDBRANCH   3   6
ENDBRANCH   2   3
ENDBRANCH   1   2
BRANCH   1  16
ATOM     16  C   UNL     1       7.689   5.846  18.533  0.00  0.00    +0.000 C 
BRANCH  16  17
ATOM     17  C   UNL     1       7.456   6.948  17.500  0.00  0.00    +0.000 C 
BRANCH  17  18
ATOM     18  C   UNL     1       6.740   6.430  16.282  0.00  0.00    +0.000 C 
ATOM     19  O   UNL     1       5.653   6.917  15.968  0.00  0.00    +0.000 OA
ATOM     20  N   UNL     1       7.401   5.403  15.629  0.00  0.00    +0.000 N 
ATOM     21  H   UNL     1       8.121   4.914  16.140  0.00  0.00    +0.000 HD
BRANCH  20  22
ATOM     22  C   UNL     1       7.037   4.848  14.377  0.00  0.00    +0.000 A 
ATOM     23  C   UNL     1       5.947   3.973  14.274  0.00  0.00    +0.000 A 
ATOM     24  C   UNL     1       5.609   3.381  13.063  0.00  0.00    +0.000 A 
ATOM     25  C   UNL     1       6.356   3.655  11.928  0.00  0.00    +0.000 A 
ATOM     26  C   UNL     1       7.433   4.541  12.007  0.00  0.00    +0.000 A 
ATOM     27  C   UNL     1       7.757   5.193  13.209  0.00  0.00    +0.000 A 
BRANCH  27  28
ATOM     28  N   UNL     1       8.927   5.983  13.239  0.00  0.00    +0.000 N 
ATOM     29  H   UNL     1       8.823   6.858  12.721  0.00  0.00    +0.000 HD
ATOM     30  H   UNL     1       9.294   6.157  14.166  0.00  0.00    +0.000 HD
ENDBRANCH  27  28
ENDBRANCH  20  22
ENDBRANCH  17  18
ENDBRANCH  16  17
ENDBRANCH   1  16
TORSDOF 10
ENDMDL
MODEL 4
REMARK VINA RESULT:      -7.0      6.105      7.861
REMARK  Name = 
REMARK  11 active torsions:
REMARK  status: ('A' for Active; 'I' for Inactive)
REMARK    1  A    between atoms: C_1  and  C_2
REMARK    2  A    between atoms: C_2  and  C_3
REMARK    3  A    between atoms: C_6  and  C_7
REMARK    4  A    between atoms: N_9  and  C_10
REMARK    5  A    between atoms: C_10  and  C_11
REMARK    6  A    between atoms: C_11  and  C_12
REMARK    7  A    between atoms: C_12  and  C_13
REMARK    8  A    between atoms: C_13  and  C_14
REMARK    9  A    between atoms: C_14  and  C_15
REMARK   10  A    between atoms: N_17  and  C_18
REMARK   11  A    between atoms: C_23  and  N_24
REMARK                            x       y       z     vdW  Elec       q    Type
REMARK                         _______ _______ _______ _____ _____    ______ ____
ROOT
ATOM      1  C   UNL     1       7.439   6.714  17.781  0.00  0.00    +0.000 C 
ENDROOT
BRANCH   1   2
ATOM      2  C   UNL     1       7.757   8.172  17.452  0.00  0.00    +0.000 C 
BRANCH   2   3
ATOM      3  C   UNL     1       8.505   8.854  18.588  0.00  0.00    +0.000 C 
BRANCH   3   6
ATOM      4  C   UNL     1       9.488  11.062  19.077  0.00  0.00    +0.000 C 
ATOM      5  O   UNL     1       9.507  10.835  20.284  0.00  0.00    +0.000 OA
ATOM      6  N   UNL     1       9.028  10.136  18.161  0.00  0.00    +0.000 N 
ATOM      7  H   UNL     1       8.910  10.380  17.192  0.00  0.00    +0.000 HD
BRANCH   4  11
ATOM      8  C   UNL     1      10.968  14.802  17.505  0.00  0.00    +0.000 A 
ATOM      9  C   UNL     1      11.279  13.580  16.898  0.00  0.00    +0.000 A 
ATOM     10  C   UNL     1      10.781  12.384  17.424  0.00  0.00    +0.000 A 
ATOM     11  C   UNL     1       9.958  12.385  18.559  0.00  0.00    +0.000 A 
ATOM     12  C   UNL     1       9.621  13.612  19.146  0.00  0.00    +0.000 A 
ATOM     13  C   UNL     1      10.124  14.807  18.621  0.00  0.00    +0.000 A 
BRANCH   8  15
ATOM     14  C   UNL     1      10.620  17.277  17.259  0.00  0.00    +0.000 C 
ATOM     15  C   UNL     1      11.522  16.092  16.959  0.00  0.00    +0.000 C 
ENDBRANCH   8  15
ENDBRANCH   4  11
ENDBRANCH   3   6
ENDBRANCH   2   3
ENDBRANCH   1   2
BRANCH   1  16
ATOM     16  C   UNL     1       6.915   5.949  16.566  0.00  0.00    +0.000 C 
BRANCH  16  17
ATOM     17  C   UNL     1       5.480   6.329  16.205  0.00  0.00    +0.000 C 
BRANCH  17  18
ATOM     18  C   UNL     1       4.496   5.835  17.232  0.00  0.00    +0.000 C 
ATOM     19  O   UNL     1       3.912   6.649  17.948  0.00  0.00    +0.000 OA
ATOM     20  N   UNL     1       4.364   4.457  17.275  0.00  0.00    +0.000 N 
ATOM     21  H   UNL     1       5.093   3.906  16.846  0.00  0.00    +0.000 HD
BRANCH  20  22
ATOM     22  C   UNL     1       3.399   3.741  18.026  0.00  0.00    +0.000 A 
ATOM     23  C   UNL     1       2.039   3.816  17.695  0.00  0.00    +0.000 A 
ATOM     24  C   UNL     1       1.075   3.159  18.452  0.00  0.00    +0.000 A 
ATOM     25  C   UNL     1       1.455   2.413  19.557  0.00  0.00    +0.000 A 
ATOM     26  C   UNL     1       2.807   2.310  19.889  0.00  0.00    +0.000 A 
ATOM     27  C   UNL     1       3.802   2.920  19.104  0.00  0.00    +0.000 A 
BRANCH  27  28
ATOM     28  N   UNL     1       5.135   2.868  19.568  0.00  0.00    +0.000 N 
ATOM     29  H   UNL     1       5.681   3.684  19.283  0.00  0.00    +0.000 HD
ATOM     30  H   UNL     1       5.229   2.704  20.562  0.00  0.00    +0.000 HD
ENDBRANCH  27  28
ENDBRANCH  20  22
ENDBRANCH  17  18
ENDBRANCH  16  17
ENDBRANCH   1  16
TORSDOF 10
ENDMDL
MODEL 5
REMARK VINA RESULT:      -7.0      1.595      1.909
REMARK  Name = 
REMARK  11 active torsions:
REMARK  status: ('A' for Active; 'I' for Inactive)
REMARK    1  A    between atoms: C_1  and  C_2
REMARK    2  A    between atoms: C_2  and  C_3
REMARK    3  A    between atoms: C_6  and  C_7
REMARK    4  A    between atoms: N_9  and  C_10
REMARK    5  A    between atoms: C_10  and  C_11
REMARK    6  A    between atoms: C_11  and  C_12
REMARK    7  A    between atoms: C_12  and  C_13
REMARK    8  A    between atoms: C_13  and  C_14
REMARK    9  A    between atoms: C_14  and  C_15
REMARK   10  A    between atoms: N_17  and  C_18
REMARK   11  A    between atoms: C_23  and  N_24
REMARK                            x       y       z     vdW  Elec       q    Type
REMARK                         _______ _______ _______ _____ _____    ______ ____
ROOT
ATOM      1  C   UNL     1       1.441   2.543  20.929  0.00  0.00    +0.000 C 
ENDROOT
BRANCH   1   2
ATOM      2  C   UNL     1       2.143   3.728  21.591  0.00  0.00    +0.000 C 
BRANCH   2   3
ATOM      3  C   UNL     1       2.471   4.822  20.585  0.00  0.00    +0.000 C 
BRANCH   3   6
ATOM      4  C   UNL     1       1.945   7.192  20.161  0.00  0.00    +0.000 C 
ATOM      5  O   UNL     1       2.613   7.202  19.130  0.00  0.00    +0.000 OA
ATOM      6  N   UNL     1       1.802   6.058  20.935  0.00  0.00    +0.000 N 
ATOM      7  H   UNL     1       1.350   6.097  21.834  0.00  0.00    +0.000 HD
BRANCH   4  11
ATOM      8  C   UNL     1       0.052  10.885  21.359  0.00  0.00    +0.000 A 
ATOM      9  C   UNL     1       0.417  10.648  20.029  0.00  0.00    +0.000 A 
ATOM     10  C   UNL     1       1.022   9.441  19.667  0.00  0.00    +0.000 A 
ATOM     11  C   UNL     1       1.268   8.444  20.623  0.00  0.00    +0.000 A 
ATOM     12  C   UNL     1       0.873   8.670  21.948  0.00  0.00    +0.000 A 
ATOM     13  C   UNL     1       0.271   9.880  22.309  0.00  0.00    +0.000 A 
BRANCH   8  15
ATOM     14  C   UNL     1      -1.436  12.059  23.007  0.00  0.00    +0.000 C 
ATOM     15  C   UNL     1      -0.577  12.194  21.761  0.00  0.00    +0.000 C 
ENDBRANCH   8  15
ENDBRANCH   4  11
ENDBRANCH   3   6
ENDBRANCH   2   3
ENDBRANCH   1   2
BRANCH   1  16
ATOM     16  C   UNL     1       1.082   2.825  19.470  0.00  0.00    +0.000 C 
BRANCH  16  17
ATOM     17  C   UNL     1       1.988   2.083  18.488  0.00  0.00    +0.000 C 
BRANCH  17  18
ATOM     18  C   UNL     1       2.745   3.034  17.599  0.00  0.00    +0.000 C 
ATOM     19  O   UNL     1       2.124   3.872  16.945  0.00  0.00    +0.000 OA
ATOM     20  N   UNL     1       4.116   2.839  17.598  0.00  0.00    +0.000 N 
ATOM     21  H   UNL     1       4.462   1.956  17.944  0.00  0.00    +0.000 HD
BRANCH  20  22
ATOM     22  C   UNL     1       5.072   3.687  16.986  0.00  0.00    +0.000 A 
ATOM     23  C   UNL     1       5.225   3.702  15.593  0.00  0.00    +0.000 A 
ATOM     24  C   UNL     1       6.192   4.490  14.981  0.00  0.00    +0.000 A 
ATOM     25  C   UNL     1       7.028   5.282  15.754  0.00  0.00    +0.000 A 
ATOM     26  C   UNL     1       6.876   5.296  17.141  0.00  0.00    +0.000 A 
ATOM     27  C   UNL     1       5.868   4.550  17.775  0.00  0.00    +0.000 A 
BRANCH  27  28
ATOM     28  N   UNL     1       5.851   4.524  19.187  0.00  0.00    +0.000 N 
ATOM     29  H   UNL     1       6.775   4.355  19.588  0.00  0.00    +0.000 HD
ATOM     30  H   UNL     1       5.417   5.331  19.618  0.00  0.00    +0.000 HD
ENDBRANCH  27  28
ENDBRANCH  20  22
ENDBRANCH  17  18
ENDBRANCH  16  17
ENDBRANCH   1  16
TORSDOF 10
ENDMDL
MODEL 6
REMARK VINA RESULT:      -6.8      2.276      2.938
REMARK  Name = 
REMARK  11 active torsions:
REMARK  status: ('A' for Active; 'I' for Inactive)
REMARK    1  A    between atoms: C_1  and  C_2
REMARK    2  A    between atoms: C_2  and  C_3
REMARK    3  A    between atoms: C_6  and  C_7
REMARK    4  A    between atoms: N_9  and  C_10
REMARK    5  A    between atoms: C_10  and  C_11
REMARK    6  A    between atoms: C_11  and  C_12
REMARK    7  A    between atoms: C_12  and  C_13
REMARK    8  A    between atoms: C_13  and  C_14
REMARK    9  A    between atoms: C_14  and  C_15
REMARK   10  A    between atoms: N_17  and  C_18
REMARK   11  A    between atoms: C_23  and  N_24
REMARK                            x       y       z     vdW  Elec       q    Type
REMARK                         _______ _______ _______ _____ _____    ______ ____
ROOT
ATOM      1  C   UNL     1       1.359   3.929  20.762  0.00  0.00    +0.000 C 
ENDROOT
BRANCH   1   2
ATOM      2  C   UNL     1       1.549   4.994  19.684  0.00  0.00    +0.000 C 
BRANCH   2   3
ATOM      3  C   UNL     1       2.376   6.167  20.191  0.00  0.00    +0.000 C 
BRANCH   3   6
ATOM      4  C   UNL     1       1.289   8.374  20.332  0.00  0.00    +0.000 C 
ATOM      5  O   UNL     1       1.735   8.713  19.239  0.00  0.00    +0.000 OA
ATOM      6  N   UNL     1       1.538   7.129  20.875  0.00  0.00    +0.000 N 
ATOM      7  H   UNL     1       1.264   6.911  21.819  0.00  0.00    +0.000 HD
BRANCH   4  11
ATOM      8  C   UNL     1      -1.079  11.254  22.512  0.00  0.00    +0.000 A 
ATOM      9  C   UNL     1      -0.879  11.367  21.132  0.00  0.00    +0.000 A 
ATOM     10  C   UNL     1      -0.113  10.417  20.449  0.00  0.00    +0.000 A 
ATOM     11  C   UNL     1       0.461   9.333  21.129  0.00  0.00    +0.000 A 
ATOM     12  C   UNL     1       0.231   9.203  22.505  0.00  0.00    +0.000 A 
ATOM     13  C   UNL     1      -0.531  10.157  23.187  0.00  0.00    +0.000 A 
BRANCH   8  15
ATOM     14  C   UNL     1      -3.217  12.571  22.590  0.00  0.00    +0.000 C 
ATOM     15  C   UNL     1      -1.882  12.288  23.258  0.00  0.00    +0.000 C 
ENDBRANCH   8  15
ENDBRANCH   4  11
ENDBRANCH   3   6
ENDBRANCH   2   3
ENDBRANCH   1   2
BRANCH   1  16
ATOM     16  C   UNL     1       1.999   2.595  20.376  0.00  0.00    +0.000 C 
BRANCH  16  17
ATOM     17  C   UNL     1       3.525   2.634  20.440  0.00  0.00    +0.000 C 
BRANCH  17  18
ATOM     18  C   UNL     1       4.141   2.658  19.067  0.00  0.00    +0.000 C 
ATOM     19  O   UNL     1       4.015   1.678  18.332  0.00  0.00    +0.000 OA
ATOM     20  N   UNL     1       4.831   3.822  18.774  0.00  0.00    +0.000 N 
ATOM     21  H   UNL     1       5.097   4.413  19.549  0.00  0.00    +0.000 HD
BRANCH  20  22
ATOM     22  C   UNL     1       5.362   4.174  17.509  0.00  0.00    +0.000 A 
ATOM     23  C   UNL     1       4.540   4.213  16.375  0.00  0.00    +0.000 A 
ATOM     24  C   UNL     1       5.056   4.507  15.119  0.00  0.00    +0.000 A 
ATOM     25  C   UNL     1       6.410   4.770  14.972  0.00  0.00    +0.000 A 
ATOM     26  C   UNL     1       7.241   4.757  16.094  0.00  0.00    +0.000 A 
ATOM     27  C   UNL     1       6.729   4.517  17.381  0.00  0.00    +0.000 A 
BRANCH  27  28
ATOM     28  N   UNL     1       7.647   4.405  18.449  0.00  0.00    +0.000 N 
ATOM     29  H   UNL     1       7.186   4.261  19.349  0.00  0.00    +0.000 HD
ATOM     30  H   UNL     1       8.377   3.719  18.307  0.00  0.00    +0.000 HD
ENDBRANCH  27  28
ENDBRANCH  20  22
ENDBRANCH  17  18
ENDBRANCH  16  17
ENDBRANCH   1  16
TORSDOF 10
ENDMDL
MODEL 7
REMARK VINA RESULT:      -6.8      1.923      4.407
REMARK  Name = 
REMARK  11 active torsions:
REMARK  status: ('A' for Active; 'I' for Inactive)
REMARK    1  A    between atoms: C_1  and  C_2
REMARK    2  A    between atoms: C_2  and  C_3
REMARK    3  A    between atoms: C_6  and  C_7
REMARK    4  A    between atoms: N_9  and  C_10
REMARK    5  A    between atoms: C_10  and  C_11
REMARK    6  A    between atoms: C_11  and  C_12
REMARK    7  A    between atoms: C_12  and  C_13
REMARK    8  A    between atoms: C_13  and  C_14
REMARK    9  A    between atoms: C_14  and  C_15
REMARK   10  A    between atoms: N_17  and  C_18
REMARK   11  A    between atoms: C_23  and  N_24
REMARK                            x       y       z     vdW  Elec       q    Type
REMARK                         _______ _______ _______ _____ _____    ______ ____
ROOT
ATOM      1  C   UNL     1       5.587   6.406  16.192  0.00  0.00    +0.000 C 
ENDROOT
BRANCH   1   2
ATOM      2  C   UNL     1       4.882   7.323  17.191  0.00  0.00    +0.000 C 
BRANCH   2   3
ATOM      3  C   UNL     1       3.498   6.803  17.552  0.00  0.00    +0.000 C 
BRANCH   3   6
ATOM      4  C   UNL     1       2.196   7.500  19.525  0.00  0.00    +0.000 C 
ATOM      5  O   UNL     1       2.327   6.400  20.055  0.00  0.00    +0.000 OA
ATOM      6  N   UNL     1       2.755   7.797  18.298  0.00  0.00    +0.000 N 
ATOM      7  H   UNL     1       2.541   8.660  17.826  0.00  0.00    +0.000 HD
BRANCH   4  11
ATOM      8  C   UNL     1      -0.055  10.684  21.382  0.00  0.00    +0.000 A 
ATOM      9  C   UNL     1       0.425  10.796  20.072  0.00  0.00    +0.000 A 
ATOM     10  C   UNL     1       1.146   9.747  19.493  0.00  0.00    +0.000 A 
ATOM     11  C   UNL     1       1.394   8.565  20.205  0.00  0.00    +0.000 A 
ATOM     12  C   UNL     1       0.884   8.442  21.505  0.00  0.00    +0.000 A 
ATOM     13  C   UNL     1       0.167   9.494  22.084  0.00  0.00    +0.000 A 
BRANCH   8  15
ATOM     14  C   UNL     1      -1.724  11.346  23.138  0.00  0.00    +0.000 C 
ATOM     15  C   UNL     1      -0.810  11.821  22.021  0.00  0.00    +0.000 C 
ENDBRANCH   8  15
ENDBRANCH   4  11
ENDBRANCH   3   6
ENDBRANCH   2   3
ENDBRANCH   1   2
BRANCH   1  16
ATOM     16  C   UNL     1       6.989   6.015  16.656  0.00  0.00    +0.000 C 
BRANCH  16  17
ATOM     17  C   UNL     1       7.064   4.570  17.149  0.00  0.00    +0.000 C 
BRANCH  17  18
ATOM     18  C   UNL     1       5.957   4.252  18.118  0.00  0.00    +0.000 C 
ATOM     19  O   UNL     1       6.021   4.684  19.270  0.00  0.00    +0.000 OA
ATOM     20  N   UNL     1       4.952   3.458  17.592  0.00  0.00    +0.000 N 
ATOM     21  H   UNL     1       5.158   2.946  16.746  0.00  0.00    +0.000 HD
BRANCH  20  22
ATOM     22  C   UNL     1       3.724   3.146  18.227  0.00  0.00    +0.000 A 
ATOM     23  C   UNL     1       2.509   3.586  17.685  0.00  0.00    +0.000 A 
ATOM     24  C   UNL     1       1.301   3.331  18.322  0.00  0.00    +0.000 A 
ATOM     25  C   UNL     1       1.285   2.630  19.518  0.00  0.00    +0.000 A 
ATOM     26  C   UNL     1       2.484   2.166  20.062  0.00  0.00    +0.000 A 
ATOM     27  C   UNL     1       3.711   2.364  19.405  0.00  0.00    +0.000 A 
BRANCH  27  28
ATOM     28  N   UNL     1       4.891   1.969  20.073  0.00  0.00    +0.000 N 
ATOM     29  H   UNL     1       4.746   1.159  20.679  0.00  0.00    +0.000 HD
ATOM     30  H   UNL     1       5.689   1.825  19.468  0.00  0.00    +0.000 HD
ENDBRANCH  27  28
ENDBRANCH  20  22
ENDBRANCH  17  18
ENDBRANCH  16  17
ENDBRANCH   1  16
TORSDOF 10
ENDMDL
MODEL 8
REMARK VINA RESULT:      -6.8      2.174      2.986
REMARK  Name = 
REMARK  11 active torsions:
REMARK  status: ('A' for Active; 'I' for Inactive)
REMARK    1  A    between atoms: C_1  and  C_2
REMARK    2  A    between atoms: C_2  and  C_3
REMARK    3  A    between atoms: C_6  and  C_7
REMARK    4  A    between atoms: N_9  and  C_10
REMARK    5  A    between atoms: C_10  and  C_11
REMARK    6  A    between atoms: C_11  and  C_12
REMARK    7  A    between atoms: C_12  and  C_13
REMARK    8  A    between atoms: C_13  and  C_14
REMARK    9  A    between atoms: C_14  and  C_15
REMARK   10  A    between atoms: N_17  and  C_18
REMARK   11  A    between atoms: C_23  and  N_24
REMARK                            x       y       z     vdW  Elec       q    Type
REMARK                         _______ _______ _______ _____ _____    ______ ____
ROOT
ATOM      1  C   UNL     1       1.348   2.974  20.788  0.00  0.00    +0.000 C 
ENDROOT
BRANCH   1   2
ATOM      2  C   UNL     1       0.788   4.357  20.457  0.00  0.00    +0.000 C 
BRANCH   2   3
ATOM      3  C   UNL     1       1.824   5.450  20.674  0.00  0.00    +0.000 C 
BRANCH   3   6
ATOM      4  C   UNL     1       1.402   7.870  20.469  0.00  0.00    +0.000 C 
ATOM      5  O   UNL     1       2.102   7.951  19.462  0.00  0.00    +0.000 OA
ATOM      6  N   UNL     1       1.193   6.673  21.125  0.00  0.00    +0.000 N 
ATOM      7  H   UNL     1       0.715   6.644  22.011  0.00  0.00    +0.000 HD
BRANCH   4  11
ATOM      8  C   UNL     1      -0.525  11.321  22.207  0.00  0.00    +0.000 A 
ATOM      9  C   UNL     1      -0.335  10.144  22.939  0.00  0.00    +0.000 A 
ATOM     10  C   UNL     1       0.298   9.043  22.354  0.00  0.00    +0.000 A 
ATOM     11  C   UNL     1       0.761   9.099  21.031  0.00  0.00    +0.000 A 
ATOM     12  C   UNL     1       0.599  10.290  20.311  0.00  0.00    +0.000 A 
ATOM     13  C   UNL     1      -0.038  11.389  20.897  0.00  0.00    +0.000 A 
BRANCH   8  15
ATOM     14  C   UNL     1      -2.608  12.140  23.347  0.00  0.00    +0.000 C 
ATOM     15  C   UNL     1      -1.229  12.503  22.823  0.00  0.00    +0.000 C 
ENDBRANCH   8  15
ENDBRANCH   4  11
ENDBRANCH   3   6
ENDBRANCH   2   3
ENDBRANCH   1   2
BRANCH   1  16
ATOM     16  C   UNL     1       2.344   2.487  19.736  0.00  0.00    +0.000 C 
BRANCH  16  17
ATOM     17  C   UNL     1       3.795   2.603  20.202  0.00  0.00    +0.000 C 
BRANCH  17  18
ATOM     18  C   UNL     1       4.612   3.460  19.273  0.00  0.00    +0.000 C 
ATOM     19  O   UNL     1       5.697   3.900  19.656  0.00  0.00    +0.000 OA
ATOM     20  N   UNL     1       4.022   3.687  18.042  0.00  0.00    +0.000 N 
ATOM     21  H   UNL     1       3.030   3.514  17.962  0.00  0.00    +0.000 HD
BRANCH  20  22
ATOM     22  C   UNL     1       4.637   4.316  16.931  0.00  0.00    +0.000 A 
ATOM     23  C   UNL     1       5.214   3.551  15.908  0.00  0.00    +0.000 A 
ATOM     24  C   UNL     1       5.865   4.153  14.837  0.00  0.00    +0.000 A 
ATOM     25  C   UNL     1       5.951   5.535  14.769  0.00  0.00    +0.000 A 
ATOM     26  C   UNL     1       5.364   6.313  15.769  0.00  0.00    +0.000 A 
ATOM     27  C   UNL     1       4.652   5.726  16.830  0.00  0.00    +0.000 A 
BRANCH  27  28
ATOM     28  N   UNL     1       4.187   6.570  17.861  0.00  0.00    +0.000 N 
ATOM     29  H   UNL     1       4.006   7.523  17.538  0.00  0.00    +0.000 HD
ATOM     30  H   UNL     1       3.392   6.210  18.374  0.00  0.00    +0.000 HD
ENDBRANCH  27  28
ENDBRANCH  20  22
ENDBRANCH  17  18
ENDBRANCH  16  17
ENDBRANCH   1  16
TORSDOF 10
ENDMDL
MODEL 9
REMARK VINA RESULT:      -6.8      1.956      4.923
REMARK  Name = 
REMARK  11 active torsions:
REMARK  status: ('A' for Active; 'I' for Inactive)
REMARK    1  A    between atoms: C_1  and  C_2
REMARK    2  A    between atoms: C_2  and  C_3
REMARK    3  A    between atoms: C_6  and  C_7
REMARK    4  A    between atoms: N_9  and  C_10
REMARK    5  A    between atoms: C_10  and  C_11
REMARK    6  A    between atoms: C_11  and  C_12
REMARK    7  A    between atoms: C_12  and  C_13
REMARK    8  A    between atoms: C_13  and  C_14
REMARK    9  A    between atoms: C_14  and  C_15
REMARK   10  A    between atoms: N_17  and  C_18
REMARK   11  A    between atoms: C_23  and  N_24
REMARK                            x       y       z     vdW  Elec       q    Type
REMARK                         _______ _______ _______ _____ _____    ______ ____
ROOT
ATOM      1  C   UNL     1       6.538   6.313  16.312  0.00  0.00    +0.000 C 
ENDROOT
BRANCH   1   2
ATOM      2  C   UNL     1       5.684   7.249  17.166  0.00  0.00    +0.000 C 
BRANCH   2   3
ATOM      3  C   UNL     1       4.200   7.084  16.869  0.00  0.00    +0.000 C 
BRANCH   3   6
ATOM      4  C   UNL     1       2.456   8.337  18.080  0.00  0.00    +0.000 C 
ATOM      5  O   UNL     1       2.213   9.033  17.098  0.00  0.00    +0.000 OA
ATOM      6  N   UNL     1       3.408   7.337  18.055  0.00  0.00    +0.000 N 
ATOM      7  H   UNL     1       3.677   6.856  18.898  0.00  0.00    +0.000 HD
BRANCH   4  11
ATOM      8  C   UNL     1       0.327   9.179  21.742  0.00  0.00    +0.000 A 
ATOM      9  C   UNL     1       0.247  10.033  20.637  0.00  0.00    +0.000 A 
ATOM     10  C   UNL     1       0.941   9.734  19.461  0.00  0.00    +0.000 A 
ATOM     11  C   UNL     1       1.722   8.572  19.362  0.00  0.00    +0.000 A 
ATOM     12  C   UNL     1       1.774   7.701  20.459  0.00  0.00    +0.000 A 
ATOM     13  C   UNL     1       1.082   8.005  21.636  0.00  0.00    +0.000 A 
BRANCH   8  15
ATOM     14  C   UNL     1      -1.050  10.880  22.974  0.00  0.00    +0.000 C 
ATOM     15  C   UNL     1      -0.398   9.509  23.021  0.00  0.00    +0.000 C 
ENDBRANCH   8  15
ENDBRANCH   4  11
ENDBRANCH   3   6
ENDBRANCH   2   3
ENDBRANCH   1   2
BRANCH   1  16
ATOM     16  C   UNL     1       5.923   4.918  16.191  0.00  0.00    +0.000 C 
BRANCH  16  17
ATOM     17  C   UNL     1       6.418   3.961  17.274  0.00  0.00    +0.000 C 
BRANCH  17  18
ATOM     18  C   UNL     1       5.535   3.992  18.493  0.00  0.00    +0.000 C 
ATOM     19  O   UNL     1       5.889   4.639  19.479  0.00  0.00    +0.000 OA
ATOM     20  N   UNL     1       4.379   3.239  18.375  0.00  0.00    +0.000 N 
ATOM     21  H   UNL     1       4.348   2.543  17.645  0.00  0.00    +0.000 HD
BRANCH  20  22
ATOM     22  C   UNL     1       3.304   3.222  19.299  0.00  0.00    +0.000 A 
ATOM     23  C   UNL     1       3.452   2.621  20.556  0.00  0.00    +0.000 A 
ATOM     24  C   UNL     1       2.392   2.553  21.453  0.00  0.00    +0.000 A 
ATOM     25  C   UNL     1       1.160   3.086  21.107  0.00  0.00    +0.000 A 
ATOM     26  C   UNL     1       1.000   3.707  19.868  0.00  0.00    +0.000 A 
ATOM     27  C   UNL     1       2.073   3.837  18.969  0.00  0.00    +0.000 A 
BRANCH  27  28
ATOM     28  N   UNL     1       1.806   4.373  17.691  0.00  0.00    +0.000 N 
ATOM     29  H   UNL     1       1.009   3.923  17.235  0.00  0.00    +0.000 HD
ATOM     30  H   UNL     1       1.709   5.380  17.667  0.00  0.00    +0.000 HD
ENDBRANCH  27  28
ENDBRANCH  20  22
ENDBRANCH  17  18
ENDBRANCH  16  17
ENDBRANCH   1  16
TORSDOF 10
ENDMDL
