MODEL 1
REMARK VINA RESULT:      -7.9      0.000      0.000
REMARK  Name = 
REMARK  6 active torsions:
REMARK  status: ('A' for Active; 'I' for Inactive)
REMARK    1  A    between atoms: C_2  and  O_3
REMARK    2  A    between atoms: C_2  and  C_4
REMARK    3  A    between atoms: N_8  and  C_9
REMARK    4  A    between atoms: C_9  and  C_10
REMARK    5  A    between atoms: C_10  and  C_11
REMARK    6  A    between atoms: N_22  and  C_23
REMARK                            x       y       z     vdW  Elec       q    Type
REMARK                         _______ _______ _______ _____ _____    ______ ____
ROOT
ATOM      1  C   UNL     1       2.256   3.095  19.036  0.00  0.00    +0.000 C 
ATOM      2  C   UNL     1       1.266   3.892  19.845  0.00  0.00    +0.000 C 
ATOM      3  C   UNL     1       1.611   5.345  20.096  0.00  0.00    +0.000 C 
ATOM      4  O   UNL     1       1.080   5.897  21.067  0.00  0.00    +0.000 OA
ATOM      5  N   UNL     1       2.456   6.018  19.209  0.00  0.00    +0.000 N 
ATOM      6  C   UNL     1       3.284   5.415  18.260  0.00  0.00    +0.000 C 
ATOM      7  N   UNL     1       4.413   5.968  17.953  0.00  0.00    +0.000 NA
ATOM      8  S   UNL     1       2.596   3.985  17.520  0.00  0.00    +0.000 S 
ENDROOT
BRANCH   7   9
ATOM      9  C   UNL     1       5.351   5.489  17.027  0.00  0.00    +0.000 A 
ATOM     10  C   UNL     1       5.081   5.695  15.670  0.00  0.00    +0.000 A 
ATOM     11  C   UNL     1       5.967   5.255  14.680  0.00  0.00    +0.000 A 
ATOM     12  C   UNL     1       7.133   4.586  15.037  0.00  0.00    +0.000 A 
ATOM     13  C   UNL     1       7.443   4.418  16.381  0.00  0.00    +0.000 A 
ATOM     14  C   UNL     1       6.582   4.920  17.360  0.00  0.00    +0.000 A 
ENDBRANCH   7   9
BRANCH   1  16
ATOM     15  O   UNL     1       3.577   2.595  21.013  0.00  0.00    +0.000 OA
ATOM     16  C   UNL     1       3.526   2.785  19.804  0.00  0.00    +0.000 C 
BRANCH  16  17
ATOM     17  O   UNL     1       4.641   2.738  19.032  0.00  0.00    +0.000 OA
ATOM     18  H   UNL     1       5.405   3.242  19.377  0.00  0.00    +0.000 HD
ENDBRANCH  16  17
ENDBRANCH   1  16
BRANCH   5  19
ATOM     19  C   UNL     1       2.576   7.480  19.375  0.00  0.00    +0.000 C 
BRANCH  19  20
ATOM     20  C   UNL     1       1.745   8.223  18.306  0.00  0.00    +0.000 C 
BRANCH  20  21
ATOM     21  C   UNL     1       1.060   9.545  18.740  0.00  0.00    +0.000 C 
ATOM     22  C   UNL     1      -0.320   9.809  18.085  0.00  0.00    +0.000 C 
ATOM     23  C   UNL     1      -0.918  11.140  18.614  0.00  0.00    +0.000 C 
ATOM     24  C   UNL     1      -1.078  11.112  20.147  0.00  0.00    +0.000 C 
ATOM     25  C   UNL     1       0.276  10.817  20.807  0.00  0.00    +0.000 C 
ATOM     26  C   UNL     1       1.272  11.933  20.455  0.00  0.00    +0.000 C 
ATOM     27  C   UNL     1       1.407  12.058  18.933  0.00  0.00    +0.000 C 
ATOM     28  C   UNL     1       0.036  12.294  18.272  0.00  0.00    +0.000 C 
ATOM     29  C   UNL     1       1.985  10.744  18.403  0.00  0.00    +0.000 C 
ATOM     30  C   UNL     1       0.797   9.475  20.272  0.00  0.00    +0.000 C 
ENDBRANCH  20  21
ENDBRANCH  19  20
ENDBRANCH   5  19
TORSDOF 6
ENDMDL
MODEL 2
REMARK VINA RESULT:      -7.7      0.236      1.513
REMARK  Name = 
REMARK  6 active torsions:
REMARK  status: ('A' for Active; 'I' for Inactive)
REMARK    1  A    between atoms: C_2  and  O_3
REMARK    2  A    between atoms: C_2  and  C_4
REMARK    3  A    between atoms: N_8  and  C_9
REMARK    4  A    between atoms: C_9  and  C_10
REMARK    5  A    between atoms: C_10  and  C_11
REMARK    6  A    between atoms: N_22  and  C_23
REMARK                            x       y       z     vdW  Elec       q    Type
REMARK                         _______ _______ _______ _____ _____    ______ ____
ROOT
ATOM      1  C   UNL     1       2.284   3.215  19.276  0.00  0.00    +0.000 C 
ATOM      2  C   UNL     1       1.293   4.040  20.055  0.00  0.00    +0.000 C 
ATOM      3  C   UNL     1       1.630   5.505  20.240  0.00  0.00    +0.000 C 
ATOM      4  O   UNL     1       1.101   6.095  21.189  0.00  0.00    +0.000 OA
ATOM      5  N   UNL     1       2.466   6.144  19.320  0.00  0.00    +0.000 N 
ATOM      6  C   UNL     1       3.292   5.505  18.393  0.00  0.00    +0.000 C 
ATOM      7  N   UNL     1       4.416   6.049  18.056  0.00  0.00    +0.000 NA
ATOM      8  S   UNL     1       2.610   4.040  17.721  0.00  0.00    +0.000 S 
ENDROOT
BRANCH   7   9
ATOM      9  C   UNL     1       5.352   5.536  17.147  0.00  0.00    +0.000 A 
ATOM     10  C   UNL     1       5.095   5.720  15.784  0.00  0.00    +0.000 A 
ATOM     11  C   UNL     1       5.981   5.245  14.809  0.00  0.00    +0.000 A 
ATOM     12  C   UNL     1       7.132   4.563  15.188  0.00  0.00    +0.000 A 
ATOM     13  C   UNL     1       7.430   4.418  16.537  0.00  0.00    +0.000 A 
ATOM     14  C   UNL     1       6.571   4.953  17.500  0.00  0.00    +0.000 A 
ENDBRANCH   7   9
BRANCH   1  16
ATOM     15  O   UNL     1       4.682   2.957  19.560  0.00  0.00    +0.000 OA
ATOM     16  C   UNL     1       3.559   2.946  20.049  0.00  0.00    +0.000 C 
BRANCH  16  17
ATOM     17  O   UNL     1       3.361   2.676  21.364  0.00  0.00    +0.000 OA
ATOM     18  H   UNL     1       4.161   2.741  21.925  0.00  0.00    +0.000 HD
ENDBRANCH  16  17
ENDBRANCH   1  16
BRANCH   5  19
ATOM     19  C   UNL     1       2.578   7.612  19.421  0.00  0.00    +0.000 C 
BRANCH  19  20
ATOM     20  C   UNL     1       1.592   8.305  18.455  0.00  0.00    +0.000 C 
BRANCH  20  21
ATOM     21  C   UNL     1       1.052   9.696  18.878  0.00  0.00    +0.000 C 
ATOM     22  C   UNL     1       1.934  10.895  18.447  0.00  0.00    +0.000 C 
ATOM     23  C   UNL     1       1.283  12.229  18.899  0.00  0.00    +0.000 C 
ATOM     24  C   UNL     1      -0.129  12.394  18.303  0.00  0.00    +0.000 C 
ATOM     25  C   UNL     1      -1.004  11.194  18.695  0.00  0.00    +0.000 C 
ATOM     26  C   UNL     1      -1.138  11.137  20.224  0.00  0.00    +0.000 C 
ATOM     27  C   UNL     1       0.248  11.054  20.873  0.00  0.00    +0.000 C 
ATOM     28  C   UNL     1       1.139  12.229  20.429  0.00  0.00    +0.000 C 
ATOM     29  C   UNL     1       0.901   9.747  20.421  0.00  0.00    +0.000 C 
ATOM     30  C   UNL     1      -0.326   9.911  18.190  0.00  0.00    +0.000 C 
ENDBRANCH  20  21
ENDBRANCH  19  20
ENDBRANCH   5  19
TORSDOF 6
ENDMDL
MODEL 3
REMARK VINA RESULT:      -7.7      0.163      1.640
REMARK  Name = 
REMARK  6 active torsions:
REMARK  status: ('A' for Active; 'I' for Inactive)
REMARK    1  A    between atoms: C_2  and  O_3
REMARK    2  A    between atoms: C_2  and  C_4
REMARK    3  A    between atoms: N_8  and  C_9
REMARK    4  A    between atoms: C_9  and  C_10
REMARK    5  A    between atoms: C_10  and  C_11
REMARK    6  A    between atoms: N_22  and  C_23
REMARK                            x       y       z     vdW  Elec       q    Type
REMARK                         _______ _______ _______ _____ _____    ______ ____
ROOT
ATOM      1  C   UNL     1       2.173   3.175  19.012  0.00  0.00    +0.000 C 
ATOM      2  C   UNL     1       1.206   3.969  19.850  0.00  0.00    +0.000 C 
ATOM      3  C   UNL     1       1.570   5.414  20.117  0.00  0.00    +0.000 C 
ATOM      4  O   UNL     1       1.061   5.956  21.105  0.00  0.00    +0.000 OA
ATOM      5  N   UNL     1       2.405   6.093  19.225  0.00  0.00    +0.000 N 
ATOM      6  C   UNL     1       3.209   5.496  18.252  0.00  0.00    +0.000 C 
ATOM      7  N   UNL     1       4.338   6.042  17.933  0.00  0.00    +0.000 NA
ATOM      8  S   UNL     1       2.495   4.084  17.504  0.00  0.00    +0.000 S 
ENDROOT
BRANCH   7   9
ATOM      9  C   UNL     1       5.255   5.568  16.983  0.00  0.00    +0.000 A 
ATOM     10  C   UNL     1       6.444   5.006  17.458  0.00  0.00    +0.000 A 
ATOM     11  C   UNL     1       7.410   4.503  16.579  0.00  0.00    +0.000 A 
ATOM     12  C   UNL     1       7.203   4.572  15.205  0.00  0.00    +0.000 A 
ATOM     13  C   UNL     1       6.006   5.079  14.717  0.00  0.00    +0.000 A 
ATOM     14  C   UNL     1       5.023   5.517  15.607  0.00  0.00    +0.000 A 
ENDBRANCH   7   9
BRANCH   1  16
ATOM     15  O   UNL     1       3.530   2.669  20.962  0.00  0.00    +0.000 OA
ATOM     16  C   UNL     1       3.453   2.841  19.752  0.00  0.00    +0.000 C 
BRANCH  16  17
ATOM     17  O   UNL     1       4.546   2.749  18.952  0.00  0.00    +0.000 OA
ATOM     18  H   UNL     1       4.748   3.555  18.435  0.00  0.00    +0.000 HD
ENDBRANCH  16  17
ENDBRANCH   1  16
BRANCH   5  19
ATOM     19  C   UNL     1       2.542   7.551  19.410  0.00  0.00    +0.000 C 
BRANCH  19  20
ATOM     20  C   UNL     1       1.666   8.317  18.395  0.00  0.00    +0.000 C 
BRANCH  20  21
ATOM     21  C   UNL     1       1.111   9.694  18.843  0.00  0.00    +0.000 C 
ATOM     22  C   UNL     1       1.972  10.912  18.420  0.00  0.00    +0.000 C 
ATOM     23  C   UNL     1       1.306  12.230  18.897  0.00  0.00    +0.000 C 
ATOM     24  C   UNL     1      -0.114  12.383  18.317  0.00  0.00    +0.000 C 
ATOM     25  C   UNL     1      -0.968  11.165  18.700  0.00  0.00    +0.000 C 
ATOM     26  C   UNL     1      -1.087  11.085  20.230  0.00  0.00    +0.000 C 
ATOM     27  C   UNL     1       0.306  11.012  20.864  0.00  0.00    +0.000 C 
ATOM     28  C   UNL     1       1.177  12.206  20.428  0.00  0.00    +0.000 C 
ATOM     29  C   UNL     1       0.974   9.721  20.388  0.00  0.00    +0.000 C 
ATOM     30  C   UNL     1      -0.277   9.900  18.171  0.00  0.00    +0.000 C 
ENDBRANCH  20  21
ENDBRANCH  19  20
ENDBRANCH   5  19
TORSDOF 6
ENDMDL
MODEL 4
REMARK VINA RESULT:      -7.6      0.186      1.448
REMARK  Name = 
REMARK  6 active torsions:
REMARK  status: ('A' for Active; 'I' for Inactive)
REMARK    1  A    between atoms: C_2  and  O_3
REMARK    2  A    between atoms: C_2  and  C_4
REMARK    3  A    between atoms: N_8  and  C_9
REMARK    4  A    between atoms: C_9  and  C_10
REMARK    5  A    between atoms: C_10  and  C_11
REMARK    6  A    between atoms: N_22  and  C_23
REMARK                            x       y       z     vdW  Elec       q    Type
REMARK                         _______ _______ _______ _____ _____    ______ ____
ROOT
ATOM      1  C   UNL     1       2.127   3.116  18.938  0.00  0.00    +0.000 C 
ATOM      2  C   UNL     1       1.159   3.922  19.764  0.00  0.00    +0.000 C 
ATOM      3  C   UNL     1       1.548   5.356  20.054  0.00  0.00    +0.000 C 
ATOM      4  O   UNL     1       1.031   5.899  21.037  0.00  0.00    +0.000 OA
ATOM      5  N   UNL     1       2.418   6.026  19.188  0.00  0.00    +0.000 N 
ATOM      6  C   UNL     1       3.230   5.422  18.226  0.00  0.00    +0.000 C 
ATOM      7  N   UNL     1       4.377   5.946  17.938  0.00  0.00    +0.000 NA
ATOM      8  S   UNL     1       2.501   4.034  17.447  0.00  0.00    +0.000 S 
ENDROOT
BRANCH   7   9
ATOM      9  C   UNL     1       5.303   5.463  17.003  0.00  0.00    +0.000 A 
ATOM     10  C   UNL     1       5.084   5.774  15.656  0.00  0.00    +0.000 A 
ATOM     11  C   UNL     1       5.964   5.336  14.659  0.00  0.00    +0.000 A 
ATOM     12  C   UNL     1       7.070   4.565  14.997  0.00  0.00    +0.000 A 
ATOM     13  C   UNL     1       7.332   4.290  16.332  0.00  0.00    +0.000 A 
ATOM     14  C   UNL     1       6.483   4.787  17.324  0.00  0.00    +0.000 A 
ENDBRANCH   7   9
BRANCH   1  16
ATOM     15  O   UNL     1       3.473   2.728  20.923  0.00  0.00    +0.000 OA
ATOM     16  C   UNL     1       3.383   2.746  19.702  0.00  0.00    +0.000 C 
BRANCH  16  17
ATOM     17  O   UNL     1       4.439   2.433  18.909  0.00  0.00    +0.000 OA
ATOM     18  H   UNL     1       4.513   2.962  18.090  0.00  0.00    +0.000 HD
ENDBRANCH  16  17
ENDBRANCH   1  16
BRANCH   5  19
ATOM     19  C   UNL     1       2.582   7.478  19.392  0.00  0.00    +0.000 C 
BRANCH  19  20
ATOM     20  C   UNL     1       1.673   8.274  18.430  0.00  0.00    +0.000 C 
BRANCH  20  21
ATOM     21  C   UNL     1       1.052   9.587  18.973  0.00  0.00    +0.000 C 
ATOM     22  C   UNL     1       0.965   9.676  20.518  0.00  0.00    +0.000 C 
ATOM     23  C   UNL     1       0.356  11.039  20.943  0.00  0.00    +0.000 C 
ATOM     24  C   UNL     1       1.195  12.218  20.411  0.00  0.00    +0.000 C 
ATOM     25  C   UNL     1       1.318  12.122  18.883  0.00  0.00    +0.000 C 
ATOM     26  C   UNL     1      -0.080  12.211  18.251  0.00  0.00    +0.000 C 
ATOM     27  C   UNL     1      -0.983  11.105  18.809  0.00  0.00    +0.000 C 
ATOM     28  C   UNL     1      -1.053  11.171  20.346  0.00  0.00    +0.000 C 
ATOM     29  C   UNL     1      -0.381   9.758  18.405  0.00  0.00    +0.000 C 
ATOM     30  C   UNL     1       1.958  10.772  18.529  0.00  0.00    +0.000 C 
ENDBRANCH  20  21
ENDBRANCH  19  20
ENDBRANCH   5  19
TORSDOF 6
ENDMDL
MODEL 5
REMARK VINA RESULT:      -7.1      3.645      8.272
REMARK  Name = 
REMARK  6 active torsions:
REMARK  status: ('A' for Active; 'I' for Inactive)
REMARK    1  A    between atoms: C_2  and  O_3
REMARK    2  A    between atoms: C_2  and  C_4
REMARK    3  A    between atoms: N_8  and  C_9
REMARK    4  A    between atoms: C_9  and  C_10
REMARK    5  A    between atoms: C_10  and  C_11
REMARK    6  A    between atoms: N_22  and  C_23
REMARK                            x       y       z     vdW  Elec       q    Type
REMARK                         _______ _______ _______ _____ _____    ______ ____
ROOT
ATOM      1  C   UNL     1       0.152  12.531  20.610  0.00  0.00    +0.000 C 
ATOM      2  C   UNL     1       1.176  11.784  21.424  0.00  0.00    +0.000 C 
ATOM      3  C   UNL     1       1.094  10.272  21.390  0.00  0.00    +0.000 C 
ATOM      4  O   UNL     1       1.604   9.653  22.332  0.00  0.00    +0.000 OA
ATOM      5  N   UNL     1       0.509   9.635  20.292  0.00  0.00    +0.000 N 
ATOM      6  C   UNL     1      -0.301  10.249  19.335  0.00  0.00    +0.000 C 
ATOM      7  N   UNL     1      -1.256   9.575  18.779  0.00  0.00    +0.000 NA
ATOM      8  S   UNL     1       0.176  11.886  18.940  0.00  0.00    +0.000 S 
ENDROOT
BRANCH   7   9
ATOM      9  C   UNL     1      -2.152  10.045  17.808  0.00  0.00    +0.000 A 
ATOM     10  C   UNL     1      -1.924   9.667  16.481  0.00  0.00    +0.000 A 
ATOM     11  C   UNL     1      -2.773  10.087  15.451  0.00  0.00    +0.000 A 
ATOM     12  C   UNL     1      -3.860  10.907  15.736  0.00  0.00    +0.000 A 
ATOM     13  C   UNL     1      -4.133  11.249  17.054  0.00  0.00    +0.000 A 
ATOM     14  C   UNL     1      -3.315  10.770  18.080  0.00  0.00    +0.000 A 
ENDBRANCH   7   9
BRANCH   1  16
ATOM     15  O   UNL     1      -1.496  11.982  22.308  0.00  0.00    +0.000 OA
ATOM     16  C   UNL     1      -1.236  12.473  21.217  0.00  0.00    +0.000 C 
BRANCH  16  17
ATOM     17  O   UNL     1      -2.203  13.017  20.436  0.00  0.00    +0.000 OA
ATOM     18  H   UNL     1      -3.040  12.510  20.401  0.00  0.00    +0.000 HD
ENDBRANCH  16  17
ENDBRANCH   1  16
BRANCH   5  19
ATOM     19  C   UNL     1       0.659   8.170  20.207  0.00  0.00    +0.000 C 
BRANCH  19  20
ATOM     20  C   UNL     1       2.033   7.793  19.610  0.00  0.00    +0.000 C 
BRANCH  20  21
ATOM     21  C   UNL     1       2.318   6.283  19.401  0.00  0.00    +0.000 C 
ATOM     22  C   UNL     1       3.803   5.872  19.570  0.00  0.00    +0.000 C 
ATOM     23  C   UNL     1       3.962   4.341  19.366  0.00  0.00    +0.000 C 
ATOM     24  C   UNL     1       3.096   3.550  20.365  0.00  0.00    +0.000 C 
ATOM     25  C   UNL     1       1.626   3.973  20.231  0.00  0.00    +0.000 C 
ATOM     26  C   UNL     1       1.129   3.651  18.813  0.00  0.00    +0.000 C 
ATOM     27  C   UNL     1       2.009   4.352  17.773  0.00  0.00    +0.000 C 
ATOM     28  C   UNL     1       3.490   3.969  17.952  0.00  0.00    +0.000 C 
ATOM     29  C   UNL     1       1.868   5.862  17.977  0.00  0.00    +0.000 C 
ATOM     30  C   UNL     1       1.530   5.485  20.479  0.00  0.00    +0.000 C 
ENDBRANCH  20  21
ENDBRANCH  19  20
ENDBRANCH   5  19
TORSDOF 6
ENDMDL
MODEL 6
REMARK VINA RESULT:      -7.0      0.724      1.858
REMARK  Name = 
REMARK  6 active torsions:
REMARK  status: ('A' for Active; 'I' for Inactive)
REMARK    1  A    between atoms: C_2  and  O_3
REMARK    2  A    between atoms: C_2  and  C_4
REMARK    3  A    between atoms: N_8  and  C_9
REMARK    4  A    between atoms: C_9  and  C_10
REMARK    5  A    between atoms: C_10  and  C_11
REMARK    6  A    between atoms: N_22  and  C_23
REMARK                            x       y       z     vdW  Elec       q    Type
REMARK                         _______ _______ _______ _____ _____    ______ ____
ROOT
ATOM      1  C   UNL     1       1.725   3.430  19.249  0.00  0.00    +0.000 C 
ATOM      2  C   UNL     1       0.945   4.366  20.136  0.00  0.00    +0.000 C 
ATOM      3  C   UNL     1       1.473   5.780  20.258  0.00  0.00    +0.000 C 
ATOM      4  O   UNL     1       1.143   6.427  21.258  0.00  0.00    +0.000 OA
ATOM      5  N   UNL     1       2.254   6.317  19.230  0.00  0.00    +0.000 N 
ATOM      6  C   UNL     1       2.874   5.587  18.214  0.00  0.00    +0.000 C 
ATOM      7  N   UNL     1       4.001   5.996  17.730  0.00  0.00    +0.000 NA
ATOM      8  S   UNL     1       1.943   4.214  17.654  0.00  0.00    +0.000 S 
ENDROOT
BRANCH   7   9
ATOM      9  C   UNL     1       4.747   5.377  16.715  0.00  0.00    +0.000 A 
ATOM     10  C   UNL     1       5.077   4.029  16.888  0.00  0.00    +0.000 A 
ATOM     11  C   UNL     1       5.814   3.334  15.921  0.00  0.00    +0.000 A 
ATOM     12  C   UNL     1       6.243   3.987  14.771  0.00  0.00    +0.000 A 
ATOM     13  C   UNL     1       5.879   5.310  14.558  0.00  0.00    +0.000 A 
ATOM     14  C   UNL     1       5.089   5.974  15.500  0.00  0.00    +0.000 A 
ENDBRANCH   7   9
BRANCH   1  16
ATOM     15  O   UNL     1       3.986   2.543  19.223  0.00  0.00    +0.000 OA
ATOM     16  C   UNL     1       3.049   3.011  19.857  0.00  0.00    +0.000 C 
BRANCH  16  17
ATOM     17  O   UNL     1       3.121   3.192  21.200  0.00  0.00    +0.000 OA
ATOM     18  H   UNL     1       3.865   2.733  21.639  0.00  0.00    +0.000 HD
ENDBRANCH  16  17
ENDBRANCH   1  16
BRANCH   5  19
ATOM     19  C   UNL     1       2.549   7.762  19.296  0.00  0.00    +0.000 C 
BRANCH  19  20
ATOM     20  C   UNL     1       1.574   8.562  18.405  0.00  0.00    +0.000 C 
BRANCH  20  21
ATOM     21  C   UNL     1       0.960   9.850  19.013  0.00  0.00    +0.000 C 
ATOM     22  C   UNL     1       0.907   9.877  20.562  0.00  0.00    +0.000 C 
ATOM     23  C   UNL     1       0.302  11.219  21.053  0.00  0.00    +0.000 C 
ATOM     24  C   UNL     1       1.123  12.422  20.550  0.00  0.00    +0.000 C 
ATOM     25  C   UNL     1       1.213  12.388  19.017  0.00  0.00    +0.000 C 
ATOM     26  C   UNL     1      -0.199  12.494  18.420  0.00  0.00    +0.000 C 
ATOM     27  C   UNL     1      -1.084  11.363  18.954  0.00  0.00    +0.000 C 
ATOM     28  C   UNL     1      -1.121  11.367  20.493  0.00  0.00    +0.000 C 
ATOM     29  C   UNL     1      -0.486  10.035  18.483  0.00  0.00    +0.000 C 
ATOM     30  C   UNL     1       1.851  11.055  18.596  0.00  0.00    +0.000 C 
ENDBRANCH  20  21
ENDBRANCH  19  20
ENDBRANCH   5  19
TORSDOF 6
ENDMDL
MODEL 7
REMARK VINA RESULT:      -7.0      3.696      8.320
REMARK  Name = 
REMARK  6 active torsions:
REMARK  status: ('A' for Active; 'I' for Inactive)
REMARK    1  A    between atoms: C_2  and  O_3
REMARK    2  A    between atoms: C_2  and  C_4
REMARK    3  A    between atoms: N_8  and  C_9
REMARK    4  A    between atoms: C_9  and  C_10
REMARK    5  A    between atoms: C_10  and  C_11
REMARK    6  A    between atoms: N_22  and  C_23
REMARK                            x       y       z     vdW  Elec       q    Type
REMARK                         _______ _______ _______ _____ _____    ______ ____
ROOT
ATOM      1  C   UNL     1       0.067  12.817  20.259  0.00  0.00    +0.000 C 
ATOM      2  C   UNL     1       1.090  12.141  21.135  0.00  0.00    +0.000 C 
ATOM      3  C   UNL     1       1.006  10.632  21.231  0.00  0.00    +0.000 C 
ATOM      4  O   UNL     1       1.515  10.096  22.222  0.00  0.00    +0.000 OA
ATOM      5  N   UNL     1       0.421   9.904  20.191  0.00  0.00    +0.000 N 
ATOM      6  C   UNL     1      -0.389  10.434  19.184  0.00  0.00    +0.000 C 
ATOM      7  N   UNL     1      -1.344   9.717  18.688  0.00  0.00    +0.000 NA
ATOM      8  S   UNL     1       0.091  12.031  18.650  0.00  0.00    +0.000 S 
ENDROOT
BRANCH   7   9
ATOM      9  C   UNL     1      -2.239  10.103  17.680  0.00  0.00    +0.000 A 
ATOM     10  C   UNL     1      -1.962   9.683  16.374  0.00  0.00    +0.000 A 
ATOM     11  C   UNL     1      -2.807  10.019  15.310  0.00  0.00    +0.000 A 
ATOM     12  C   UNL     1      -3.938  10.795  15.538  0.00  0.00    +0.000 A 
ATOM     13  C   UNL     1      -4.258  11.177  16.835  0.00  0.00    +0.000 A 
ATOM     14  C   UNL     1      -3.441  10.780  17.897  0.00  0.00    +0.000 A 
ENDBRANCH   7   9
BRANCH   1  16
ATOM     15  O   UNL     1      -1.585  12.402  21.990  0.00  0.00    +0.000 OA
ATOM     16  C   UNL     1      -1.321  12.813  20.867  0.00  0.00    +0.000 C 
BRANCH  16  17
ATOM     17  O   UNL     1      -2.284  13.308  20.049  0.00  0.00    +0.000 OA
ATOM     18  H   UNL     1      -1.962  13.914  19.351  0.00  0.00    +0.000 HD
ENDBRANCH  16  17
ENDBRANCH   1  16
BRANCH   5  19
ATOM     19  C   UNL     1       0.569   8.437  20.232  0.00  0.00    +0.000 C 
BRANCH  19  20
ATOM     20  C   UNL     1       1.945   8.008  19.678  0.00  0.00    +0.000 C 
BRANCH  20  21
ATOM     21  C   UNL     1       2.179   6.489  19.473  0.00  0.00    +0.000 C 
ATOM     22  C   UNL     1       1.499   5.577  20.526  0.00  0.00    +0.000 C 
ATOM     23  C   UNL     1       1.779   4.085  20.204  0.00  0.00    +0.000 C 
ATOM     24  C   UNL     1       1.269   3.710  18.799  0.00  0.00    +0.000 C 
ATOM     25  C   UNL     1       1.910   4.629  17.748  0.00  0.00    +0.000 C 
ATOM     26  C   UNL     1       3.435   4.440  17.766  0.00  0.00    +0.000 C 
ATOM     27  C   UNL     1       3.986   4.724  19.168  0.00  0.00    +0.000 C 
ATOM     28  C   UNL     1       3.296   3.840  20.224  0.00  0.00    +0.000 C 
ATOM     29  C   UNL     1       3.702   6.190  19.498  0.00  0.00    +0.000 C 
ATOM     30  C   UNL     1       1.568   6.084  18.101  0.00  0.00    +0.000 C 
ENDBRANCH  20  21
ENDBRANCH  19  20
ENDBRANCH   5  19
TORSDOF 6
ENDMDL
MODEL 8
REMARK VINA RESULT:      -7.0      3.740      8.311
REMARK  Name = 
REMARK  6 active torsions:
REMARK  status: ('A' for Active; 'I' for Inactive)
REMARK    1  A    between atoms: C_2  and  O_3
REMARK    2  A    between atoms: C_2  and  C_4
REMARK    3  A    between atoms: N_8  and  C_9
REMARK    4  A    between atoms: C_9  and  C_10
REMARK    5  A    between atoms: C_10  and  C_11
REMARK    6  A    between atoms: N_22  and  C_23
REMARK                            x       y       z     vdW  Elec       q    Type
REMARK                         _______ _______ _______ _____ _____    ______ ____
ROOT
ATOM      1  C   UNL     1       0.003  12.821  20.345  0.00  0.00    +0.000 C 
ATOM      2  C   UNL     1       1.029  12.153  21.223  0.00  0.00    +0.000 C 
ATOM      3  C   UNL     1       0.974  10.641  21.298  0.00  0.00    +0.000 C 
ATOM      4  O   UNL     1       1.483  10.101  22.287  0.00  0.00    +0.000 OA
ATOM      5  N   UNL     1       0.413   9.916  20.242  0.00  0.00    +0.000 N 
ATOM      6  C   UNL     1      -0.396  10.444  19.234  0.00  0.00    +0.000 C 
ATOM      7  N   UNL     1      -1.332   9.715  18.719  0.00  0.00    +0.000 NA
ATOM      8  S   UNL     1       0.058  12.057  18.727  0.00  0.00    +0.000 S 
ENDROOT
BRANCH   7   9
ATOM      9  C   UNL     1      -2.225  10.097  17.707  0.00  0.00    +0.000 A 
ATOM     10  C   UNL     1      -1.944   9.672  16.404  0.00  0.00    +0.000 A 
ATOM     11  C   UNL     1      -2.787  10.004  15.336  0.00  0.00    +0.000 A 
ATOM     12  C   UNL     1      -3.918  10.782  15.558  0.00  0.00    +0.000 A 
ATOM     13  C   UNL     1      -4.240  11.169  16.852  0.00  0.00    +0.000 A 
ATOM     14  C   UNL     1      -3.427  10.777  17.918  0.00  0.00    +0.000 A 
ENDBRANCH   7   9
BRANCH   1  16
ATOM     15  O   UNL     1      -1.659  12.344  22.051  0.00  0.00    +0.000 OA
ATOM     16  C   UNL     1      -1.391  12.782  20.940  0.00  0.00    +0.000 C 
BRANCH  16  17
ATOM     17  O   UNL     1      -2.354  13.276  20.122  0.00  0.00    +0.000 OA
ATOM     18  H   UNL     1      -2.230  14.209  19.854  0.00  0.00    +0.000 HD
ENDBRANCH  16  17
ENDBRANCH   1  16
BRANCH   5  19
ATOM     19  C   UNL     1       0.589   8.451  20.265  0.00  0.00    +0.000 C 
BRANCH  19  20
ATOM     20  C   UNL     1       1.914   8.047  19.581  0.00  0.00    +0.000 C 
BRANCH  20  21
ATOM     21  C   UNL     1       2.149   6.533  19.342  0.00  0.00    +0.000 C 
ATOM     22  C   UNL     1       1.731   6.023  17.939  0.00  0.00    +0.000 C 
ATOM     23  C   UNL     1       2.038   4.507  17.806  0.00  0.00    +0.000 C 
ATOM     24  C   UNL     1       3.534   4.217  18.030  0.00  0.00    +0.000 C 
ATOM     25  C   UNL     1       3.969   4.748  19.404  0.00  0.00    +0.000 C 
ATOM     26  C   UNL     1       3.176   4.027  20.505  0.00  0.00    +0.000 C 
ATOM     27  C   UNL     1       1.672   4.218  20.283  0.00  0.00    +0.000 C 
ATOM     28  C   UNL     1       1.254   3.738  18.881  0.00  0.00    +0.000 C 
ATOM     29  C   UNL     1       1.365   5.712  20.399  0.00  0.00    +0.000 C 
ATOM     30  C   UNL     1       3.675   6.254  19.459  0.00  0.00    +0.000 C 
ENDBRANCH  20  21
ENDBRANCH  19  20
ENDBRANCH   5  19
TORSDOF 6
ENDMDL
MODEL 9
REMARK VINA RESULT:      -6.8      1.849      4.127
REMARK  Name = 
REMARK  6 active torsions:
REMARK  status: ('A' for Active; 'I' for Inactive)
REMARK    1  A    between atoms: C_2  and  O_3
REMARK    2  A    between atoms: C_2  and  C_4
REMARK    3  A    between atoms: N_8  and  C_9
REMARK    4  A    between atoms: C_9  and  C_10
REMARK    5  A    between atoms: C_10  and  C_11
REMARK    6  A    between atoms: N_22  and  C_23
REMARK                            x       y       z     vdW  Elec       q    Type
REMARK                         _______ _______ _______ _____ _____    ______ ____
ROOT
ATOM      1  C   UNL     1       5.898   4.864  17.549  0.00  0.00    +0.000 C 
ATOM      2  C   UNL     1       6.034   6.100  16.699  0.00  0.00    +0.000 C 
ATOM      3  C   UNL     1       4.770   6.899  16.460  0.00  0.00    +0.000 C 
ATOM      4  O   UNL     1       4.740   7.636  15.468  0.00  0.00    +0.000 OA
ATOM      5  N   UNL     1       3.720   6.823  17.380  0.00  0.00    +0.000 N 
ATOM      6  C   UNL     1       3.571   5.843  18.364  0.00  0.00    +0.000 C 
ATOM      7  N   UNL     1       2.384   5.466  18.716  0.00  0.00    +0.000 NA
ATOM      8  S   UNL     1       5.079   5.313  19.077  0.00  0.00    +0.000 S 
ENDROOT
BRANCH   7   9
ATOM      9  C   UNL     1       2.069   4.498  19.680  0.00  0.00    +0.000 A 
ATOM     10  C   UNL     1       1.412   3.343  19.244  0.00  0.00    +0.000 A 
ATOM     11  C   UNL     1       1.066   2.324  20.140  0.00  0.00    +0.000 A 
ATOM     12  C   UNL     1       1.361   2.457  21.493  0.00  0.00    +0.000 A 
ATOM     13  C   UNL     1       2.059   3.574  21.935  0.00  0.00    +0.000 A 
ATOM     14  C   UNL     1       2.456   4.552  21.021  0.00  0.00    +0.000 A 
ENDBRANCH   7   9
BRANCH   1  16
ATOM     15  O   UNL     1       5.071   3.644  15.619  0.00  0.00    +0.000 OA
ATOM     16  C   UNL     1       5.179   3.737  16.835  0.00  0.00    +0.000 C 
BRANCH  16  17
ATOM     17  O   UNL     1       4.640   2.811  17.667  0.00  0.00    +0.000 OA
ATOM     18  H   UNL     1       3.680   2.661  17.553  0.00  0.00    +0.000 HD
ENDBRANCH  16  17
ENDBRANCH   1  16
BRANCH   5  19
ATOM     19  C   UNL     1       2.614   7.787  17.218  0.00  0.00    +0.000 C 
BRANCH  19  20
ATOM     20  C   UNL     1       2.824   9.021  18.122  0.00  0.00    +0.000 C 
BRANCH  20  21
ATOM     21  C   UNL     1       1.555   9.793  18.567  0.00  0.00    +0.000 C 
ATOM     22  C   UNL     1       0.290   9.509  17.718  0.00  0.00    +0.000 C 
ATOM     23  C   UNL     1      -0.918  10.311  18.271  0.00  0.00    +0.000 C 
ATOM     24  C   UNL     1      -1.201   9.954  19.743  0.00  0.00    +0.000 C 
ATOM     25  C   UNL     1       0.056  10.199  20.590  0.00  0.00    +0.000 C 
ATOM     26  C   UNL     1       0.434  11.687  20.527  0.00  0.00    +0.000 C 
ATOM     27  C   UNL     1       0.648  12.115  19.072  0.00  0.00    +0.000 C 
ATOM     28  C   UNL     1      -0.595  11.813  18.216  0.00  0.00    +0.000 C 
ATOM     29  C   UNL     1       1.830  11.319  18.515  0.00  0.00    +0.000 C 
ATOM     30  C   UNL     1       1.202   9.352  20.016  0.00  0.00    +0.000 C 
ENDBRANCH  20  21
ENDBRANCH  19  20
ENDBRANCH   5  19
TORSDOF 6
ENDMDL
