MODEL 1
REMARK VINA RESULT:      -7.7      0.000      0.000
REMARK  Name = 
REMARK  5 active torsions:
REMARK  status: ('A' for Active; 'I' for Inactive)
REMARK    1  A    between atoms: C_1  and  C_2
REMARK    2  A    between atoms: N_4  and  C_5
REMARK    3  A    between atoms: C_9  and  C_10
REMARK    4  A    between atoms: C_10  and  C_12
REMARK    5  A    between atoms: C_12  and  C_14
REMARK                            x       y       z     vdW  Elec       q    Type
REMARK                         _______ _______ _______ _____ _____    ______ ____
ROOT
ATOM      1  C   UNL     1       3.437   5.360  19.408  0.00  0.00    +0.000 A 
ATOM      2  C   UNL     1       2.673   6.154  18.551  0.00  0.00    +0.000 A 
ATOM      3  C   UNL     1       3.281   6.913  17.550  0.00  0.00    +0.000 A 
ATOM      4  C   UNL     1       4.663   6.872  17.388  0.00  0.00    +0.000 A 
ATOM      5  C   UNL     1       5.449   6.097  18.249  0.00  0.00    +0.000 A 
ATOM      6  C   UNL     1       4.835   5.362  19.276  0.00  0.00    +0.000 A 
ENDROOT
BRANCH   1  10
ATOM      7  C   UNL     1       1.645   2.742  21.461  0.00  0.00    +0.000 C 
ATOM      8  C   UNL     1       2.168   3.354  20.185  0.00  0.00    +0.000 C 
ATOM      9  O   UNL     1       1.967   2.808  19.106  0.00  0.00    +0.000 OA
ATOM     10  N   UNL     1       2.866   4.533  20.403  0.00  0.00    +0.000 N 
ATOM     11  H   UNL     1       3.091   4.758  21.365  0.00  0.00    +0.000 HD
ENDBRANCH   1  10
BRANCH   5  12
ATOM     12  C   UNL     1       6.905   6.017  17.961  0.00  0.00    +0.000 C 
ATOM     13  O   UNL     1       7.652   6.932  18.292  0.00  0.00    +0.000 OA
BRANCH  12  14
ATOM     14  C   UNL     1       7.483   4.835  17.222  0.00  0.00    +0.000 C 
ATOM     15  O   UNL     1       8.283   4.098  17.794  0.00  0.00    +0.000 OA
BRANCH  14  16
ATOM     16  C   UNL     1       7.042   4.586  15.826  0.00  0.00    +0.000 A 
ATOM     17  C   UNL     1       5.959   3.744  15.593  0.00  0.00    +0.000 A 
ATOM     18  C   UNL     1       5.542   3.547  14.280  0.00  0.00    +0.000 A 
ATOM     19  C   UNL     1       6.210   4.200  13.249  0.00  0.00    +0.000 A 
ATOM     20  C   UNL     1       7.285   5.012  13.574  0.00  0.00    +0.000 A 
ATOM     21  N   UNL     1       7.729   5.203  14.835  0.00  0.00    +0.000 NA
ENDBRANCH  14  16
ENDBRANCH  12  14
ENDBRANCH   5  12
TORSDOF 4
ENDMDL
MODEL 2
REMARK VINA RESULT:      -7.6      0.838      1.131
REMARK  Name = 
REMARK  5 active torsions:
REMARK  status: ('A' for Active; 'I' for Inactive)
REMARK    1  A    between atoms: C_1  and  C_2
REMARK    2  A    between atoms: N_4  and  C_5
REMARK    3  A    between atoms: C_9  and  C_10
REMARK    4  A    between atoms: C_10  and  C_12
REMARK    5  A    between atoms: C_12  and  C_14
REMARK                            x       y       z     vdW  Elec       q    Type
REMARK                         _______ _______ _______ _____ _____    ______ ____
ROOT
ATOM      1  C   UNL     1       3.015   5.378  19.483  0.00  0.00    +0.000 A 
ATOM      2  C   UNL     1       2.461   6.479  18.827  0.00  0.00    +0.000 A 
ATOM      3  C   UNL     1       3.193   7.184  17.871  0.00  0.00    +0.000 A 
ATOM      4  C   UNL     1       4.487   6.783  17.551  0.00  0.00    +0.000 A 
ATOM      5  C   UNL     1       5.069   5.694  18.211  0.00  0.00    +0.000 A 
ATOM      6  C   UNL     1       4.340   5.009  19.197  0.00  0.00    +0.000 A 
ENDROOT
BRANCH   1  10
ATOM      7  C   UNL     1       1.429   2.697  21.621  0.00  0.00    +0.000 C 
ATOM      8  C   UNL     1       2.362   3.221  20.558  0.00  0.00    +0.000 C 
ATOM      9  O   UNL     1       3.078   2.452  19.925  0.00  0.00    +0.000 OA
ATOM     10  N   UNL     1       2.298   4.600  20.420  0.00  0.00    +0.000 N 
ATOM     11  H   UNL     1       1.786   5.106  21.133  0.00  0.00    +0.000 HD
ENDBRANCH   1  10
BRANCH   5  12
ATOM     12  C   UNL     1       6.414   5.256  17.754  0.00  0.00    +0.000 C 
ATOM     13  O   UNL     1       7.037   4.411  18.387  0.00  0.00    +0.000 OA
BRANCH  12  14
ATOM     14  C   UNL     1       7.053   5.870  16.532  0.00  0.00    +0.000 C 
ATOM     15  O   UNL     1       7.705   6.905  16.648  0.00  0.00    +0.000 OA
BRANCH  14  16
ATOM     16  C   UNL     1       6.893   5.182  15.225  0.00  0.00    +0.000 A 
ATOM     17  C   UNL     1       5.865   4.259  15.063  0.00  0.00    +0.000 A 
ATOM     18  C   UNL     1       5.713   3.647  13.822  0.00  0.00    +0.000 A 
ATOM     19  C   UNL     1       6.580   3.982  12.788  0.00  0.00    +0.000 A 
ATOM     20  C   UNL     1       7.582   4.905  13.044  0.00  0.00    +0.000 A 
ATOM     21  N   UNL     1       7.771   5.497  14.244  0.00  0.00    +0.000 NA
ENDBRANCH  14  16
ENDBRANCH  12  14
ENDBRANCH   5  12
TORSDOF 4
ENDMDL
MODEL 3
REMARK VINA RESULT:      -7.5      2.100      6.024
REMARK  Name = 
REMARK  5 active torsions:
REMARK  status: ('A' for Active; 'I' for Inactive)
REMARK    1  A    between atoms: C_1  and  C_2
REMARK    2  A    between atoms: N_4  and  C_5
REMARK    3  A    between atoms: C_9  and  C_10
REMARK    4  A    between atoms: C_10  and  C_12
REMARK    5  A    between atoms: C_12  and  C_14
REMARK                            x       y       z     vdW  Elec       q    Type
REMARK                         _______ _______ _______ _____ _____    ______ ____
ROOT
ATOM      1  C   UNL     1       6.072   4.606  15.904  0.00  0.00    +0.000 A 
ATOM      2  C   UNL     1       7.126   4.472  16.810  0.00  0.00    +0.000 A 
ATOM      3  C   UNL     1       7.082   5.101  18.055  0.00  0.00    +0.000 A 
ATOM      4  C   UNL     1       5.971   5.860  18.412  0.00  0.00    +0.000 A 
ATOM      5  C   UNL     1       4.912   6.022  17.511  0.00  0.00    +0.000 A 
ATOM      6  C   UNL     1       4.977   5.416  16.246  0.00  0.00    +0.000 A 
ENDROOT
BRANCH   1  10
ATOM      7  C   UNL     1       6.427   3.454  12.323  0.00  0.00    +0.000 C 
ATOM      8  C   UNL     1       6.708   4.351  13.503  0.00  0.00    +0.000 C 
ATOM      9  O   UNL     1       7.459   5.314  13.386  0.00  0.00    +0.000 OA
ATOM     10  N   UNL     1       6.045   3.948  14.653  0.00  0.00    +0.000 N 
ATOM     11  H   UNL     1       5.602   3.037  14.628  0.00  0.00    +0.000 HD
ENDBRANCH   1  10
BRANCH   5  12
ATOM     12  C   UNL     1       3.714   6.761  17.990  0.00  0.00    +0.000 C 
ATOM     13  O   UNL     1       3.429   7.854  17.513  0.00  0.00    +0.000 OA
BRANCH  12  14
ATOM     14  C   UNL     1       2.852   6.202  19.096  0.00  0.00    +0.000 C 
ATOM     15  O   UNL     1       2.380   6.962  19.937  0.00  0.00    +0.000 OA
BRANCH  14  16
ATOM     16  C   UNL     1       2.581   4.741  19.116  0.00  0.00    +0.000 A 
ATOM     17  C   UNL     1       1.680   4.203  18.202  0.00  0.00    +0.000 A 
ATOM     18  C   UNL     1       1.463   2.828  18.216  0.00  0.00    +0.000 A 
ATOM     19  C   UNL     1       2.154   2.040  19.130  0.00  0.00    +0.000 A 
ATOM     20  C   UNL     1       3.025   2.664  20.010  0.00  0.00    +0.000 A 
ATOM     21  N   UNL     1       3.238   3.997  20.037  0.00  0.00    +0.000 NA
ENDBRANCH  14  16
ENDBRANCH  12  14
ENDBRANCH   5  12
TORSDOF 4
ENDMDL
MODEL 4
REMARK VINA RESULT:      -7.5      1.891      2.495
REMARK  Name = 
REMARK  5 active torsions:
REMARK  status: ('A' for Active; 'I' for Inactive)
REMARK    1  A    between atoms: C_1  and  C_2
REMARK    2  A    between atoms: N_4  and  C_5
REMARK    3  A    between atoms: C_9  and  C_10
REMARK    4  A    between atoms: C_10  and  C_12
REMARK    5  A    between atoms: C_12  and  C_14
REMARK                            x       y       z     vdW  Elec       q    Type
REMARK                         _______ _______ _______ _____ _____    ______ ____
ROOT
ATOM      1  C   UNL     1       2.945   5.951  18.475  0.00  0.00    +0.000 A 
ATOM      2  C   UNL     1       2.166   4.862  18.079  0.00  0.00    +0.000 A 
ATOM      3  C   UNL     1       2.735   3.789  17.393  0.00  0.00    +0.000 A 
ATOM      4  C   UNL     1       4.098   3.788  17.109  0.00  0.00    +0.000 A 
ATOM      5  C   UNL     1       4.893   4.879  17.480  0.00  0.00    +0.000 A 
ATOM      6  C   UNL     1       4.309   5.973  18.139  0.00  0.00    +0.000 A 
ENDROOT
BRANCH   1  10
ATOM      7  C   UNL     1       1.296   8.300  20.933  0.00  0.00    +0.000 C 
ATOM      8  C   UNL     1       1.767   6.957  20.433  0.00  0.00    +0.000 C 
ATOM      9  O   UNL     1       1.559   5.942  21.090  0.00  0.00    +0.000 OA
ATOM     10  N   UNL     1       2.427   7.038  19.217  0.00  0.00    +0.000 N 
ATOM     11  H   UNL     1       2.668   7.966  18.890  0.00  0.00    +0.000 HD
ENDBRANCH   1  10
BRANCH   5  12
ATOM     12  C   UNL     1       6.355   4.774  17.236  0.00  0.00    +0.000 C 
ATOM     13  O   UNL     1       7.053   4.062  17.951  0.00  0.00    +0.000 OA
BRANCH  12  14
ATOM     14  C   UNL     1       7.015   5.570  16.135  0.00  0.00    +0.000 C 
ATOM     15  O   UNL     1       7.566   6.633  16.406  0.00  0.00    +0.000 OA
BRANCH  14  16
ATOM     16  C   UNL     1       6.998   5.021  14.755  0.00  0.00    +0.000 A 
ATOM     17  C   UNL     1       6.083   4.024  14.429  0.00  0.00    +0.000 A 
ATOM     18  C   UNL     1       6.063   3.544  13.122  0.00  0.00    +0.000 A 
ATOM     19  C   UNL     1       6.943   4.079  12.188  0.00  0.00    +0.000 A 
ATOM     20  C   UNL     1       7.827   5.062  12.605  0.00  0.00    +0.000 A 
ATOM     21  N   UNL     1       7.888   5.530  13.871  0.00  0.00    +0.000 NA
ENDBRANCH  14  16
ENDBRANCH  12  14
ENDBRANCH   5  12
TORSDOF 4
ENDMDL
MODEL 5
REMARK VINA RESULT:      -7.5      1.351      1.556
REMARK  Name = 
REMARK  5 active torsions:
REMARK  status: ('A' for Active; 'I' for Inactive)
REMARK    1  A    between atoms: C_1  and  C_2
REMARK    2  A    between atoms: N_4  and  C_5
REMARK    3  A    between atoms: C_9  and  C_10
REMARK    4  A    between atoms: C_10  and  C_12
REMARK    5  A    between atoms: C_12  and  C_14
REMARK                            x       y       z     vdW  Elec       q    Type
REMARK                         _______ _______ _______ _____ _____    ______ ____
ROOT
ATOM      1  C   UNL     1       2.717   5.106  18.470  0.00  0.00    +0.000 A 
ATOM      2  C   UNL     1       2.359   6.427  18.193  0.00  0.00    +0.000 A 
ATOM      3  C   UNL     1       3.302   7.337  17.715  0.00  0.00    +0.000 A 
ATOM      4  C   UNL     1       4.615   6.928  17.494  0.00  0.00    +0.000 A 
ATOM      5  C   UNL     1       4.998   5.613  17.784  0.00  0.00    +0.000 A 
ATOM      6  C   UNL     1       4.053   4.711  18.298  0.00  0.00    +0.000 A 
ENDROOT
BRANCH   1  10
ATOM      7  C   UNL     1       0.466   2.118  19.001  0.00  0.00    +0.000 C 
ATOM      8  C   UNL     1       1.563   2.896  18.320  0.00  0.00    +0.000 C 
ATOM      9  O   UNL     1       2.157   2.421  17.358  0.00  0.00    +0.000 OA
ATOM     10  N   UNL     1       1.788   4.133  18.906  0.00  0.00    +0.000 N 
ATOM     11  H   UNL     1       1.335   4.305  19.796  0.00  0.00    +0.000 HD
ENDBRANCH   1  10
BRANCH   5  12
ATOM     12  C   UNL     1       6.386   5.213  17.434  0.00  0.00    +0.000 C 
ATOM     13  O   UNL     1       6.995   4.411  18.134  0.00  0.00    +0.000 OA
BRANCH  12  14
ATOM     14  C   UNL     1       7.086   5.815  16.239  0.00  0.00    +0.000 C 
ATOM     15  O   UNL     1       7.773   6.823  16.386  0.00  0.00    +0.000 OA
BRANCH  14  16
ATOM     16  C   UNL     1       6.941   5.147  14.920  0.00  0.00    +0.000 A 
ATOM     17  C   UNL     1       5.938   4.199  14.744  0.00  0.00    +0.000 A 
ATOM     18  C   UNL     1       5.798   3.606  13.492  0.00  0.00    +0.000 A 
ATOM     19  C   UNL     1       6.652   3.984  12.462  0.00  0.00    +0.000 A 
ATOM     20  C   UNL     1       7.629   4.930  12.732  0.00  0.00    +0.000 A 
ATOM     21  N   UNL     1       7.806   5.504  13.942  0.00  0.00    +0.000 NA
ENDBRANCH  14  16
ENDBRANCH  12  14
ENDBRANCH   5  12
TORSDOF 4
ENDMDL
MODEL 6
REMARK VINA RESULT:      -7.4      1.996      6.429
REMARK  Name = 
REMARK  5 active torsions:
REMARK  status: ('A' for Active; 'I' for Inactive)
REMARK    1  A    between atoms: C_1  and  C_2
REMARK    2  A    between atoms: N_4  and  C_5
REMARK    3  A    between atoms: C_9  and  C_10
REMARK    4  A    between atoms: C_10  and  C_12
REMARK    5  A    between atoms: C_12  and  C_14
REMARK                            x       y       z     vdW  Elec       q    Type
REMARK                         _______ _______ _______ _____ _____    ______ ____
ROOT
ATOM      1  C   UNL     1       6.339   6.727  16.943  0.00  0.00    +0.000 A 
ATOM      2  C   UNL     1       6.805   5.617  16.236  0.00  0.00    +0.000 A 
ATOM      3  C   UNL     1       5.996   4.495  16.055  0.00  0.00    +0.000 A 
ATOM      4  C   UNL     1       4.702   4.479  16.568  0.00  0.00    +0.000 A 
ATOM      5  C   UNL     1       4.223   5.574  17.296  0.00  0.00    +0.000 A 
ATOM      6  C   UNL     1       5.053   6.687  17.506  0.00  0.00    +0.000 A 
ENDROOT
BRANCH   1  10
ATOM      7  C   UNL     1       8.664   9.510  18.005  0.00  0.00    +0.000 C 
ATOM      8  C   UNL     1       8.080   8.120  18.067  0.00  0.00    +0.000 C 
ATOM      9  O   UNL     1       8.484   7.313  18.897  0.00  0.00    +0.000 OA
ATOM     10  N   UNL     1       7.099   7.908  17.109  0.00  0.00    +0.000 N 
ATOM     11  H   UNL     1       7.004   8.614  16.390  0.00  0.00    +0.000 HD
ENDBRANCH   1  10
BRANCH   5  12
ATOM     12  C   UNL     1       2.802   5.536  17.732  0.00  0.00    +0.000 C 
ATOM     13  O   UNL     1       2.189   6.579  17.937  0.00  0.00    +0.000 OA
BRANCH  12  14
ATOM     14  C   UNL     1       2.101   4.220  17.970  0.00  0.00    +0.000 C 
ATOM     15  O   UNL     1       1.485   3.689  17.049  0.00  0.00    +0.000 OA
BRANCH  14  16
ATOM     16  C   UNL     1       2.203   3.595  19.313  0.00  0.00    +0.000 A 
ATOM     17  C   UNL     1       1.085   3.574  20.142  0.00  0.00    +0.000 A 
ATOM     18  C   UNL     1       1.193   2.957  21.385  0.00  0.00    +0.000 A 
ATOM     19  C   UNL     1       2.401   2.376  21.753  0.00  0.00    +0.000 A 
ATOM     20  C   UNL     1       3.465   2.453  20.868  0.00  0.00    +0.000 A 
ATOM     21  N   UNL     1       3.399   3.067  19.666  0.00  0.00    +0.000 NA
ENDBRANCH  14  16
ENDBRANCH  12  14
ENDBRANCH   5  12
TORSDOF 4
ENDMDL
MODEL 7
REMARK VINA RESULT:      -7.4      2.160      6.217
REMARK  Name = 
REMARK  5 active torsions:
REMARK  status: ('A' for Active; 'I' for Inactive)
REMARK    1  A    between atoms: C_1  and  C_2
REMARK    2  A    between atoms: N_4  and  C_5
REMARK    3  A    between atoms: C_9  and  C_10
REMARK    4  A    between atoms: C_10  and  C_12
REMARK    5  A    between atoms: C_12  and  C_14
REMARK                            x       y       z     vdW  Elec       q    Type
REMARK                         _______ _______ _______ _____ _____    ______ ____
ROOT
ATOM      1  C   UNL     1       5.777   4.628  16.251  0.00  0.00    +0.000 A 
ATOM      2  C   UNL     1       6.717   4.398  17.257  0.00  0.00    +0.000 A 
ATOM      3  C   UNL     1       6.581   4.994  18.511  0.00  0.00    +0.000 A 
ATOM      4  C   UNL     1       5.490   5.818  18.776  0.00  0.00    +0.000 A 
ATOM      5  C   UNL     1       4.547   6.077  17.775  0.00  0.00    +0.000 A 
ATOM      6  C   UNL     1       4.707   5.502  16.504  0.00  0.00    +0.000 A 
ENDROOT
BRANCH   1  10
ATOM      7  C   UNL     1       6.408   3.571  12.678  0.00  0.00    +0.000 C 
ATOM      8  C   UNL     1       6.608   4.426  13.905  0.00  0.00    +0.000 C 
ATOM      9  O   UNL     1       7.388   5.373  13.882  0.00  0.00    +0.000 OA
ATOM     10  N   UNL     1       5.841   4.007  14.982  0.00  0.00    +0.000 N 
ATOM     11  H   UNL     1       5.381   3.109  14.892  0.00  0.00    +0.000 HD
ENDBRANCH   1  10
BRANCH   5  12
ATOM     12  C   UNL     1       3.355   6.882  18.149  0.00  0.00    +0.000 C 
ATOM     13  O   UNL     1       3.057   7.883  17.507  0.00  0.00    +0.000 OA
BRANCH  12  14
ATOM     14  C   UNL     1       2.516   6.510  19.349  0.00  0.00    +0.000 C 
ATOM     15  O   UNL     1       2.233   7.371  20.178  0.00  0.00    +0.000 OA
BRANCH  14  16
ATOM     16  C   UNL     1       2.036   5.110  19.472  0.00  0.00    +0.000 A 
ATOM     17  C   UNL     1       1.914   4.540  20.736  0.00  0.00    +0.000 A 
ATOM     18  C   UNL     1       1.434   3.237  20.832  0.00  0.00    +0.000 A 
ATOM     19  C   UNL     1       1.085   2.553  19.672  0.00  0.00    +0.000 A 
ATOM     20  C   UNL     1       1.251   3.196  18.455  0.00  0.00    +0.000 A 
ATOM     21  N   UNL     1       1.738   4.450  18.328  0.00  0.00    +0.000 NA
ENDBRANCH  14  16
ENDBRANCH  12  14
ENDBRANCH   5  12
TORSDOF 4
ENDMDL
MODEL 8
REMARK VINA RESULT:      -7.3      2.185      3.027
REMARK  Name = 
REMARK  5 active torsions:
REMARK  status: ('A' for Active; 'I' for Inactive)
REMARK    1  A    between atoms: C_1  and  C_2
REMARK    2  A    between atoms: N_4  and  C_5
REMARK    3  A    between atoms: C_9  and  C_10
REMARK    4  A    between atoms: C_10  and  C_12
REMARK    5  A    between atoms: C_12  and  C_14
REMARK                            x       y       z     vdW  Elec       q    Type
REMARK                         _______ _______ _______ _____ _____    ______ ____
ROOT
ATOM      1  C   UNL     1       3.053   6.559  18.542  0.00  0.00    +0.000 A 
ATOM      2  C   UNL     1       2.759   5.215  18.785  0.00  0.00    +0.000 A 
ATOM      3  C   UNL     1       3.606   4.205  18.327  0.00  0.00    +0.000 A 
ATOM      4  C   UNL     1       4.767   4.532  17.632  0.00  0.00    +0.000 A 
ATOM      5  C   UNL     1       5.070   5.871  17.361  0.00  0.00    +0.000 A 
ATOM      6  C   UNL     1       4.197   6.882  17.794  0.00  0.00    +0.000 A 
ENDROOT
BRANCH   1  10
ATOM      7  C   UNL     1       1.101   9.733  19.163  0.00  0.00    +0.000 C 
ATOM      8  C   UNL     1       1.923   8.776  18.337  0.00  0.00    +0.000 C 
ATOM      9  O   UNL     1       2.223   9.053  17.181  0.00  0.00    +0.000 OA
ATOM     10  N   UNL     1       2.257   7.621  19.029  0.00  0.00    +0.000 N 
ATOM     11  H   UNL     1       1.789   7.468  19.914  0.00  0.00    +0.000 HD
ENDBRANCH   1  10
BRANCH   5  12
ATOM     12  C   UNL     1       6.371   6.158  16.703  0.00  0.00    +0.000 C 
ATOM     13  O   UNL     1       6.754   7.315  16.566  0.00  0.00    +0.000 OA
BRANCH  12  14
ATOM     14  C   UNL     1       7.224   5.039  16.154  0.00  0.00    +0.000 C 
ATOM     15  O   UNL     1       7.919   4.378  16.920  0.00  0.00    +0.000 OA
BRANCH  14  16
ATOM     16  C   UNL     1       7.172   4.757  14.696  0.00  0.00    +0.000 A 
ATOM     17  C   UNL     1       6.250   3.833  14.213  0.00  0.00    +0.000 A 
ATOM     18  C   UNL     1       6.197   3.605  12.841  0.00  0.00    +0.000 A 
ATOM     19  C   UNL     1       7.053   4.309  12.001  0.00  0.00    +0.000 A 
ATOM     20  C   UNL     1       7.946   5.203  12.571  0.00  0.00    +0.000 A 
ATOM     21  N   UNL     1       8.039   5.427  13.900  0.00  0.00    +0.000 NA
ENDBRANCH  14  16
ENDBRANCH  12  14
ENDBRANCH   5  12
TORSDOF 4
ENDMDL
MODEL 9
REMARK VINA RESULT:      -7.3      1.957      6.593
REMARK  Name = 
REMARK  5 active torsions:
REMARK  status: ('A' for Active; 'I' for Inactive)
REMARK    1  A    between atoms: C_1  and  C_2
REMARK    2  A    between atoms: N_4  and  C_5
REMARK    3  A    between atoms: C_9  and  C_10
REMARK    4  A    between atoms: C_10  and  C_12
REMARK    5  A    between atoms: C_12  and  C_14
REMARK                            x       y       z     vdW  Elec       q    Type
REMARK                         _______ _______ _______ _____ _____    ______ ____
ROOT
ATOM      1  C   UNL     1       6.094   4.326  15.694  0.00  0.00    +0.000 A 
ATOM      2  C   UNL     1       7.153   4.444  16.596  0.00  0.00    +0.000 A 
ATOM      3  C   UNL     1       6.951   4.979  17.868  0.00  0.00    +0.000 A 
ATOM      4  C   UNL     1       5.678   5.388  18.257  0.00  0.00    +0.000 A 
ATOM      5  C   UNL     1       4.607   5.297  17.361  0.00  0.00    +0.000 A 
ATOM      6  C   UNL     1       4.822   4.790  16.070  0.00  0.00    +0.000 A 
ENDROOT
BRANCH   1  10
ATOM      7  C   UNL     1       6.802   3.451  12.086  0.00  0.00    +0.000 C 
ATOM      8  C   UNL     1       6.873   4.314  13.321  0.00  0.00    +0.000 C 
ATOM      9  O   UNL     1       7.457   5.392  13.292  0.00  0.00    +0.000 OA
ATOM     10  N   UNL     1       6.235   3.744  14.413  0.00  0.00    +0.000 N 
ATOM     11  H   UNL     1       5.952   2.775  14.321  0.00  0.00    +0.000 HD
ENDBRANCH   1  10
BRANCH   5  12
ATOM     12  C   UNL     1       3.258   5.657  17.870  0.00  0.00    +0.000 C 
ATOM     13  O   UNL     1       2.990   6.822  18.145  0.00  0.00    +0.000 OA
BRANCH  12  14
ATOM     14  C   UNL     1       2.208   4.596  18.097  0.00  0.00    +0.000 C 
ATOM     15  O   UNL     1       1.357   4.394  17.235  0.00  0.00    +0.000 OA
BRANCH  14  16
ATOM     16  C   UNL     1       2.257   3.807  19.355  0.00  0.00    +0.000 A 
ATOM     17  C   UNL     1       3.367   3.010  19.617  0.00  0.00    +0.000 A 
ATOM     18  C   UNL     1       3.407   2.302  20.815  0.00  0.00    +0.000 A 
ATOM     19  C   UNL     1       2.350   2.421  21.711  0.00  0.00    +0.000 A 
ATOM     20  C   UNL     1       1.280   3.230  21.362  0.00  0.00    +0.000 A 
ATOM     21  N   UNL     1       1.201   3.909  20.196  0.00  0.00    +0.000 NA
ENDBRANCH  14  16
ENDBRANCH  12  14
ENDBRANCH   5  12
TORSDOF 4
ENDMDL
