MODEL 1
REMARK VINA RESULT:      -7.5      0.000      0.000
REMARK  Name = 
REMARK  9 active torsions:
REMARK  status: ('A' for Active; 'I' for Inactive)
REMARK    1  A    between atoms: C_1  and  C_2
REMARK    2  A    between atoms: C_2  and  C_3
REMARK    3  A    between atoms: C_2  and  C_4
REMARK    4  A    between atoms: C_2  and  O_5
REMARK    5  A    between atoms: O_5  and  C_6
REMARK    6  A    between atoms: C_15  and  C_16
REMARK    7  A    between atoms: C_16  and  N_17
REMARK    8  A    between atoms: N_20  and  C_21
REMARK    9  A    between atoms: C_21  and  C_22
REMARK                            x       y       z     vdW  Elec       q    Type
REMARK                         _______ _______ _______ _____ _____    ______ ____
ROOT
ATOM      1  C   UNL     1       2.835   4.577  18.446  0.00  0.00    +0.000 C 
ATOM      2  O   UNL     1       1.870   4.734  17.708  0.00  0.00    +0.000 OA
ATOM      3  N   UNL     1       4.136   4.642  17.986  0.00  0.00    +0.000 N 
ATOM      4  C   UNL     1       4.379   5.017  16.598  0.00  0.00    +0.000 C 
ATOM      5  C   UNL     1       5.059   6.387  16.538  0.00  0.00    +0.000 C 
ATOM      6  C   UNL     1       6.318   6.404  17.394  0.00  0.00    +0.000 C 
ATOM      7  C   UNL     1       6.096   5.880  18.809  0.00  0.00    +0.000 C 
ATOM      8  C   UNL     1       5.325   4.554  18.821  0.00  0.00    +0.000 C 
ATOM      9  C   UNL     1       7.641   6.137  16.711  0.00  0.00    +0.000 C 
ATOM     10  C   UNL     1       7.309   7.542  17.153  0.00  0.00    +0.000 C 
ENDROOT
BRANCH   1  11
ATOM     11  O   UNL     1       2.737   4.332  19.788  0.00  0.00    +0.000 OA
BRANCH  11  13
ATOM     12  C   UNL     1       2.515   2.775  21.689  0.00  0.00    +0.000 C 
ATOM     13  C   UNL     1       2.139   3.082  20.233  0.00  0.00    +0.000 C 
ATOM     14  C   UNL     1       2.486   1.930  19.278  0.00  0.00    +0.000 C 
ATOM     15  C   UNL     1       0.613   3.287  20.182  0.00  0.00    +0.000 C 
ENDBRANCH  11  13
ENDBRANCH   1  11
BRANCH  10  16
ATOM     16  C   UNL     1       8.145   8.175  18.225  0.00  0.00    +0.000 C 
BRANCH  16  17
ATOM     17  N   UNL     1       8.332   9.581  17.956  0.00  0.00    +0.000 N 
ATOM     18  C   UNL     1       9.045  10.373  18.812  0.00  0.00    +0.000 C 
ATOM     19  O   UNL     1       9.591   9.960  19.825  0.00  0.00    +0.000 OA
ATOM     20  N   UNL     1       9.063  11.686  18.421  0.00  0.00    +0.000 N 
ATOM     21  H   UNL     1       7.839   9.998  17.183  0.00  0.00    +0.000 HD
ATOM     22  H   UNL     1       8.817  11.899  17.469  0.00  0.00    +0.000 HD
BRANCH  20  23
ATOM     23  C   UNL     1       9.832  12.664  19.161  0.00  0.00    +0.000 C 
BRANCH  23  24
ATOM     24  C   UNL     1      10.079  13.910  18.361  0.00  0.00    +0.000 A 
ATOM     25  C   UNL     1       9.111  14.913  18.253  0.00  0.00    +0.000 A 
ATOM     26  C   UNL     1       9.380  16.060  17.513  0.00  0.00    +0.000 A 
ATOM     27  C   UNL     1      10.620  16.173  16.909  0.00  0.00    +0.000 A 
ATOM     28  N   UNL     1      11.584  15.232  16.994  0.00  0.00    +0.000 NA
ATOM     29  C   UNL     1      11.292  14.127  17.717  0.00  0.00    +0.000 A 
ENDBRANCH  23  24
ENDBRANCH  20  23
ENDBRANCH  16  17
ENDBRANCH  10  16
TORSDOF 6
ENDMDL
MODEL 2
REMARK VINA RESULT:      -7.4      5.889      9.180
REMARK  Name = 
REMARK  9 active torsions:
REMARK  status: ('A' for Active; 'I' for Inactive)
REMARK    1  A    between atoms: C_1  and  C_2
REMARK    2  A    between atoms: C_2  and  C_3
REMARK    3  A    between atoms: C_2  and  C_4
REMARK    4  A    between atoms: C_2  and  O_5
REMARK    5  A    between atoms: O_5  and  C_6
REMARK    6  A    between atoms: C_15  and  C_16
REMARK    7  A    between atoms: C_16  and  N_17
REMARK    8  A    between atoms: N_20  and  C_21
REMARK    9  A    between atoms: C_21  and  C_22
REMARK                            x       y       z     vdW  Elec       q    Type
REMARK                         _______ _______ _______ _____ _____    ______ ____
ROOT
ATOM      1  C   UNL     1      -1.821  11.973  18.875  0.00  0.00    +0.000 C 
ATOM      2  O   UNL     1      -2.670  12.498  19.584  0.00  0.00    +0.000 OA
ATOM      3  N   UNL     1      -0.645  11.459  19.386  0.00  0.00    +0.000 N 
ATOM      4  C   UNL     1      -0.450  11.438  20.831  0.00  0.00    +0.000 C 
ATOM      5  C   UNL     1      -0.450   9.994  21.338  0.00  0.00    +0.000 C 
ATOM      6  C   UNL     1       0.570   9.155  20.582  0.00  0.00    +0.000 C 
ATOM      7  C   UNL     1       0.458   9.284  19.067  0.00  0.00    +0.000 C 
ATOM      8  C   UNL     1       0.363  10.746  18.615  0.00  0.00    +0.000 C 
ATOM      9  C   UNL     1       1.937   8.975  21.205  0.00  0.00    +0.000 C 
ATOM     10  C   UNL     1       0.969   7.816  21.203  0.00  0.00    +0.000 C 
ENDROOT
BRANCH   1  11
ATOM     11  O   UNL     1      -1.940  11.832  17.519  0.00  0.00    +0.000 OA
BRANCH  11  13
ATOM     12  C   UNL     1      -3.033   9.637  17.798  0.00  0.00    +0.000 C 
ATOM     13  C   UNL     1      -2.964  10.941  16.992  0.00  0.00    +0.000 C 
ATOM     14  C   UNL     1      -2.764  10.695  15.489  0.00  0.00    +0.000 C 
ATOM     15  C   UNL     1      -4.309  11.669  17.172  0.00  0.00    +0.000 C 
ENDBRANCH  11  13
ENDBRANCH   1  11
BRANCH  10  16
ATOM     16  C   UNL     1       1.316   6.589  20.414  0.00  0.00    +0.000 C 
BRANCH  16  17
ATOM     17  N   UNL     1       2.718   6.590  20.068  0.00  0.00    +0.000 N 
ATOM     18  C   UNL     1       3.355   5.436  19.709  0.00  0.00    +0.000 C 
ATOM     19  O   UNL     1       2.798   4.349  19.625  0.00  0.00    +0.000 OA
ATOM     20  N   UNL     1       4.691   5.624  19.475  0.00  0.00    +0.000 N 
ATOM     21  H   UNL     1       3.249   7.436  20.197  0.00  0.00    +0.000 HD
ATOM     22  H   UNL     1       5.015   6.564  19.318  0.00  0.00    +0.000 HD
BRANCH  20  23
ATOM     23  C   UNL     1       5.519   4.532  19.011  0.00  0.00    +0.000 C 
BRANCH  23  24
ATOM     24  C   UNL     1       5.900   4.685  17.568  0.00  0.00    +0.000 A 
ATOM     25  C   UNL     1       5.173   4.060  16.550  0.00  0.00    +0.000 A 
ATOM     26  C   UNL     1       5.548   4.235  15.222  0.00  0.00    +0.000 A 
ATOM     27  C   UNL     1       6.639   5.043  14.951  0.00  0.00    +0.000 A 
ATOM     28  N   UNL     1       7.362   5.670  15.902  0.00  0.00    +0.000 NA
ATOM     29  C   UNL     1       6.976   5.478  17.184  0.00  0.00    +0.000 A 
ENDBRANCH  23  24
ENDBRANCH  20  23
ENDBRANCH  16  17
ENDBRANCH  10  16
TORSDOF 6
ENDMDL
MODEL 3
REMARK VINA RESULT:      -7.4      1.105      1.564
REMARK  Name = 
REMARK  9 active torsions:
REMARK  status: ('A' for Active; 'I' for Inactive)
REMARK    1  A    between atoms: C_1  and  C_2
REMARK    2  A    between atoms: C_2  and  C_3
REMARK    3  A    between atoms: C_2  and  C_4
REMARK    4  A    between atoms: C_2  and  O_5
REMARK    5  A    between atoms: O_5  and  C_6
REMARK    6  A    between atoms: C_15  and  C_16
REMARK    7  A    between atoms: C_16  and  N_17
REMARK    8  A    between atoms: N_20  and  C_21
REMARK    9  A    between atoms: C_21  and  C_22
REMARK                            x       y       z     vdW  Elec       q    Type
REMARK                         _______ _______ _______ _____ _____    ______ ____
ROOT
ATOM      1  C   UNL     1       2.723   4.283  18.274  0.00  0.00    +0.000 C 
ATOM      2  O   UNL     1       1.823   4.341  17.445  0.00  0.00    +0.000 OA
ATOM      3  N   UNL     1       4.057   4.338  17.922  0.00  0.00    +0.000 N 
ATOM      4  C   UNL     1       4.413   4.582  16.529  0.00  0.00    +0.000 C 
ATOM      5  C   UNL     1       5.071   5.957  16.390  0.00  0.00    +0.000 C 
ATOM      6  C   UNL     1       6.250   6.091  17.344  0.00  0.00    +0.000 C 
ATOM      7  C   UNL     1       5.916   5.701  18.780  0.00  0.00    +0.000 C 
ATOM      8  C   UNL     1       5.171   4.363  18.859  0.00  0.00    +0.000 C 
ATOM      9  C   UNL     1       7.632   5.794  16.805  0.00  0.00    +0.000 C 
ATOM     10  C   UNL     1       7.238   7.226  17.077  0.00  0.00    +0.000 C 
ENDROOT
BRANCH   1  11
ATOM     11  O   UNL     1       2.512   4.168  19.621  0.00  0.00    +0.000 OA
BRANCH  11  13
ATOM     12  C   UNL     1       0.419   2.888  19.882  0.00  0.00    +0.000 C 
ATOM     13  C   UNL     1       1.931   2.938  20.139  0.00  0.00    +0.000 C 
ATOM     14  C   UNL     1       2.284   2.740  21.621  0.00  0.00    +0.000 C 
ATOM     15  C   UNL     1       2.574   1.784  19.347  0.00  0.00    +0.000 C 
ENDBRANCH  11  13
ENDBRANCH   1  11
BRANCH  10  16
ATOM     16  C   UNL     1       7.966   7.984  18.147  0.00  0.00    +0.000 C 
BRANCH  16  17
ATOM     17  N   UNL     1       8.257   9.327  17.707  0.00  0.00    +0.000 N 
ATOM     18  C   UNL     1       8.940  10.198  18.509  0.00  0.00    +0.000 C 
ATOM     19  O   UNL     1       9.373   9.907  19.615  0.00  0.00    +0.000 OA
ATOM     20  N   UNL     1       9.068  11.440  17.946  0.00  0.00    +0.000 N 
ATOM     21  H   UNL     1       7.856   9.652  16.842  0.00  0.00    +0.000 HD
ATOM     22  H   UNL     1       8.916  11.528  16.955  0.00  0.00    +0.000 HD
BRANCH  20  23
ATOM     23  C   UNL     1       9.827  12.477  18.613  0.00  0.00    +0.000 C 
BRANCH  23  24
ATOM     24  C   UNL     1       9.195  13.829  18.456  0.00  0.00    +0.000 A 
ATOM     25  C   UNL     1       9.931  15.004  18.636  0.00  0.00    +0.000 A 
ATOM     26  C   UNL     1       9.315  16.241  18.469  0.00  0.00    +0.000 A 
ATOM     27  C   UNL     1       7.976  16.263  18.117  0.00  0.00    +0.000 A 
ATOM     28  N   UNL     1       7.233  15.152  17.926  0.00  0.00    +0.000 NA
ATOM     29  C   UNL     1       7.858  13.965  18.099  0.00  0.00    +0.000 A 
ENDBRANCH  23  24
ENDBRANCH  20  23
ENDBRANCH  16  17
ENDBRANCH  10  16
TORSDOF 6
ENDMDL
MODEL 4
REMARK VINA RESULT:      -7.3      0.724      1.020
REMARK  Name = 
REMARK  9 active torsions:
REMARK  status: ('A' for Active; 'I' for Inactive)
REMARK    1  A    between atoms: C_1  and  C_2
REMARK    2  A    between atoms: C_2  and  C_3
REMARK    3  A    between atoms: C_2  and  C_4
REMARK    4  A    between atoms: C_2  and  O_5
REMARK    5  A    between atoms: O_5  and  C_6
REMARK    6  A    between atoms: C_15  and  C_16
REMARK    7  A    between atoms: C_16  and  N_17
REMARK    8  A    between atoms: N_20  and  C_21
REMARK    9  A    between atoms: C_21  and  C_22
REMARK                            x       y       z     vdW  Elec       q    Type
REMARK                         _______ _______ _______ _____ _____    ______ ____
ROOT
ATOM      1  C   UNL     1       3.041   3.712  18.077  0.00  0.00    +0.000 C 
ATOM      2  O   UNL     1       2.058   3.791  17.352  0.00  0.00    +0.000 OA
ATOM      3  N   UNL     1       4.315   4.003  17.629  0.00  0.00    +0.000 N 
ATOM      4  C   UNL     1       4.490   4.526  16.279  0.00  0.00    +0.000 C 
ATOM      5  C   UNL     1       4.965   5.979  16.339  0.00  0.00    +0.000 C 
ATOM      6  C   UNL     1       6.216   6.104  17.197  0.00  0.00    +0.000 C 
ATOM      7  C   UNL     1       6.085   5.434  18.561  0.00  0.00    +0.000 C 
ATOM      8  C   UNL     1       5.512   4.015  18.457  0.00  0.00    +0.000 C 
ATOM      9  C   UNL     1       7.557   6.089  16.498  0.00  0.00    +0.000 C 
ATOM     10  C   UNL     1       7.032   7.389  17.059  0.00  0.00    +0.000 C 
ENDROOT
BRANCH   1  11
ATOM     11  O   UNL     1       2.991   3.341  19.393  0.00  0.00    +0.000 OA
BRANCH  11  13
ATOM     12  C   UNL     1       2.333   5.607  20.117  0.00  0.00    +0.000 C 
ATOM     13  C   UNL     1       2.143   4.095  20.304  0.00  0.00    +0.000 C 
ATOM     14  C   UNL     1       2.358   3.649  21.759  0.00  0.00    +0.000 C 
ATOM     15  C   UNL     1       0.688   3.760  19.923  0.00  0.00    +0.000 C 
ENDBRANCH  11  13
ENDBRANCH   1  11
BRANCH  10  16
ATOM     16  C   UNL     1       7.778   8.042  18.184  0.00  0.00    +0.000 C 
BRANCH  16  17
ATOM     17  N   UNL     1       8.159   9.387  17.825  0.00  0.00    +0.000 N 
ATOM     18  C   UNL     1       8.916  10.153  18.666  0.00  0.00    +0.000 C 
ATOM     19  O   UNL     1       9.344   9.761  19.743  0.00  0.00    +0.000 OA
ATOM     20  N   UNL     1       9.125  11.417  18.182  0.00  0.00    +0.000 N 
ATOM     21  H   UNL     1       7.769   9.796  16.990  0.00  0.00    +0.000 HD
ATOM     22  H   UNL     1       8.964  11.579  17.201  0.00  0.00    +0.000 HD
BRANCH  20  23
ATOM     23  C   UNL     1       9.967  12.351  18.897  0.00  0.00    +0.000 C 
BRANCH  23  24
ATOM     24  C   UNL     1      10.008  13.697  18.235  0.00  0.00    +0.000 A 
ATOM     25  C   UNL     1       9.005  14.647  18.449  0.00  0.00    +0.000 A 
ATOM     26  C   UNL     1       9.082  15.890  17.828  0.00  0.00    +0.000 A 
ATOM     27  C   UNL     1      10.171  16.148  17.014  0.00  0.00    +0.000 A 
ATOM     28  N   UNL     1      11.164  15.261  16.786  0.00  0.00    +0.000 NA
ATOM     29  C   UNL     1      11.059  14.061  17.401  0.00  0.00    +0.000 A 
ENDBRANCH  23  24
ENDBRANCH  20  23
ENDBRANCH  16  17
ENDBRANCH  10  16
TORSDOF 6
ENDMDL
MODEL 5
REMARK VINA RESULT:      -7.3      1.322      1.835
REMARK  Name = 
REMARK  9 active torsions:
REMARK  status: ('A' for Active; 'I' for Inactive)
REMARK    1  A    between atoms: C_1  and  C_2
REMARK    2  A    between atoms: C_2  and  C_3
REMARK    3  A    between atoms: C_2  and  C_4
REMARK    4  A    between atoms: C_2  and  O_5
REMARK    5  A    between atoms: O_5  and  C_6
REMARK    6  A    between atoms: C_15  and  C_16
REMARK    7  A    between atoms: C_16  and  N_17
REMARK    8  A    between atoms: N_20  and  C_21
REMARK    9  A    between atoms: C_21  and  C_22
REMARK                            x       y       z     vdW  Elec       q    Type
REMARK                         _______ _______ _______ _____ _____    ______ ____
ROOT
ATOM      1  C   UNL     1       3.092   3.416  18.133  0.00  0.00    +0.000 C 
ATOM      2  O   UNL     1       2.165   3.379  17.334  0.00  0.00    +0.000 OA
ATOM      3  N   UNL     1       4.381   3.740  17.755  0.00  0.00    +0.000 N 
ATOM      4  C   UNL     1       4.633   4.160  16.382  0.00  0.00    +0.000 C 
ATOM      5  C   UNL     1       5.030   5.638  16.351  0.00  0.00    +0.000 C 
ATOM      6  C   UNL     1       6.203   5.902  17.285  0.00  0.00    +0.000 C 
ATOM      7  C   UNL     1       6.000   5.339  18.688  0.00  0.00    +0.000 C 
ATOM      8  C   UNL     1       5.509   3.887  18.663  0.00  0.00    +0.000 C 
ATOM      9  C   UNL     1       7.593   5.906  16.689  0.00  0.00    +0.000 C 
ATOM     10  C   UNL     1       6.961   7.215  17.097  0.00  0.00    +0.000 C 
ENDROOT
BRANCH   1  11
ATOM     11  O   UNL     1       2.959   3.151  19.468  0.00  0.00    +0.000 OA
BRANCH  11  13
ATOM     12  C   UNL     1       0.550   3.470  19.892  0.00  0.00    +0.000 C 
ATOM     13  C   UNL     1       1.981   3.903  20.240  0.00  0.00    +0.000 C 
ATOM     14  C   UNL     1       2.194   5.416  20.084  0.00  0.00    +0.000 C 
ATOM     15  C   UNL     1       2.226   3.546  21.719  0.00  0.00    +0.000 C 
ENDBRANCH  11  13
ENDBRANCH   1  11
BRANCH  10  16
ATOM     16  C   UNL     1       7.585   7.999  18.213  0.00  0.00    +0.000 C 
BRANCH  16  17
ATOM     17  N   UNL     1       8.101   9.255  17.723  0.00  0.00    +0.000 N 
ATOM     18  C   UNL     1       8.925  10.027  18.493  0.00  0.00    +0.000 C 
ATOM     19  O   UNL     1       9.305   9.709  19.611  0.00  0.00    +0.000 OA
ATOM     20  N   UNL     1       9.261  11.206  17.883  0.00  0.00    +0.000 N 
ATOM     21  H   UNL     1       7.759   9.610  16.844  0.00  0.00    +0.000 HD
ATOM     22  H   UNL     1       9.124  11.280  16.889  0.00  0.00    +0.000 HD
BRANCH  20  23
ATOM     23  C   UNL     1      10.188  12.122  18.513  0.00  0.00    +0.000 C 
BRANCH  23  24
ATOM     24  C   UNL     1       9.503  13.355  19.026  0.00  0.00    +0.000 A 
ATOM     25  C   UNL     1       9.362  13.595  20.396  0.00  0.00    +0.000 A 
ATOM     26  C   UNL     1       8.732  14.755  20.836  0.00  0.00    +0.000 A 
ATOM     27  C   UNL     1       8.269  15.648  19.886  0.00  0.00    +0.000 A 
ATOM     28  N   UNL     1       8.391  15.458  18.555  0.00  0.00    +0.000 NA
ATOM     29  C   UNL     1       9.004  14.319  18.158  0.00  0.00    +0.000 A 
ENDBRANCH  23  24
ENDBRANCH  20  23
ENDBRANCH  16  17
ENDBRANCH  10  16
TORSDOF 6
ENDMDL
MODEL 6
REMARK VINA RESULT:      -7.2      6.710      9.685
REMARK  Name = 
REMARK  9 active torsions:
REMARK  status: ('A' for Active; 'I' for Inactive)
REMARK    1  A    between atoms: C_1  and  C_2
REMARK    2  A    between atoms: C_2  and  C_3
REMARK    3  A    between atoms: C_2  and  C_4
REMARK    4  A    between atoms: C_2  and  O_5
REMARK    5  A    between atoms: O_5  and  C_6
REMARK    6  A    between atoms: C_15  and  C_16
REMARK    7  A    between atoms: C_16  and  N_17
REMARK    8  A    between atoms: N_20  and  C_21
REMARK    9  A    between atoms: C_21  and  C_22
REMARK                            x       y       z     vdW  Elec       q    Type
REMARK                         _______ _______ _______ _____ _____    ______ ____
ROOT
ATOM      1  C   UNL     1      -1.372  13.435  20.093  0.00  0.00    +0.000 C 
ATOM      2  O   UNL     1      -0.799  14.516  20.146  0.00  0.00    +0.000 OA
ATOM      3  N   UNL     1      -0.945  12.412  19.268  0.00  0.00    +0.000 N 
ATOM      4  C   UNL     1       0.290  12.579  18.512  0.00  0.00    +0.000 C 
ATOM      5  C   UNL     1       1.360  11.620  19.039  0.00  0.00    +0.000 C 
ATOM      6  C   UNL     1       0.847  10.187  19.042  0.00  0.00    +0.000 C 
ATOM      7  C   UNL     1      -0.514  10.032  19.711  0.00  0.00    +0.000 C 
ATOM      8  C   UNL     1      -1.523  11.077  19.221  0.00  0.00    +0.000 C 
ATOM      9  C   UNL     1       1.186   9.313  17.855  0.00  0.00    +0.000 C 
ATOM     10  C   UNL     1       1.887   9.075  19.171  0.00  0.00    +0.000 C 
ENDROOT
BRANCH   1  11
ATOM     11  O   UNL     1      -2.474  13.118  20.838  0.00  0.00    +0.000 OA
BRANCH  11  13
ATOM     12  C   UNL     1      -2.446  14.683  22.746  0.00  0.00    +0.000 C 
ATOM     13  C   UNL     1      -2.397  13.219  22.288  0.00  0.00    +0.000 C 
ATOM     14  C   UNL     1      -1.168  12.473  22.831  0.00  0.00    +0.000 C 
ATOM     15  C   UNL     1      -3.651  12.517  22.841  0.00  0.00    +0.000 C 
ENDBRANCH  11  13
ENDBRANCH   1  11
BRANCH  10  16
ATOM     16  C   UNL     1       1.654   7.778  19.887  0.00  0.00    +0.000 C 
BRANCH  16  17
ATOM     17  N   UNL     1       2.874   7.009  19.951  0.00  0.00    +0.000 N 
ATOM     18  C   UNL     1       3.003   5.834  19.266  0.00  0.00    +0.000 C 
ATOM     19  O   UNL     1       2.133   5.371  18.541  0.00  0.00    +0.000 OA
ATOM     20  N   UNL     1       4.205   5.220  19.497  0.00  0.00    +0.000 N 
ATOM     21  H   UNL     1       3.594   7.295  20.596  0.00  0.00    +0.000 HD
ATOM     22  H   UNL     1       4.949   5.772  19.891  0.00  0.00    +0.000 HD
BRANCH  20  23
ATOM     23  C   UNL     1       4.556   4.001  18.801  0.00  0.00    +0.000 C 
BRANCH  23  24
ATOM     24  C   UNL     1       5.391   4.267  17.582  0.00  0.00    +0.000 A 
ATOM     25  C   UNL     1       4.857   4.165  16.294  0.00  0.00    +0.000 A 
ATOM     26  C   UNL     1       5.657   4.432  15.188  0.00  0.00    +0.000 A 
ATOM     27  C   UNL     1       6.973   4.803  15.407  0.00  0.00    +0.000 A 
ATOM     28  N   UNL     1       7.525   4.919  16.633  0.00  0.00    +0.000 NA
ATOM     29  C   UNL     1       6.723   4.650  17.689  0.00  0.00    +0.000 A 
ENDBRANCH  23  24
ENDBRANCH  20  23
ENDBRANCH  16  17
ENDBRANCH  10  16
TORSDOF 6
ENDMDL
MODEL 7
REMARK VINA RESULT:      -7.1      1.583      2.070
REMARK  Name = 
REMARK  9 active torsions:
REMARK  status: ('A' for Active; 'I' for Inactive)
REMARK    1  A    between atoms: C_1  and  C_2
REMARK    2  A    between atoms: C_2  and  C_3
REMARK    3  A    between atoms: C_2  and  C_4
REMARK    4  A    between atoms: C_2  and  O_5
REMARK    5  A    between atoms: O_5  and  C_6
REMARK    6  A    between atoms: C_15  and  C_16
REMARK    7  A    between atoms: C_16  and  N_17
REMARK    8  A    between atoms: N_20  and  C_21
REMARK    9  A    between atoms: C_21  and  C_22
REMARK                            x       y       z     vdW  Elec       q    Type
REMARK                         _______ _______ _______ _____ _____    ______ ____
ROOT
ATOM      1  C   UNL     1       3.108   3.350  18.027  0.00  0.00    +0.000 C 
ATOM      2  O   UNL     1       2.186   3.284  17.224  0.00  0.00    +0.000 OA
ATOM      3  N   UNL     1       4.381   3.743  17.661  0.00  0.00    +0.000 N 
ATOM      4  C   UNL     1       4.617   4.200  16.297  0.00  0.00    +0.000 C 
ATOM      5  C   UNL     1       4.942   5.696  16.296  0.00  0.00    +0.000 C 
ATOM      6  C   UNL     1       6.097   5.999  17.239  0.00  0.00    +0.000 C 
ATOM      7  C   UNL     1       5.917   5.401  18.630  0.00  0.00    +0.000 C 
ATOM      8  C   UNL     1       5.497   3.927  18.577  0.00  0.00    +0.000 C 
ATOM      9  C   UNL     1       7.488   6.081  16.649  0.00  0.00    +0.000 C 
ATOM     10  C   UNL     1       6.792   7.351  17.078  0.00  0.00    +0.000 C 
ENDROOT
BRANCH   1  11
ATOM     11  O   UNL     1       2.984   3.054  19.357  0.00  0.00    +0.000 OA
BRANCH  11  13
ATOM     12  C   UNL     1       0.595   3.393  19.875  0.00  0.00    +0.000 C 
ATOM     13  C   UNL     1       2.042   3.818  20.162  0.00  0.00    +0.000 C 
ATOM     14  C   UNL     1       2.259   5.329  19.986  0.00  0.00    +0.000 C 
ATOM     15  C   UNL     1       2.344   3.471  21.632  0.00  0.00    +0.000 C 
ENDBRANCH  11  13
ENDBRANCH   1  11
BRANCH  10  16
ATOM     16  C   UNL     1       7.373   8.143  18.211  0.00  0.00    +0.000 C 
BRANCH  16  17
ATOM     17  N   UNL     1       7.986   9.354  17.720  0.00  0.00    +0.000 N 
ATOM     18  C   UNL     1       8.928  10.015  18.457  0.00  0.00    +0.000 C 
ATOM     19  O   UNL     1       9.337   9.628  19.543  0.00  0.00    +0.000 OA
ATOM     20  N   UNL     1       9.349  11.171  17.856  0.00  0.00    +0.000 N 
ATOM     21  H   UNL     1       7.633   9.767  16.872  0.00  0.00    +0.000 HD
ATOM     22  H   UNL     1       9.163  11.287  16.874  0.00  0.00    +0.000 HD
BRANCH  20  23
ATOM     23  C   UNL     1      10.400  11.970  18.449  0.00  0.00    +0.000 C 
BRANCH  23  24
ATOM     24  C   UNL     1       9.865  12.955  19.448  0.00  0.00    +0.000 A 
ATOM     25  C   UNL     1       8.988  13.976  19.070  0.00  0.00    +0.000 A 
ATOM     26  C   UNL     1       8.502  14.863  20.025  0.00  0.00    +0.000 A 
ATOM     27  C   UNL     1       8.905  14.694  21.339  0.00  0.00    +0.000 A 
ATOM     28  N   UNL     1       9.744  13.718  21.747  0.00  0.00    +0.000 NA
ATOM     29  C   UNL     1      10.202  12.873  20.795  0.00  0.00    +0.000 A 
ENDBRANCH  23  24
ENDBRANCH  20  23
ENDBRANCH  16  17
ENDBRANCH  10  16
TORSDOF 6
ENDMDL
MODEL 8
REMARK VINA RESULT:      -7.1      1.201      1.584
REMARK  Name = 
REMARK  9 active torsions:
REMARK  status: ('A' for Active; 'I' for Inactive)
REMARK    1  A    between atoms: C_1  and  C_2
REMARK    2  A    between atoms: C_2  and  C_3
REMARK    3  A    between atoms: C_2  and  C_4
REMARK    4  A    between atoms: C_2  and  O_5
REMARK    5  A    between atoms: O_5  and  C_6
REMARK    6  A    between atoms: C_15  and  C_16
REMARK    7  A    between atoms: C_16  and  N_17
REMARK    8  A    between atoms: N_20  and  C_21
REMARK    9  A    between atoms: C_21  and  C_22
REMARK                            x       y       z     vdW  Elec       q    Type
REMARK                         _______ _______ _______ _____ _____    ______ ____
ROOT
ATOM      1  C   UNL     1       2.865   4.507  18.810  0.00  0.00    +0.000 C 
ATOM      2  O   UNL     1       1.825   4.727  18.201  0.00  0.00    +0.000 OA
ATOM      3  N   UNL     1       4.106   4.606  18.212  0.00  0.00    +0.000 N 
ATOM      4  C   UNL     1       4.197   5.092  16.841  0.00  0.00    +0.000 C 
ATOM      5  C   UNL     1       4.882   6.460  16.815  0.00  0.00    +0.000 C 
ATOM      6  C   UNL     1       6.229   6.403  17.521  0.00  0.00    +0.000 C 
ATOM      7  C   UNL     1       6.162   5.765  18.905  0.00  0.00    +0.000 C 
ATOM      8  C   UNL     1       5.381   4.445  18.897  0.00  0.00    +0.000 C 
ATOM      9  C   UNL     1       7.463   6.188  16.674  0.00  0.00    +0.000 C 
ATOM     10  C   UNL     1       7.202   7.553  17.263  0.00  0.00    +0.000 C 
ENDROOT
BRANCH   1  11
ATOM     11  O   UNL     1       2.915   4.153  20.131  0.00  0.00    +0.000 OA
BRANCH  11  13
ATOM     12  C   UNL     1       2.104   1.978  19.294  0.00  0.00    +0.000 C 
ATOM     13  C   UNL     1       2.597   2.783  20.504  0.00  0.00    +0.000 C 
ATOM     14  C   UNL     1       1.609   2.744  21.680  0.00  0.00    +0.000 C 
ATOM     15  C   UNL     1       3.916   2.145  20.980  0.00  0.00    +0.000 C 
ENDBRANCH  11  13
ENDBRANCH   1  11
BRANCH  10  16
ATOM     16  C   UNL     1       8.161   8.094  18.281  0.00  0.00    +0.000 C 
BRANCH  16  17
ATOM     17  N   UNL     1       8.742   9.333  17.821  0.00  0.00    +0.000 N 
ATOM     18  C   UNL     1       9.115  10.307  18.704  0.00  0.00    +0.000 C 
ATOM     19  O   UNL     1       9.020  10.196  19.919  0.00  0.00    +0.000 OA
ATOM     20  N   UNL     1       9.589  11.429  18.079  0.00  0.00    +0.000 N 
ATOM     21  H   UNL     1       8.770   9.518  16.831  0.00  0.00    +0.000 HD
ATOM     22  H   UNL     1       9.871  11.351  17.116  0.00  0.00    +0.000 HD
BRANCH  20  23
ATOM     23  C   UNL     1      10.104  12.541  18.851  0.00  0.00    +0.000 C 
BRANCH  23  24
ATOM     24  C   UNL     1       9.261  13.773  18.697  0.00  0.00    +0.000 A 
ATOM     25  C   UNL     1       8.062  13.753  17.978  0.00  0.00    +0.000 A 
ATOM     26  C   UNL     1       7.300  14.912  17.867  0.00  0.00    +0.000 A 
ATOM     27  C   UNL     1       7.761  16.060  18.490  0.00  0.00    +0.000 A 
ATOM     28  N   UNL     1       8.908  16.120  19.199  0.00  0.00    +0.000 NA
ATOM     29  C   UNL     1       9.628  14.978  19.286  0.00  0.00    +0.000 A 
ENDBRANCH  23  24
ENDBRANCH  20  23
ENDBRANCH  16  17
ENDBRANCH  10  16
TORSDOF 6
ENDMDL
MODEL 9
REMARK VINA RESULT:      -6.9      1.639      2.262
REMARK  Name = 
REMARK  9 active torsions:
REMARK  status: ('A' for Active; 'I' for Inactive)
REMARK    1  A    between atoms: C_1  and  C_2
REMARK    2  A    between atoms: C_2  and  C_3
REMARK    3  A    between atoms: C_2  and  C_4
REMARK    4  A    between atoms: C_2  and  O_5
REMARK    5  A    between atoms: O_5  and  C_6
REMARK    6  A    between atoms: C_15  and  C_16
REMARK    7  A    between atoms: C_16  and  N_17
REMARK    8  A    between atoms: N_20  and  C_21
REMARK    9  A    between atoms: C_21  and  C_22
REMARK                            x       y       z     vdW  Elec       q    Type
REMARK                         _______ _______ _______ _____ _____    ______ ____
ROOT
ATOM      1  C   UNL     1       2.281   3.485  17.939  0.00  0.00    +0.000 C 
ATOM      2  O   UNL     1       1.356   4.070  17.389  0.00  0.00    +0.000 OA
ATOM      3  N   UNL     1       3.576   3.536  17.459  0.00  0.00    +0.000 N 
ATOM      4  C   UNL     1       3.879   4.401  16.325  0.00  0.00    +0.000 C 
ATOM      5  C   UNL     1       4.773   5.559  16.774  0.00  0.00    +0.000 C 
ATOM      6  C   UNL     1       6.016   5.039  17.481  0.00  0.00    +0.000 C 
ATOM      7  C   UNL     1       5.711   4.025  18.579  0.00  0.00    +0.000 C 
ATOM      8  C   UNL     1       4.734   2.940  18.109  0.00  0.00    +0.000 C 
ATOM      9  C   UNL     1       7.279   4.877  16.664  0.00  0.00    +0.000 C 
ATOM     10  C   UNL     1       7.181   6.014  17.652  0.00  0.00    +0.000 C 
ENDROOT
BRANCH   1  11
ATOM     11  O   UNL     1       2.143   2.734  19.074  0.00  0.00    +0.000 OA
BRANCH  11  13
ATOM     12  C   UNL     1       2.284   2.546  21.530  0.00  0.00    +0.000 C 
ATOM     13  C   UNL     1       1.861   3.408  20.333  0.00  0.00    +0.000 C 
ATOM     14  C   UNL     1       0.390   3.844  20.411  0.00  0.00    +0.000 C 
ATOM     15  C   UNL     1       2.727   4.681  20.349  0.00  0.00    +0.000 C 
ENDBRANCH  11  13
ENDBRANCH   1  11
BRANCH  10  16
ATOM     16  C   UNL     1       8.108   6.026  18.831  0.00  0.00    +0.000 C 
BRANCH  16  17
ATOM     17  N   UNL     1       8.519   7.375  19.137  0.00  0.00    +0.000 N 
ATOM     18  C   UNL     1       8.335   8.389  18.240  0.00  0.00    +0.000 C 
ATOM     19  O   UNL     1       7.793   8.244  17.153  0.00  0.00    +0.000 OA
ATOM     20  N   UNL     1       8.841   9.581  18.683  0.00  0.00    +0.000 N 
ATOM     21  H   UNL     1       9.045   7.542  19.981  0.00  0.00    +0.000 HD
ATOM     22  H   UNL     1       9.036   9.676  19.666  0.00  0.00    +0.000 HD
BRANCH  20  23
ATOM     23  C   UNL     1       8.674  10.789  17.903  0.00  0.00    +0.000 C 
BRANCH  23  24
ATOM     24  C   UNL     1       9.771  11.782  18.157  0.00  0.00    +0.000 A 
ATOM     25  C   UNL     1      10.847  11.482  18.997  0.00  0.00    +0.000 A 
ATOM     26  C   UNL     1      11.853  12.422  19.199  0.00  0.00    +0.000 A 
ATOM     27  C   UNL     1      11.753  13.637  18.542  0.00  0.00    +0.000 A 
ATOM     28  N   UNL     1      10.735  13.963  17.718  0.00  0.00    +0.000 NA
ATOM     29  C   UNL     1       9.772  13.030  17.544  0.00  0.00    +0.000 A 
ENDBRANCH  23  24
ENDBRANCH  20  23
ENDBRANCH  16  17
ENDBRANCH  10  16
TORSDOF 6
ENDMDL
