MODEL 1
REMARK VINA RESULT:      -7.9      0.000      0.000
REMARK  Name = 
REMARK  9 active torsions:
REMARK  status: ('A' for Active; 'I' for Inactive)
REMARK    1  A    between atoms: C_1  and  O_2
REMARK    2  A    between atoms: O_2  and  C_3
REMARK    3  A    between atoms: C_5  and  C_6
REMARK    4  A    between atoms: C_7  and  C_8
REMARK    5  A    between atoms: C_13  and  C_14
REMARK    6  A    between atoms: C_14  and  N_15
REMARK    7  A    between atoms: C_18  and  C_19
REMARK    8  A    between atoms: C_33  and  O_34
REMARK    9  A    between atoms: O_34  and  C_35
REMARK                            x       y       z     vdW  Elec       q    Type
REMARK                         _______ _______ _______ _____ _____    ______ ____
ROOT
ATOM      1  C   UNL     1       1.671   9.158  18.448  0.00  0.00    +0.000 C 
ATOM      2  O   UNL     1       1.914   9.570  17.313  0.00  0.00    +0.000 OA
ATOM      3  N   UNL     1       0.803   9.791  19.327  0.00  0.00    +0.000 N 
ATOM      4  C   UNL     1       0.026  10.915  18.815  0.00  0.00    +0.000 C 
ATOM      5  C   UNL     1       0.426  12.185  19.553  0.00  0.00    +0.000 C 
ATOM      6  C   UNL     1       0.184  12.056  21.072  0.00  0.00    +0.000 C 
ATOM      7  C   UNL     1       0.988  10.843  21.578  0.00  0.00    +0.000 C 
ATOM      8  C   UNL     1       0.712   9.563  20.777  0.00  0.00    +0.000 C 
ENDROOT
BRANCH   1  10
ATOM      9  C   UNL     1       2.550   6.913  18.053  0.00  0.00    +0.000 C 
ATOM     10  C   UNL     1       2.277   7.896  18.925  0.00  0.00    +0.000 C 
BRANCH   9  13
ATOM     11  C   UNL     1       5.118   4.314  18.946  0.00  0.00    +0.000 A 
ATOM     12  C   UNL     1       4.524   5.506  18.527  0.00  0.00    +0.000 A 
ATOM     13  C   UNL     1       3.133   5.627  18.448  0.00  0.00    +0.000 A 
ATOM     14  C   UNL     1       2.344   4.532  18.813  0.00  0.00    +0.000 A 
ATOM     15  C   UNL     1       2.924   3.333  19.233  0.00  0.00    +0.000 A 
ATOM     16  C   UNL     1       4.314   3.223  19.291  0.00  0.00    +0.000 A 
BRANCH  11  18
ATOM     17  C   UNL     1       7.099   5.628  19.098  0.00  0.00    +0.000 C 
ATOM     18  O   UNL     1       6.486   4.351  18.988  0.00  0.00    +0.000 OA
ENDBRANCH  11  18
BRANCH  15  19
ATOM     19  O   UNL     1       2.021   2.360  19.564  0.00  0.00    +0.000 OA
ATOM     20  C   UNL     1       0.823   2.302  18.802  0.00  0.00    +0.000 C 
ENDBRANCH  15  19
ENDBRANCH   9  13
ENDBRANCH   1  10
BRANCH   6  21
ATOM     21  C   UNL     1      -1.330  11.975  21.421  0.00  0.00    +0.000 C 
BRANCH  21  22
ATOM     22  N   UNL     1      -1.721  12.461  22.768  0.00  0.00    +0.000 NA
ATOM     23  C   UNL     1      -1.386  13.880  22.945  0.00  0.00    +0.000 C 
ATOM     24  C   UNL     1      -1.790  14.379  24.322  0.00  0.00    +0.000 C 
ATOM     25  C   UNL     1      -3.290  14.239  24.574  0.00  0.00    +0.000 C 
ATOM     26  C   UNL     1      -3.741  12.815  24.267  0.00  0.00    +0.000 C 
ATOM     27  C   UNL     1      -3.171  12.232  22.972  0.00  0.00    +0.000 C 
BRANCH  25  28
ATOM     28  C   UNL     1      -4.152  15.455  24.222  0.00  0.00    +0.000 A 
ATOM     29  C   UNL     1      -3.954  16.626  24.955  0.00  0.00    +0.000 A 
ATOM     30  N   UNL     1      -5.188  17.223  24.995  0.00  0.00    +0.000 N 
ATOM     31  C   UNL     1      -5.629  17.127  23.705  0.00  0.00    +0.000 A 
ATOM     32  C   UNL     1      -6.512  17.997  23.027  0.00  0.00    +0.000 A 
ATOM     33  C   UNL     1      -6.819  17.662  21.718  0.00  0.00    +0.000 A 
ATOM     34  C   UNL     1      -6.357  16.460  21.167  0.00  0.00    +0.000 A 
ATOM     35  C   UNL     1      -5.522  15.576  21.905  0.00  0.00    +0.000 A 
ATOM     36  C   UNL     1      -5.080  15.927  23.185  0.00  0.00    +0.000 A 
ATOM     37  H   UNL     1      -5.837  17.036  25.742  0.00  0.00    +0.000 HD
ENDBRANCH  25  28
ENDBRANCH  21  22
ENDBRANCH   6  21
TORSDOF 7
ENDMDL
MODEL 2
REMARK VINA RESULT:      -7.9      4.832      8.969
REMARK  Name = 
REMARK  9 active torsions:
REMARK  status: ('A' for Active; 'I' for Inactive)
REMARK    1  A    between atoms: C_1  and  O_2
REMARK    2  A    between atoms: O_2  and  C_3
REMARK    3  A    between atoms: C_5  and  C_6
REMARK    4  A    between atoms: C_7  and  C_8
REMARK    5  A    between atoms: C_13  and  C_14
REMARK    6  A    between atoms: C_14  and  N_15
REMARK    7  A    between atoms: C_18  and  C_19
REMARK    8  A    between atoms: C_33  and  O_34
REMARK    9  A    between atoms: O_34  and  C_35
REMARK                            x       y       z     vdW  Elec       q    Type
REMARK                         _______ _______ _______ _____ _____    ______ ____
ROOT
ATOM      1  C   UNL     1       0.465  10.262  18.158  0.00  0.00    +0.000 C 
ATOM      2  O   UNL     1      -0.740  10.059  18.007  0.00  0.00    +0.000 OA
ATOM      3  N   UNL     1       0.984  11.406  18.749  0.00  0.00    +0.000 N 
ATOM      4  C   UNL     1       0.041  12.337  19.360  0.00  0.00    +0.000 C 
ATOM      5  C   UNL     1       0.089  13.666  18.619  0.00  0.00    +0.000 C 
ATOM      6  C   UNL     1       1.503  14.284  18.657  0.00  0.00    +0.000 C 
ATOM      7  C   UNL     1       2.481  13.266  18.039  0.00  0.00    +0.000 C 
ATOM      8  C   UNL     1       2.377  11.872  18.670  0.00  0.00    +0.000 C 
ENDROOT
BRANCH   1  10
ATOM      9  C   UNL     1       1.674   8.172  18.527  0.00  0.00    +0.000 C 
ATOM     10  C   UNL     1       1.448   9.238  17.744  0.00  0.00    +0.000 C 
BRANCH   9  13
ATOM     11  C   UNL     1       3.241   4.766  18.223  0.00  0.00    +0.000 A 
ATOM     12  C   UNL     1       2.367   5.802  18.560  0.00  0.00    +0.000 A 
ATOM     13  C   UNL     1       2.645   7.123  18.198  0.00  0.00    +0.000 A 
ATOM     14  C   UNL     1       3.812   7.389  17.476  0.00  0.00    +0.000 A 
ATOM     15  C   UNL     1       4.696   6.364  17.132  0.00  0.00    +0.000 A 
ATOM     16  C   UNL     1       4.413   5.052  17.514  0.00  0.00    +0.000 A 
BRANCH  11  18
ATOM     17  C   UNL     1       1.489   3.156  18.330  0.00  0.00    +0.000 C 
ATOM     18  O   UNL     1       2.828   3.527  18.629  0.00  0.00    +0.000 OA
ENDBRANCH  11  18
BRANCH  15  19
ATOM     19  O   UNL     1       5.787   6.781  16.419  0.00  0.00    +0.000 OA
ATOM     20  C   UNL     1       7.049   6.249  16.796  0.00  0.00    +0.000 C 
ENDBRANCH  15  19
ENDBRANCH   9  13
ENDBRANCH   1  10
BRANCH   6  21
ATOM     21  C   UNL     1       1.910  14.730  20.091  0.00  0.00    +0.000 C 
BRANCH  21  22
ATOM     22  N   UNL     1       3.171  15.504  20.205  0.00  0.00    +0.000 NA
ATOM     23  C   UNL     1       4.218  14.729  20.883  0.00  0.00    +0.000 C 
ATOM     24  C   UNL     1       5.510  15.520  20.996  0.00  0.00    +0.000 C 
ATOM     25  C   UNL     1       6.066  15.924  19.631  0.00  0.00    +0.000 C 
ATOM     26  C   UNL     1       4.981  16.611  18.808  0.00  0.00    +0.000 C 
ATOM     27  C   UNL     1       3.616  15.922  18.854  0.00  0.00    +0.000 C 
BRANCH  25  28
ATOM     28  C   UNL     1       7.075  14.960  19.000  0.00  0.00    +0.000 A 
ATOM     29  C   UNL     1       7.210  14.979  17.611  0.00  0.00    +0.000 A 
ATOM     30  N   UNL     1       7.526  13.687  17.276  0.00  0.00    +0.000 N 
ATOM     31  C   UNL     1       8.483  13.347  18.189  0.00  0.00    +0.000 A 
ATOM     32  C   UNL     1       9.540  12.422  18.030  0.00  0.00    +0.000 A 
ATOM     33  C   UNL     1      10.369  12.243  19.125  0.00  0.00    +0.000 A 
ATOM     34  C   UNL     1      10.080  12.869  20.343  0.00  0.00    +0.000 A 
ATOM     35  C   UNL     1       8.966  13.744  20.483  0.00  0.00    +0.000 A 
ATOM     36  C   UNL     1       8.172  14.058  19.376  0.00  0.00    +0.000 A 
ATOM     37  H   UNL     1       6.811  13.014  17.053  0.00  0.00    +0.000 HD
ENDBRANCH  25  28
ENDBRANCH  21  22
ENDBRANCH   6  21
TORSDOF 7
ENDMDL
MODEL 3
REMARK VINA RESULT:      -7.8      2.887      4.707
REMARK  Name = 
REMARK  9 active torsions:
REMARK  status: ('A' for Active; 'I' for Inactive)
REMARK    1  A    between atoms: C_1  and  O_2
REMARK    2  A    between atoms: O_2  and  C_3
REMARK    3  A    between atoms: C_5  and  C_6
REMARK    4  A    between atoms: C_7  and  C_8
REMARK    5  A    between atoms: C_13  and  C_14
REMARK    6  A    between atoms: C_14  and  N_15
REMARK    7  A    between atoms: C_18  and  C_19
REMARK    8  A    between atoms: C_33  and  O_34
REMARK    9  A    between atoms: O_34  and  C_35
REMARK                            x       y       z     vdW  Elec       q    Type
REMARK                         _______ _______ _______ _____ _____    ______ ____
ROOT
ATOM      1  C   UNL     1       1.752   9.272  18.152  0.00  0.00    +0.000 C 
ATOM      2  O   UNL     1       2.253   9.998  17.293  0.00  0.00    +0.000 OA
ATOM      3  N   UNL     1       0.907   9.733  19.151  0.00  0.00    +0.000 N 
ATOM      4  C   UNL     1       0.473  11.125  19.080  0.00  0.00    +0.000 C 
ATOM      5  C   UNL     1       1.006  11.885  20.286  0.00  0.00    +0.000 C 
ATOM      6  C   UNL     1       0.505  11.269  21.609  0.00  0.00    +0.000 C 
ATOM      7  C   UNL     1       0.946   9.794  21.642  0.00  0.00    +0.000 C 
ATOM      8  C   UNL     1       0.541   9.016  20.382  0.00  0.00    +0.000 C 
ENDROOT
BRANCH   1  10
ATOM      9  C   UNL     1       3.222   7.347  17.836  0.00  0.00    +0.000 C 
ATOM     10  C   UNL     1       1.998   7.814  18.127  0.00  0.00    +0.000 C 
BRANCH   9  13
ATOM     11  C   UNL     1       3.051   3.646  18.487  0.00  0.00    +0.000 A 
ATOM     12  C   UNL     1       2.810   5.021  18.555  0.00  0.00    +0.000 A 
ATOM     13  C   UNL     1       3.543   5.917  17.772  0.00  0.00    +0.000 A 
ATOM     14  C   UNL     1       4.516   5.411  16.904  0.00  0.00    +0.000 A 
ATOM     15  C   UNL     1       4.768   4.039  16.827  0.00  0.00    +0.000 A 
ATOM     16  C   UNL     1       4.039   3.157  17.626  0.00  0.00    +0.000 A 
BRANCH  11  18
ATOM     17  C   UNL     1       0.958   2.554  18.803  0.00  0.00    +0.000 C 
ATOM     18  O   UNL     1       2.245   2.894  19.298  0.00  0.00    +0.000 OA
ENDBRANCH  11  18
BRANCH  15  19
ATOM     19  O   UNL     1       5.741   3.699  15.927  0.00  0.00    +0.000 OA
ATOM     20  C   UNL     1       5.742   4.388  14.684  0.00  0.00    +0.000 C 
ENDBRANCH  15  19
ENDBRANCH   9  13
ENDBRANCH   1  10
BRANCH   6  21
ATOM     21  C   UNL     1      -1.029  11.452  21.798  0.00  0.00    +0.000 C 
BRANCH  21  22
ATOM     22  N   UNL     1      -1.505  12.844  21.998  0.00  0.00    +0.000 NA
ATOM     23  C   UNL     1      -0.385  13.768  22.222  0.00  0.00    +0.000 C 
ATOM     24  C   UNL     1      -0.871  15.193  22.423  0.00  0.00    +0.000 C 
ATOM     25  C   UNL     1      -1.649  15.717  21.217  0.00  0.00    +0.000 C 
ATOM     26  C   UNL     1      -2.745  14.730  20.833  0.00  0.00    +0.000 C 
ATOM     27  C   UNL     1      -2.307  13.263  20.825  0.00  0.00    +0.000 C 
BRANCH  25  28
ATOM     28  C   UNL     1      -0.834  16.473  20.164  0.00  0.00    +0.000 A 
ATOM     29  C   UNL     1      -1.149  17.814  19.937  0.00  0.00    +0.000 A 
ATOM     30  N   UNL     1      -0.874  18.015  18.609  0.00  0.00    +0.000 N 
ATOM     31  C   UNL     1       0.344  17.419  18.443  0.00  0.00    +0.000 A 
ATOM     32  C   UNL     1       1.352  17.757  17.512  0.00  0.00    +0.000 A 
ATOM     33  C   UNL     1       2.497  16.977  17.535  0.00  0.00    +0.000 A 
ATOM     34  C   UNL     1       2.570  15.852  18.366  0.00  0.00    +0.000 A 
ATOM     35  C   UNL     1       1.506  15.505  19.244  0.00  0.00    +0.000 A 
ATOM     36  C   UNL     1       0.382  16.330  19.351  0.00  0.00    +0.000 A 
ATOM     37  H   UNL     1      -1.578  17.879  17.902  0.00  0.00    +0.000 HD
ENDBRANCH  25  28
ENDBRANCH  21  22
ENDBRANCH   6  21
TORSDOF 7
ENDMDL
MODEL 4
REMARK VINA RESULT:      -7.8      2.851      4.241
REMARK  Name = 
REMARK  9 active torsions:
REMARK  status: ('A' for Active; 'I' for Inactive)
REMARK    1  A    between atoms: C_1  and  O_2
REMARK    2  A    between atoms: O_2  and  C_3
REMARK    3  A    between atoms: C_5  and  C_6
REMARK    4  A    between atoms: C_7  and  C_8
REMARK    5  A    between atoms: C_13  and  C_14
REMARK    6  A    between atoms: C_14  and  N_15
REMARK    7  A    between atoms: C_18  and  C_19
REMARK    8  A    between atoms: C_33  and  O_34
REMARK    9  A    between atoms: O_34  and  C_35
REMARK                            x       y       z     vdW  Elec       q    Type
REMARK                         _______ _______ _______ _____ _____    ______ ____
ROOT
ATOM      1  C   UNL     1       1.769   6.502  20.279  0.00  0.00    +0.000 C 
ATOM      2  O   UNL     1       1.156   5.542  20.746  0.00  0.00    +0.000 OA
ATOM      3  N   UNL     1       1.507   7.822  20.621  0.00  0.00    +0.000 N 
ATOM      4  C   UNL     1       0.560   8.063  21.705  0.00  0.00    +0.000 C 
ATOM      5  C   UNL     1      -0.656   8.801  21.161  0.00  0.00    +0.000 C 
ATOM      6  C   UNL     1      -0.261  10.151  20.528  0.00  0.00    +0.000 C 
ATOM      7  C   UNL     1       0.763   9.870  19.412  0.00  0.00    +0.000 C 
ATOM      8  C   UNL     1       1.948   9.016  19.885  0.00  0.00    +0.000 C 
ENDROOT
BRANCH   1  10
ATOM      9  C   UNL     1       3.510   5.095  19.303  0.00  0.00    +0.000 C 
ATOM     10  C   UNL     1       2.886   6.282  19.335  0.00  0.00    +0.000 C 
BRANCH   9  13
ATOM     11  C   UNL     1       5.427   4.253  16.177  0.00  0.00    +0.000 A 
ATOM     12  C   UNL     1       4.381   4.490  17.072  0.00  0.00    +0.000 A 
ATOM     13  C   UNL     1       4.637   4.803  18.410  0.00  0.00    +0.000 A 
ATOM     14  C   UNL     1       5.966   4.891  18.836  0.00  0.00    +0.000 A 
ATOM     15  C   UNL     1       7.022   4.656  17.953  0.00  0.00    +0.000 A 
ATOM     16  C   UNL     1       6.750   4.329  16.623  0.00  0.00    +0.000 A 
BRANCH  11  18
ATOM     17  C   UNL     1       5.908   4.327  13.846  0.00  0.00    +0.000 C 
ATOM     18  O   UNL     1       5.023   3.975  14.900  0.00  0.00    +0.000 OA
ENDBRANCH  11  18
BRANCH  15  19
ATOM     19  O   UNL     1       8.262   4.789  18.516  0.00  0.00    +0.000 OA
ATOM     20  C   UNL     1       8.329   5.395  19.799  0.00  0.00    +0.000 C 
ENDBRANCH  15  19
ENDBRANCH   9  13
ENDBRANCH   1  10
BRANCH   6  21
ATOM     21  C   UNL     1       0.253  11.169  21.587  0.00  0.00    +0.000 C 
BRANCH  21  22
ATOM     22  N   UNL     1      -0.730  12.173  22.065  0.00  0.00    +0.000 NA
ATOM     23  C   UNL     1      -1.421  12.823  20.944  0.00  0.00    +0.000 C 
ATOM     24  C   UNL     1      -2.430  13.848  21.433  0.00  0.00    +0.000 C 
ATOM     25  C   UNL     1      -3.506  13.227  22.322  0.00  0.00    +0.000 C 
ATOM     26  C   UNL     1      -2.857  12.409  23.433  0.00  0.00    +0.000 C 
ATOM     27  C   UNL     1      -1.700  11.518  22.974  0.00  0.00    +0.000 C 
BRANCH  25  28
ATOM     28  C   UNL     1      -4.784  12.765  21.615  0.00  0.00    +0.000 A 
ATOM     29  C   UNL     1      -5.985  12.851  22.321  0.00  0.00    +0.000 A 
ATOM     30  N   UNL     1      -6.737  11.804  21.854  0.00  0.00    +0.000 N 
ATOM     31  C   UNL     1      -6.575  11.875  20.499  0.00  0.00    +0.000 A 
ATOM     32  C   UNL     1      -7.481  11.463  19.497  0.00  0.00    +0.000 A 
ATOM     33  C   UNL     1      -7.064  11.627  18.186  0.00  0.00    +0.000 A 
ATOM     34  C   UNL     1      -5.765  12.069  17.906  0.00  0.00    +0.000 A 
ATOM     35  C   UNL     1      -4.856  12.412  18.945  0.00  0.00    +0.000 A 
ATOM     36  C   UNL     1      -5.269  12.386  20.281  0.00  0.00    +0.000 A 
ATOM     37  H   UNL     1      -6.708  10.899  22.296  0.00  0.00    +0.000 HD
ENDBRANCH  25  28
ENDBRANCH  21  22
ENDBRANCH   6  21
TORSDOF 7
ENDMDL
MODEL 5
REMARK VINA RESULT:      -7.7      4.861      8.799
REMARK  Name = 
REMARK  9 active torsions:
REMARK  status: ('A' for Active; 'I' for Inactive)
REMARK    1  A    between atoms: C_1  and  O_2
REMARK    2  A    between atoms: O_2  and  C_3
REMARK    3  A    between atoms: C_5  and  C_6
REMARK    4  A    between atoms: C_7  and  C_8
REMARK    5  A    between atoms: C_13  and  C_14
REMARK    6  A    between atoms: C_14  and  N_15
REMARK    7  A    between atoms: C_18  and  C_19
REMARK    8  A    between atoms: C_33  and  O_34
REMARK    9  A    between atoms: O_34  and  C_35
REMARK                            x       y       z     vdW  Elec       q    Type
REMARK                         _______ _______ _______ _____ _____    ______ ____
ROOT
ATOM      1  C   UNL     1       0.727  10.451  18.265  0.00  0.00    +0.000 C 
ATOM      2  O   UNL     1      -0.469  10.205  18.107  0.00  0.00    +0.000 OA
ATOM      3  N   UNL     1       1.204  11.623  18.836  0.00  0.00    +0.000 N 
ATOM      4  C   UNL     1       0.225  12.536  19.417  0.00  0.00    +0.000 C 
ATOM      5  C   UNL     1       0.238  13.850  18.648  0.00  0.00    +0.000 C 
ATOM      6  C   UNL     1       1.631  14.513  18.686  0.00  0.00    +0.000 C 
ATOM      7  C   UNL     1       2.647  13.515  18.099  0.00  0.00    +0.000 C 
ATOM      8  C   UNL     1       2.581  12.132  18.760  0.00  0.00    +0.000 C 
ENDROOT
BRANCH   1  10
ATOM      9  C   UNL     1       1.621   8.178  18.290  0.00  0.00    +0.000 C 
ATOM     10  C   UNL     1       1.747   9.450  17.883  0.00  0.00    +0.000 C 
BRANCH   9  13
ATOM     11  C   UNL     1       4.788   6.532  17.101  0.00  0.00    +0.000 A 
ATOM     12  C   UNL     1       3.811   7.491  17.378  0.00  0.00    +0.000 A 
ATOM     13  C   UNL     1       2.597   7.130  17.970  0.00  0.00    +0.000 A 
ATOM     14  C   UNL     1       2.383   5.788  18.296  0.00  0.00    +0.000 A 
ATOM     15  C   UNL     1       3.350   4.818  18.025  0.00  0.00    +0.000 A 
ATOM     16  C   UNL     1       4.551   5.190  17.420  0.00  0.00    +0.000 A 
BRANCH  11  18
ATOM     17  C   UNL     1       7.057   7.199  17.385  0.00  0.00    +0.000 C 
ATOM     18  O   UNL     1       5.928   7.036  16.537  0.00  0.00    +0.000 OA
ENDBRANCH  11  18
BRANCH  15  19
ATOM     19  O   UNL     1       2.997   3.553  18.411  0.00  0.00    +0.000 OA
ATOM     20  C   UNL     1       4.005   2.757  19.019  0.00  0.00    +0.000 C 
ENDBRANCH  15  19
ENDBRANCH   9  13
ENDBRANCH   1  10
BRANCH   6  21
ATOM     21  C   UNL     1       2.009  15.003  20.113  0.00  0.00    +0.000 C 
BRANCH  21  22
ATOM     22  N   UNL     1       3.303  15.719  20.241  0.00  0.00    +0.000 NA
ATOM     23  C   UNL     1       4.314  14.888  20.908  0.00  0.00    +0.000 C 
ATOM     24  C   UNL     1       5.639  15.619  21.035  0.00  0.00    +0.000 C 
ATOM     25  C   UNL     1       6.214  16.020  19.677  0.00  0.00    +0.000 C 
ATOM     26  C   UNL     1       5.163  16.767  18.864  0.00  0.00    +0.000 C 
ATOM     27  C   UNL     1       3.768  16.138  18.898  0.00  0.00    +0.000 C 
BRANCH  25  28
ATOM     28  C   UNL     1       7.181  15.023  19.031  0.00  0.00    +0.000 A 
ATOM     29  C   UNL     1       7.343  15.078  17.646  0.00  0.00    +0.000 A 
ATOM     30  N   UNL     1       7.594  13.783  17.274  0.00  0.00    +0.000 N 
ATOM     31  C   UNL     1       8.515  13.361  18.192  0.00  0.00    +0.000 A 
ATOM     32  C   UNL     1       9.522  12.386  18.020  0.00  0.00    +0.000 A 
ATOM     33  C   UNL     1      10.320  12.126  19.123  0.00  0.00    +0.000 A 
ATOM     34  C   UNL     1      10.043  12.729  20.356  0.00  0.00    +0.000 A 
ATOM     35  C   UNL     1       8.976  13.659  20.506  0.00  0.00    +0.000 A 
ATOM     36  C   UNL     1       8.221  14.051  19.396  0.00  0.00    +0.000 A 
ATOM     37  H   UNL     1       6.848  13.157  17.018  0.00  0.00    +0.000 HD
ENDBRANCH  25  28
ENDBRANCH  21  22
ENDBRANCH   6  21
TORSDOF 7
ENDMDL
MODEL 6
REMARK VINA RESULT:      -7.7      2.990      4.337
REMARK  Name = 
REMARK  9 active torsions:
REMARK  status: ('A' for Active; 'I' for Inactive)
REMARK    1  A    between atoms: C_1  and  O_2
REMARK    2  A    between atoms: O_2  and  C_3
REMARK    3  A    between atoms: C_5  and  C_6
REMARK    4  A    between atoms: C_7  and  C_8
REMARK    5  A    between atoms: C_13  and  C_14
REMARK    6  A    between atoms: C_14  and  N_15
REMARK    7  A    between atoms: C_18  and  C_19
REMARK    8  A    between atoms: C_33  and  O_34
REMARK    9  A    between atoms: O_34  and  C_35
REMARK                            x       y       z     vdW  Elec       q    Type
REMARK                         _______ _______ _______ _____ _____    ______ ____
ROOT
ATOM      1  C   UNL     1       1.683   9.615  18.112  0.00  0.00    +0.000 C 
ATOM      2  O   UNL     1       2.269  10.359  17.325  0.00  0.00    +0.000 OA
ATOM      3  N   UNL     1       0.806  10.067  19.089  0.00  0.00    +0.000 N 
ATOM      4  C   UNL     1       0.448  11.481  19.073  0.00  0.00    +0.000 C 
ATOM      5  C   UNL     1       0.948  12.146  20.348  0.00  0.00    +0.000 C 
ATOM      6  C   UNL     1       0.341  11.487  21.604  0.00  0.00    +0.000 C 
ATOM      7  C   UNL     1       0.706   9.991  21.577  0.00  0.00    +0.000 C 
ATOM      8  C   UNL     1       0.335   9.305  20.255  0.00  0.00    +0.000 C 
ENDROOT
BRANCH   1  10
ATOM      9  C   UNL     1       3.082   7.631  17.844  0.00  0.00    +0.000 C 
ATOM     10  C   UNL     1       1.857   8.150  18.018  0.00  0.00    +0.000 C 
BRANCH   9  13
ATOM     11  C   UNL     1       4.883   4.396  17.177  0.00  0.00    +0.000 A 
ATOM     12  C   UNL     1       4.582   5.758  17.262  0.00  0.00    +0.000 A 
ATOM     13  C   UNL     1       3.336   6.191  17.722  0.00  0.00    +0.000 A 
ATOM     14  C   UNL     1       2.395   5.233  18.112  0.00  0.00    +0.000 A 
ATOM     15  C   UNL     1       2.681   3.869  18.032  0.00  0.00    +0.000 A 
ATOM     16  C   UNL     1       3.924   3.451  17.556  0.00  0.00    +0.000 A 
BRANCH  11  18
ATOM     17  C   UNL     1       6.903   5.215  16.217  0.00  0.00    +0.000 C 
ATOM     18  O   UNL     1       6.146   4.126  16.726  0.00  0.00    +0.000 OA
ENDBRANCH  11  18
BRANCH  15  19
ATOM     19  O   UNL     1       1.664   3.058  18.458  0.00  0.00    +0.000 OA
ATOM     20  C   UNL     1       1.023   3.410  19.676  0.00  0.00    +0.000 C 
ENDBRANCH  15  19
ENDBRANCH   9  13
ENDBRANCH   1  10
BRANCH   6  21
ATOM     21  C   UNL     1      -1.190  11.742  21.719  0.00  0.00    +0.000 C 
BRANCH  21  22
ATOM     22  N   UNL     1      -1.609  13.154  21.897  0.00  0.00    +0.000 NA
ATOM     23  C   UNL     1      -0.450  14.050  22.004  0.00  0.00    +0.000 C 
ATOM     24  C   UNL     1      -0.879  15.496  22.183  0.00  0.00    +0.000 C 
ATOM     25  C   UNL     1      -1.726  15.999  21.015  0.00  0.00    +0.000 C 
ATOM     26  C   UNL     1      -2.876  15.034  20.750  0.00  0.00    +0.000 C 
ATOM     27  C   UNL     1      -2.482  13.555  20.768  0.00  0.00    +0.000 C 
BRANCH  25  28
ATOM     28  C   UNL     1      -0.968  16.690  19.878  0.00  0.00    +0.000 A 
ATOM     29  C   UNL     1      -1.441  17.926  19.438  0.00  0.00    +0.000 A 
ATOM     30  N   UNL     1      -1.135  17.960  18.102  0.00  0.00    +0.000 N 
ATOM     31  C   UNL     1       0.155  17.513  18.060  0.00  0.00    +0.000 A 
ATOM     32  C   UNL     1       1.152  17.837  17.113  0.00  0.00    +0.000 A 
ATOM     33  C   UNL     1       2.385  17.229  17.286  0.00  0.00    +0.000 A 
ATOM     34  C   UNL     1       2.565  16.262  18.282  0.00  0.00    +0.000 A 
ATOM     35  C   UNL     1       1.515  15.913  19.178  0.00  0.00    +0.000 A 
ATOM     36  C   UNL     1       0.291  16.588  19.127  0.00  0.00    +0.000 A 
ATOM     37  H   UNL     1      -1.783  17.626  17.407  0.00  0.00    +0.000 HD
ENDBRANCH  25  28
ENDBRANCH  21  22
ENDBRANCH   6  21
TORSDOF 7
ENDMDL
MODEL 7
REMARK VINA RESULT:      -7.7      2.006      3.338
REMARK  Name = 
REMARK  9 active torsions:
REMARK  status: ('A' for Active; 'I' for Inactive)
REMARK    1  A    between atoms: C_1  and  O_2
REMARK    2  A    between atoms: O_2  and  C_3
REMARK    3  A    between atoms: C_5  and  C_6
REMARK    4  A    between atoms: C_7  and  C_8
REMARK    5  A    between atoms: C_13  and  C_14
REMARK    6  A    between atoms: C_14  and  N_15
REMARK    7  A    between atoms: C_18  and  C_19
REMARK    8  A    between atoms: C_33  and  O_34
REMARK    9  A    between atoms: O_34  and  C_35
REMARK                            x       y       z     vdW  Elec       q    Type
REMARK                         _______ _______ _______ _____ _____    ______ ____
ROOT
ATOM      1  C   UNL     1       1.572   9.441  18.429  0.00  0.00    +0.000 C 
ATOM      2  O   UNL     1       2.085   9.992  17.455  0.00  0.00    +0.000 OA
ATOM      3  N   UNL     1       0.513   9.979  19.148  0.00  0.00    +0.000 N 
ATOM      4  C   UNL     1      -0.119  11.183  18.619  0.00  0.00    +0.000 C 
ATOM      5  C   UNL     1       0.083  12.333  19.596  0.00  0.00    +0.000 C 
ATOM      6  C   UNL     1      -0.523  12.012  20.978  0.00  0.00    +0.000 C 
ATOM      7  C   UNL     1       0.136  10.720  21.496  0.00  0.00    +0.000 C 
ATOM      8  C   UNL     1       0.071   9.565  20.488  0.00  0.00    +0.000 C 
ENDROOT
BRANCH   1  10
ATOM      9  C   UNL     1       2.875   7.405  18.080  0.00  0.00    +0.000 C 
ATOM     10  C   UNL     1       2.048   8.111  18.866  0.00  0.00    +0.000 C 
BRANCH   9  13
ATOM     11  C   UNL     1       5.276   4.612  18.845  0.00  0.00    +0.000 A 
ATOM     12  C   UNL     1       4.756   5.853  18.469  0.00  0.00    +0.000 A 
ATOM     13  C   UNL     1       3.376   6.072  18.431  0.00  0.00    +0.000 A 
ATOM     14  C   UNL     1       2.521   5.027  18.793  0.00  0.00    +0.000 A 
ATOM     15  C   UNL     1       3.027   3.781  19.171  0.00  0.00    +0.000 A 
ATOM     16  C   UNL     1       4.407   3.573  19.189  0.00  0.00    +0.000 A 
BRANCH  11  18
ATOM     17  C   UNL     1       7.305   4.644  17.597  0.00  0.00    +0.000 C 
ATOM     18  O   UNL     1       6.644   4.554  18.851  0.00  0.00    +0.000 OA
ENDBRANCH  11  18
BRANCH  15  19
ATOM     19  O   UNL     1       2.066   2.865  19.505  0.00  0.00    +0.000 OA
ATOM     20  C   UNL     1       0.911   3.354  20.173  0.00  0.00    +0.000 C 
ENDBRANCH  15  19
ENDBRANCH   9  13
ENDBRANCH   1  10
BRANCH   6  21
ATOM     21  C   UNL     1      -2.077  11.931  20.934  0.00  0.00    +0.000 C 
BRANCH  21  22
ATOM     22  N   UNL     1      -2.810  12.908  21.776  0.00  0.00    +0.000 NA
ATOM     23  C   UNL     1      -2.576  12.668  23.205  0.00  0.00    +0.000 C 
ATOM     24  C   UNL     1      -3.324  13.671  24.067  0.00  0.00    +0.000 C 
ATOM     25  C   UNL     1      -2.903  15.111  23.781  0.00  0.00    +0.000 C 
ATOM     26  C   UNL     1      -2.982  15.391  22.284  0.00  0.00    +0.000 C 
ATOM     27  C   UNL     1      -2.406  14.283  21.399  0.00  0.00    +0.000 C 
BRANCH  25  28
ATOM     28  C   UNL     1      -1.775  15.672  24.652  0.00  0.00    +0.000 A 
ATOM     29  C   UNL     1      -1.747  15.302  25.997  0.00  0.00    +0.000 A 
ATOM     30  N   UNL     1      -1.212  16.386  26.644  0.00  0.00    +0.000 N 
ATOM     31  C   UNL     1      -0.143  16.727  25.865  0.00  0.00    +0.000 A 
ATOM     32  C   UNL     1       1.058  17.351  26.269  0.00  0.00    +0.000 A 
ATOM     33  C   UNL     1       1.984  17.607  25.270  0.00  0.00    +0.000 A 
ATOM     34  C   UNL     1       1.668  17.356  23.930  0.00  0.00    +0.000 A 
ATOM     35  C   UNL     1       0.419  16.786  23.554  0.00  0.00    +0.000 A 
ATOM     36  C   UNL     1      -0.499  16.392  24.533  0.00  0.00    +0.000 A 
ATOM     37  H   UNL     1      -1.797  17.121  27.007  0.00  0.00    +0.000 HD
ENDBRANCH  25  28
ENDBRANCH  21  22
ENDBRANCH   6  21
TORSDOF 7
ENDMDL
MODEL 8
REMARK VINA RESULT:      -7.7      1.795      3.394
REMARK  Name = 
REMARK  9 active torsions:
REMARK  status: ('A' for Active; 'I' for Inactive)
REMARK    1  A    between atoms: C_1  and  O_2
REMARK    2  A    between atoms: O_2  and  C_3
REMARK    3  A    between atoms: C_5  and  C_6
REMARK    4  A    between atoms: C_7  and  C_8
REMARK    5  A    between atoms: C_13  and  C_14
REMARK    6  A    between atoms: C_14  and  N_15
REMARK    7  A    between atoms: C_18  and  C_19
REMARK    8  A    between atoms: C_33  and  O_34
REMARK    9  A    between atoms: O_34  and  C_35
REMARK                            x       y       z     vdW  Elec       q    Type
REMARK                         _______ _______ _______ _____ _____    ______ ____
ROOT
ATOM      1  C   UNL     1       1.524  10.327  18.313  0.00  0.00    +0.000 C 
ATOM      2  O   UNL     1       2.396  11.068  17.859  0.00  0.00    +0.000 OA
ATOM      3  N   UNL     1       0.355  10.787  18.904  0.00  0.00    +0.000 N 
ATOM      4  C   UNL     1       0.084  12.220  18.839  0.00  0.00    +0.000 C 
ATOM      5  C   UNL     1       0.078  12.799  20.247  0.00  0.00    +0.000 C 
ATOM      6  C   UNL     1      -0.992  12.123  21.131  0.00  0.00    +0.000 C 
ATOM      7  C   UNL     1      -0.703  10.611  21.153  0.00  0.00    +0.000 C 
ATOM      8  C   UNL     1      -0.559  10.005  19.750  0.00  0.00    +0.000 C 
ENDROOT
BRANCH   1  10
ATOM      9  C   UNL     1       2.244   8.166  19.193  0.00  0.00    +0.000 C 
ATOM     10  C   UNL     1       1.665   8.859  18.202  0.00  0.00    +0.000 C 
BRANCH   9  13
ATOM     11  C   UNL     1       2.132   4.547  20.213  0.00  0.00    +0.000 A 
ATOM     12  C   UNL     1       2.010   5.938  20.233  0.00  0.00    +0.000 A 
ATOM     13  C   UNL     1       2.439   6.712  19.151  0.00  0.00    +0.000 A 
ATOM     14  C   UNL     1       2.982   6.066  18.037  0.00  0.00    +0.000 A 
ATOM     15  C   UNL     1       3.111   4.676  18.003  0.00  0.00    +0.000 A 
ATOM     16  C   UNL     1       2.692   3.917  19.097  0.00  0.00    +0.000 A 
BRANCH  11  18
ATOM     17  C   UNL     1       1.764   2.508  21.388  0.00  0.00    +0.000 C 
ATOM     18  O   UNL     1       1.653   3.923  21.333  0.00  0.00    +0.000 OA
ENDBRANCH  11  18
BRANCH  15  19
ATOM     19  O   UNL     1       3.651   4.192  16.842  0.00  0.00    +0.000 OA
ATOM     20  C   UNL     1       5.045   3.918  16.842  0.00  0.00    +0.000 C 
ENDBRANCH  15  19
ENDBRANCH   9  13
ENDBRANCH   1  10
BRANCH   6  21
ATOM     21  C   UNL     1      -2.438  12.463  20.665  0.00  0.00    +0.000 C 
BRANCH  21  22
ATOM     22  N   UNL     1      -3.416  12.777  21.735  0.00  0.00    +0.000 NA
ATOM     23  C   UNL     1      -2.775  12.818  23.055  0.00  0.00    +0.000 C 
ATOM     24  C   UNL     1      -3.776  13.144  24.150  0.00  0.00    +0.000 C 
ATOM     25  C   UNL     1      -4.448  14.500  23.938  0.00  0.00    +0.000 C 
ATOM     26  C   UNL     1      -5.016  14.586  22.526  0.00  0.00    +0.000 C 
ATOM     27  C   UNL     1      -4.080  14.067  21.431  0.00  0.00    +0.000 C 
BRANCH  25  28
ATOM     28  C   UNL     1      -3.782  15.699  24.619  0.00  0.00    +0.000 A 
ATOM     29  C   UNL     1      -4.569  16.825  24.868  0.00  0.00    +0.000 A 
ATOM     30  N   UNL     1      -3.703  17.883  24.764  0.00  0.00    +0.000 N 
ATOM     31  C   UNL     1      -2.611  17.471  25.474  0.00  0.00    +0.000 A 
ATOM     32  C   UNL     1      -1.682  18.274  26.173  0.00  0.00    +0.000 A 
ATOM     33  C   UNL     1      -0.643  17.606  26.802  0.00  0.00    +0.000 A 
ATOM     34  C   UNL     1      -0.486  16.224  26.636  0.00  0.00    +0.000 A 
ATOM     35  C   UNL     1      -1.408  15.458  25.869  0.00  0.00    +0.000 A 
ATOM     36  C   UNL     1      -2.542  16.063  25.319  0.00  0.00    +0.000 A 
ATOM     37  H   UNL     1      -3.557  18.356  23.887  0.00  0.00    +0.000 HD
ENDBRANCH  25  28
ENDBRANCH  21  22
ENDBRANCH   6  21
TORSDOF 7
ENDMDL
MODEL 9
REMARK VINA RESULT:      -7.7      1.162      1.209
REMARK  Name = 
REMARK  9 active torsions:
REMARK  status: ('A' for Active; 'I' for Inactive)
REMARK    1  A    between atoms: C_1  and  O_2
REMARK    2  A    between atoms: O_2  and  C_3
REMARK    3  A    between atoms: C_5  and  C_6
REMARK    4  A    between atoms: C_7  and  C_8
REMARK    5  A    between atoms: C_13  and  C_14
REMARK    6  A    between atoms: C_14  and  N_15
REMARK    7  A    between atoms: C_18  and  C_19
REMARK    8  A    between atoms: C_33  and  O_34
REMARK    9  A    between atoms: O_34  and  C_35
REMARK                            x       y       z     vdW  Elec       q    Type
REMARK                         _______ _______ _______ _____ _____    ______ ____
ROOT
ATOM      1  C   UNL     1       1.681   9.507  18.298  0.00  0.00    +0.000 C 
ATOM      2  O   UNL     1       2.215  10.212  17.441  0.00  0.00    +0.000 OA
ATOM      3  N   UNL     1       0.807   9.994  19.260  0.00  0.00    +0.000 N 
ATOM      4  C   UNL     1       0.385  11.386  19.146  0.00  0.00    +0.000 C 
ATOM      5  C   UNL     1       0.884  12.168  20.353  0.00  0.00    +0.000 C 
ATOM      6  C   UNL     1       0.336  11.583  21.671  0.00  0.00    +0.000 C 
ATOM      7  C   UNL     1       0.767  10.106  21.749  0.00  0.00    +0.000 C 
ATOM      8  C   UNL     1       0.397   9.305  20.493  0.00  0.00    +0.000 C 
ENDROOT
BRANCH   1  10
ATOM      9  C   UNL     1       3.083   7.555  17.862  0.00  0.00    +0.000 C 
ATOM     10  C   UNL     1       1.919   8.047  18.311  0.00  0.00    +0.000 C 
BRANCH   9  13
ATOM     11  C   UNL     1       4.768   4.316  16.957  0.00  0.00    +0.000 A 
ATOM     12  C   UNL     1       4.412   5.666  16.987  0.00  0.00    +0.000 A 
ATOM     13  C   UNL     1       3.389   6.121  17.823  0.00  0.00    +0.000 A 
ATOM     14  C   UNL     1       2.733   5.197  18.644  0.00  0.00    +0.000 A 
ATOM     15  C   UNL     1       3.078   3.844  18.624  0.00  0.00    +0.000 A 
ATOM     16  C   UNL     1       4.092   3.403  17.772  0.00  0.00    +0.000 A 
BRANCH  11  18
ATOM     17  C   UNL     1       5.985   4.887  14.991  0.00  0.00    +0.000 C 
ATOM     18  O   UNL     1       5.798   4.024  16.104  0.00  0.00    +0.000 OA
ENDBRANCH  11  18
BRANCH  15  19
ATOM     19  O   UNL     1       2.353   3.069  19.489  0.00  0.00    +0.000 OA
ATOM     20  C   UNL     1       1.748   1.899  18.957  0.00  0.00    +0.000 C 
ENDBRANCH  15  19
ENDBRANCH   9  13
ENDBRANCH   1  10
BRANCH   6  21
ATOM     21  C   UNL     1      -1.202  11.779  21.806  0.00  0.00    +0.000 C 
BRANCH  21  22
ATOM     22  N   UNL     1      -1.675  12.419  23.059  0.00  0.00    +0.000 NA
ATOM     23  C   UNL     1      -1.332  13.847  23.096  0.00  0.00    +0.000 C 
ATOM     24  C   UNL     1      -1.820  14.503  24.376  0.00  0.00    +0.000 C 
ATOM     25  C   UNL     1      -3.336  14.403  24.539  0.00  0.00    +0.000 C 
ATOM     26  C   UNL     1      -3.786  12.956  24.367  0.00  0.00    +0.000 C 
ATOM     27  C   UNL     1      -3.139  12.225  23.188  0.00  0.00    +0.000 C 
BRANCH  25  28
ATOM     28  C   UNL     1      -4.154  15.577  23.993  0.00  0.00    +0.000 A 
ATOM     29  C   UNL     1      -4.407  16.648  24.851  0.00  0.00    +0.000 A 
ATOM     30  N   UNL     1      -5.632  17.124  24.459  0.00  0.00    +0.000 N 
ATOM     31  C   UNL     1      -5.535  17.169  23.097  0.00  0.00    +0.000 A 
ATOM     32  C   UNL     1      -6.202  18.045  22.211  0.00  0.00    +0.000 A 
ATOM     33  C   UNL     1      -5.941  17.868  20.861  0.00  0.00    +0.000 A 
ATOM     34  C   UNL     1      -5.149  16.799  20.426  0.00  0.00    +0.000 A 
ATOM     35  C   UNL     1      -4.546  15.897  21.347  0.00  0.00    +0.000 A 
ATOM     36  C   UNL     1      -4.673  16.105  22.724  0.00  0.00    +0.000 A 
ATOM     37  H   UNL     1      -6.484  16.780  24.870  0.00  0.00    +0.000 HD
ENDBRANCH  25  28
ENDBRANCH  21  22
ENDBRANCH   6  21
TORSDOF 7
ENDMDL
