MODEL 1
REMARK VINA RESULT:      -8.5      0.000      0.000
REMARK  Name = 
REMARK  5 active torsions:
REMARK  status: ('A' for Active; 'I' for Inactive)
REMARK    1  A    between atoms: C_2  and  N_3
REMARK    2  A    between atoms: C_2  and  N_11
REMARK    3  A    between atoms: N_3  and  C_4
REMARK    4  A    between atoms: C_4  and  C_5
REMARK    5  A    between atoms: N_14  and  C_15
REMARK                            x       y       z     vdW  Elec       q    Type
REMARK                         _______ _______ _______ _____ _____    ______ ____
ROOT
ATOM      1  N   UNL     1       0.647  10.340  19.986  0.00  0.00    +0.000 N 
ATOM      2  C   UNL     1       1.109   9.317  20.946  0.00  0.00    +0.000 C 
ATOM      3  C   UNL     1       1.513   7.953  20.332  0.00  0.00    +0.000 C 
ATOM      4  N   UNL     1       2.264   7.981  19.015  0.00  0.00    +0.000 N 
ATOM      5  C   UNL     1       1.694   8.964  18.093  0.00  0.00    +0.000 C 
ATOM      6  C   UNL     1       1.518  10.364  18.789  0.00  0.00    +0.000 C 
ENDROOT
BRANCH   4   7
ATOM      7  C   UNL     1       2.794   6.717  18.663  0.00  0.00    +0.000 A 
ATOM      8  N   UNL     1       2.242   5.739  19.402  0.00  0.00    +0.000 NA
ATOM      9  C   UNL     1       3.042   4.813  19.910  0.00  0.00    +0.000 A 
ATOM     10  N   UNL     1       4.340   4.722  19.702  0.00  0.00    +0.000 NA
ATOM     11  C   UNL     1       4.792   5.419  18.668  0.00  0.00    +0.000 A 
ATOM     12  C   UNL     1       6.040   4.984  18.282  0.00  0.00    +0.000 A 
ATOM     13  C   UNL     1       6.441   5.194  16.993  0.00  0.00    +0.000 A 
ATOM     14  C   UNL     1       5.661   5.913  16.130  0.00  0.00    +0.000 A 
ATOM     15  C   UNL     1       4.501   6.581  16.582  0.00  0.00    +0.000 A 
ATOM     16  C   UNL     1       4.014   6.367  17.951  0.00  0.00    +0.000 A 
ATOM     17  O   UNL     1       6.135   5.768  14.851  0.00  0.00    +0.000 OA
ATOM     18  C   UNL     1       7.244   4.837  15.040  0.00  0.00    +0.000 C 
ATOM     19  O   UNL     1       7.513   4.585  16.425  0.00  0.00    +0.000 OA
ENDBRANCH   4   7
BRANCH   1  21
ATOM     20  S   UNL     1       0.612  12.864  21.093  0.00  0.00    +0.000 S 
ATOM     21  C   UNL     1      -0.089  11.474  20.442  0.00  0.00    +0.000 C 
BRANCH  21  22
ATOM     22  N   UNL     1      -1.468  11.354  20.306  0.00  0.00    +0.000 N 
ATOM     23  H   UNL     1      -1.927  10.999  21.130  0.00  0.00    +0.000 HD
BRANCH  22  24
ATOM     24  C   UNL     1      -2.344  12.219  19.494  0.00  0.00    +0.000 C 
BRANCH  24  25
ATOM     25  C   UNL     1      -2.822  11.541  18.225  0.00  0.00    +0.000 A 
ATOM     26  C   UNL     1      -4.138  11.692  17.756  0.00  0.00    +0.000 A 
ATOM     27  C   UNL     1      -4.551  11.085  16.560  0.00  0.00    +0.000 A 
ATOM     28  C   UNL     1      -3.653  10.314  15.824  0.00  0.00    +0.000 A 
ATOM     29  C   UNL     1      -2.341  10.165  16.269  0.00  0.00    +0.000 A 
ATOM     30  C   UNL     1      -1.929  10.773  17.460  0.00  0.00    +0.000 A 
ENDBRANCH  24  25
ENDBRANCH  22  24
ENDBRANCH  21  22
ENDBRANCH   1  21
TORSDOF 5
ENDMDL
MODEL 2
REMARK VINA RESULT:      -8.5      1.908      3.304
REMARK  Name = 
REMARK  5 active torsions:
REMARK  status: ('A' for Active; 'I' for Inactive)
REMARK    1  A    between atoms: C_2  and  N_3
REMARK    2  A    between atoms: C_2  and  N_11
REMARK    3  A    between atoms: N_3  and  C_4
REMARK    4  A    between atoms: C_4  and  C_5
REMARK    5  A    between atoms: N_14  and  C_15
REMARK                            x       y       z     vdW  Elec       q    Type
REMARK                         _______ _______ _______ _____ _____    ______ ____
ROOT
ATOM      1  N   UNL     1       2.212   7.727  19.455  0.00  0.00    +0.000 N 
ATOM      2  C   UNL     1       2.633   7.854  18.045  0.00  0.00    +0.000 C 
ATOM      3  C   UNL     1       3.889   7.040  17.642  0.00  0.00    +0.000 C 
ATOM      4  N   UNL     1       4.030   5.649  18.230  0.00  0.00    +0.000 N 
ATOM      5  C   UNL     1       3.669   5.626  19.647  0.00  0.00    +0.000 C 
ATOM      6  C   UNL     1       2.276   6.314  19.893  0.00  0.00    +0.000 C 
ENDROOT
BRANCH   4   7
ATOM      7  C   UNL     1       5.067   4.904  17.621  0.00  0.00    +0.000 A 
ATOM      8  N   UNL     1       5.998   4.546  18.524  0.00  0.00    +0.000 NA
ATOM      9  C   UNL     1       7.273   4.689  18.195  0.00  0.00    +0.000 A 
ATOM     10  N   UNL     1       7.724   5.095  17.026  0.00  0.00    +0.000 NA
ATOM     11  C   UNL     1       6.841   5.045  16.037  0.00  0.00    +0.000 A 
ATOM     12  C   UNL     1       7.464   5.105  14.810  0.00  0.00    +0.000 A 
ATOM     13  C   UNL     1       6.830   4.571  13.723  0.00  0.00    +0.000 A 
ATOM     14  C   UNL     1       5.559   4.080  13.831  0.00  0.00    +0.000 A 
ATOM     15  C   UNL     1       4.813   4.245  15.021  0.00  0.00    +0.000 A 
ATOM     16  C   UNL     1       5.456   4.788  16.224  0.00  0.00    +0.000 A 
ATOM     17  O   UNL     1       5.239   3.374  12.699  0.00  0.00    +0.000 OA
ATOM     18  C   UNL     1       6.481   3.448  11.934  0.00  0.00    +0.000 C 
ATOM     19  O   UNL     1       7.440   4.326  12.536  0.00  0.00    +0.000 OA
ENDBRANCH   4   7
BRANCH   1  21
ATOM     20  S   UNL     1       1.129   8.921  21.690  0.00  0.00    +0.000 S 
ATOM     21  C   UNL     1       1.326   8.686  20.031  0.00  0.00    +0.000 C 
BRANCH  21  22
ATOM     22  N   UNL     1       0.618   9.441  19.102  0.00  0.00    +0.000 N 
ATOM     23  H   UNL     1       0.293   8.908  18.311  0.00  0.00    +0.000 HD
BRANCH  22  24
ATOM     24  C   UNL     1      -0.238  10.606  19.395  0.00  0.00    +0.000 C 
BRANCH  24  25
ATOM     25  C   UNL     1      -1.444  10.689  18.479  0.00  0.00    +0.000 A 
ATOM     26  C   UNL     1      -1.557   9.890  17.329  0.00  0.00    +0.000 A 
ATOM     27  C   UNL     1      -2.697   9.957  16.514  0.00  0.00    +0.000 A 
ATOM     28  C   UNL     1      -3.735  10.829  16.838  0.00  0.00    +0.000 A 
ATOM     29  C   UNL     1      -3.644  11.618  17.982  0.00  0.00    +0.000 A 
ATOM     30  C   UNL     1      -2.508  11.549  18.796  0.00  0.00    +0.000 A 
ENDBRANCH  24  25
ENDBRANCH  22  24
ENDBRANCH  21  22
ENDBRANCH   1  21
TORSDOF 5
ENDMDL
MODEL 3
REMARK VINA RESULT:      -8.4      0.532      1.026
REMARK  Name = 
REMARK  5 active torsions:
REMARK  status: ('A' for Active; 'I' for Inactive)
REMARK    1  A    between atoms: C_2  and  N_3
REMARK    2  A    between atoms: C_2  and  N_11
REMARK    3  A    between atoms: N_3  and  C_4
REMARK    4  A    between atoms: C_4  and  C_5
REMARK    5  A    between atoms: N_14  and  C_15
REMARK                            x       y       z     vdW  Elec       q    Type
REMARK                         _______ _______ _______ _____ _____    ______ ____
ROOT
ATOM      1  N   UNL     1       0.785  10.781  19.621  0.00  0.00    +0.000 N 
ATOM      2  C   UNL     1       1.155   9.780  20.642  0.00  0.00    +0.000 C 
ATOM      3  C   UNL     1       1.510   8.370  20.105  0.00  0.00    +0.000 C 
ATOM      4  N   UNL     1       2.313   8.300  18.821  0.00  0.00    +0.000 N 
ATOM      5  C   UNL     1       1.833   9.268  17.834  0.00  0.00    +0.000 C 
ATOM      6  C   UNL     1       1.703  10.706  18.461  0.00  0.00    +0.000 C 
ENDROOT
BRANCH   4   7
ATOM      7  C   UNL     1       2.790   6.997  18.546  0.00  0.00    +0.000 A 
ATOM      8  N   UNL     1       2.184   6.086  19.330  0.00  0.00    +0.000 NA
ATOM      9  C   UNL     1       2.933   5.155  19.899  0.00  0.00    +0.000 A 
ATOM     10  N   UNL     1       4.228   4.994  19.717  0.00  0.00    +0.000 NA
ATOM     11  C   UNL     1       4.726   5.612  18.655  0.00  0.00    +0.000 A 
ATOM     12  C   UNL     1       5.958   5.100  18.312  0.00  0.00    +0.000 A 
ATOM     13  C   UNL     1       6.385   5.221  17.020  0.00  0.00    +0.000 A 
ATOM     14  C   UNL     1       5.651   5.925  16.107  0.00  0.00    +0.000 A 
ATOM     15  C   UNL     1       4.516   6.669  16.504  0.00  0.00    +0.000 A 
ATOM     16  C   UNL     1       4.002   6.554  17.875  0.00  0.00    +0.000 A 
ATOM     17  O   UNL     1       6.134   5.689  14.845  0.00  0.00    +0.000 OA
ATOM     18  C   UNL     1       7.197   4.721  15.102  0.00  0.00    +0.000 C 
ATOM     19  O   UNL     1       7.435   4.534  16.503  0.00  0.00    +0.000 OA
ENDBRANCH   4   7
BRANCH   1  21
ATOM     20  S   UNL     1       0.772  13.220  20.902  0.00  0.00    +0.000 S 
ATOM     21  C   UNL     1       0.093  11.970  19.996  0.00  0.00    +0.000 C 
BRANCH  21  22
ATOM     22  N   UNL     1      -1.222  12.032  19.546  0.00  0.00    +0.000 N 
ATOM     23  H   UNL     1      -1.388  12.772  18.883  0.00  0.00    +0.000 HD
BRANCH  22  24
ATOM     24  C   UNL     1      -2.138  10.890  19.367  0.00  0.00    +0.000 C 
BRANCH  24  25
ATOM     25  C   UNL     1      -2.658  10.775  17.948  0.00  0.00    +0.000 A 
ATOM     26  C   UNL     1      -2.008   9.986  16.983  0.00  0.00    +0.000 A 
ATOM     27  C   UNL     1      -2.526   9.864  15.685  0.00  0.00    +0.000 A 
ATOM     28  C   UNL     1      -3.696  10.535  15.335  0.00  0.00    +0.000 A 
ATOM     29  C   UNL     1      -4.359  11.310  16.284  0.00  0.00    +0.000 A 
ATOM     30  C   UNL     1      -3.844  11.429  17.580  0.00  0.00    +0.000 A 
ENDBRANCH  24  25
ENDBRANCH  22  24
ENDBRANCH  21  22
ENDBRANCH   1  21
TORSDOF 5
ENDMDL
MODEL 4
REMARK VINA RESULT:      -8.3      0.657      1.119
REMARK  Name = 
REMARK  5 active torsions:
REMARK  status: ('A' for Active; 'I' for Inactive)
REMARK    1  A    between atoms: C_2  and  N_3
REMARK    2  A    between atoms: C_2  and  N_11
REMARK    3  A    between atoms: N_3  and  C_4
REMARK    4  A    between atoms: C_4  and  C_5
REMARK    5  A    between atoms: N_14  and  C_15
REMARK                            x       y       z     vdW  Elec       q    Type
REMARK                         _______ _______ _______ _____ _____    ______ ____
ROOT
ATOM      1  N   UNL     1       1.019   9.891  19.700  0.00  0.00    +0.000 N 
ATOM      2  C   UNL     1       1.183   9.460  18.297  0.00  0.00    +0.000 C 
ATOM      3  C   UNL     1       2.126   8.252  18.071  0.00  0.00    +0.000 C 
ATOM      4  N   UNL     1       2.062   7.125  19.083  0.00  0.00    +0.000 N 
ATOM      5  C   UNL     1       1.980   7.636  20.452  0.00  0.00    +0.000 C 
ATOM      6  C   UNL     1       0.848   8.720  20.589  0.00  0.00    +0.000 C 
ENDROOT
BRANCH   4   7
ATOM      7  C   UNL     1       2.772   5.975  18.664  0.00  0.00    +0.000 A 
ATOM      8  N   UNL     1       2.371   4.885  19.344  0.00  0.00    +0.000 NA
ATOM      9  C   UNL     1       3.298   4.060  19.804  0.00  0.00    +0.000 A 
ATOM     10  N   UNL     1       4.595   4.172  19.601  0.00  0.00    +0.000 NA
ATOM     11  C   UNL     1       4.939   4.985  18.611  0.00  0.00    +0.000 A 
ATOM     12  C   UNL     1       6.237   4.761  18.210  0.00  0.00    +0.000 A 
ATOM     13  C   UNL     1       6.601   5.100  16.937  0.00  0.00    +0.000 A 
ATOM     14  C   UNL     1       5.723   5.744  16.111  0.00  0.00    +0.000 A 
ATOM     15  C   UNL     1       4.478   6.208  16.591  0.00  0.00    +0.000 A 
ATOM     16  C   UNL     1       4.029   5.848  17.943  0.00  0.00    +0.000 A 
ATOM     17  O   UNL     1       6.211   5.743  14.828  0.00  0.00    +0.000 OA
ATOM     18  C   UNL     1       7.445   4.976  14.973  0.00  0.00    +0.000 C 
ATOM     19  O   UNL     1       7.750   4.688  16.344  0.00  0.00    +0.000 OA
ENDBRANCH   4   7
BRANCH   1  21
ATOM     20  S   UNL     1       1.440  12.567  20.207  0.00  0.00    +0.000 S 
ATOM     21  C   UNL     1       0.496  11.185  20.000  0.00  0.00    +0.000 C 
BRANCH  21  22
ATOM     22  N   UNL     1      -0.890  11.230  20.109  0.00  0.00    +0.000 N 
ATOM     23  H   UNL     1      -1.240  10.849  20.974  0.00  0.00    +0.000 HD
BRANCH  22  24
ATOM     24  C   UNL     1      -1.778  12.260  19.538  0.00  0.00    +0.000 C 
BRANCH  24  25
ATOM     25  C   UNL     1      -2.579  11.751  18.356  0.00  0.00    +0.000 A 
ATOM     26  C   UNL     1      -3.984  11.736  18.365  0.00  0.00    +0.000 A 
ATOM     27  C   UNL     1      -4.707  11.294  17.247  0.00  0.00    +0.000 A 
ATOM     28  C   UNL     1      -4.033  10.856  16.109  0.00  0.00    +0.000 A 
ATOM     29  C   UNL     1      -2.640  10.877  16.079  0.00  0.00    +0.000 A 
ATOM     30  C   UNL     1      -1.919  11.321  17.194  0.00  0.00    +0.000 A 
ENDBRANCH  24  25
ENDBRANCH  22  24
ENDBRANCH  21  22
ENDBRANCH   1  21
TORSDOF 5
ENDMDL
MODEL 5
REMARK VINA RESULT:      -8.1      2.286      3.500
REMARK  Name = 
REMARK  5 active torsions:
REMARK  status: ('A' for Active; 'I' for Inactive)
REMARK    1  A    between atoms: C_2  and  N_3
REMARK    2  A    between atoms: C_2  and  N_11
REMARK    3  A    between atoms: N_3  and  C_4
REMARK    4  A    between atoms: C_4  and  C_5
REMARK    5  A    between atoms: N_14  and  C_15
REMARK                            x       y       z     vdW  Elec       q    Type
REMARK                         _______ _______ _______ _____ _____    ______ ____
ROOT
ATOM      1  N   UNL     1       0.548  10.127  19.981  0.00  0.00    +0.000 N 
ATOM      2  C   UNL     1       1.088   9.146  20.943  0.00  0.00    +0.000 C 
ATOM      3  C   UNL     1       1.542   7.792  20.341  0.00  0.00    +0.000 C 
ATOM      4  N   UNL     1       2.252   7.833  19.002  0.00  0.00    +0.000 N 
ATOM      5  C   UNL     1       1.608   8.769  18.081  0.00  0.00    +0.000 C 
ATOM      6  C   UNL     1       1.381  10.171  18.758  0.00  0.00    +0.000 C 
ENDROOT
BRANCH   4   7
ATOM      7  C   UNL     1       2.835   6.591  18.656  0.00  0.00    +0.000 A 
ATOM      8  N   UNL     1       2.335   5.596  19.411  0.00  0.00    +0.000 NA
ATOM      9  C   UNL     1       3.180   4.712  19.919  0.00  0.00    +0.000 A 
ATOM     10  N   UNL     1       4.478   4.676  19.698  0.00  0.00    +0.000 NA
ATOM     11  C   UNL     1       4.889   5.383  18.653  0.00  0.00    +0.000 A 
ATOM     12  C   UNL     1       6.152   5.000  18.258  0.00  0.00    +0.000 A 
ATOM     13  C   UNL     1       6.529   5.215  16.963  0.00  0.00    +0.000 A 
ATOM     14  C   UNL     1       5.710   5.890  16.102  0.00  0.00    +0.000 A 
ATOM     15  C   UNL     1       4.525   6.511  16.560  0.00  0.00    +0.000 A 
ATOM     16  C   UNL     1       4.062   6.289  17.936  0.00  0.00    +0.000 A 
ATOM     17  O   UNL     1       6.176   5.754  14.819  0.00  0.00    +0.000 OA
ATOM     18  C   UNL     1       7.328   4.875  15.005  0.00  0.00    +0.000 C 
ATOM     19  O   UNL     1       7.621   4.649  16.390  0.00  0.00    +0.000 OA
ENDBRANCH   4   7
BRANCH   1  21
ATOM     20  S   UNL     1      -1.234  12.161  19.452  0.00  0.00    +0.000 S 
ATOM     21  C   UNL     1      -0.231  11.231  20.439  0.00  0.00    +0.000 C 
BRANCH  21  22
ATOM     22  N   UNL     1      -0.104  11.495  21.798  0.00  0.00    +0.000 N 
ATOM     23  H   UNL     1       0.425  12.328  22.002  0.00  0.00    +0.000 HD
BRANCH  22  24
ATOM     24  C   UNL     1      -1.095  11.180  22.844  0.00  0.00    +0.000 C 
BRANCH  24  25
ATOM     25  C   UNL     1      -1.919  12.385  23.252  0.00  0.00    +0.000 A 
ATOM     26  C   UNL     1      -3.286  12.277  23.561  0.00  0.00    +0.000 A 
ATOM     27  C   UNL     1      -4.023  13.399  23.970  0.00  0.00    +0.000 A 
ATOM     28  C   UNL     1      -3.403  14.643  24.069  0.00  0.00    +0.000 A 
ATOM     29  C   UNL     1      -2.045  14.764  23.778  0.00  0.00    +0.000 A 
ATOM     30  C   UNL     1      -1.310  13.644  23.373  0.00  0.00    +0.000 A 
ENDBRANCH  24  25
ENDBRANCH  22  24
ENDBRANCH  21  22
ENDBRANCH   1  21
TORSDOF 5
ENDMDL
MODEL 6
REMARK VINA RESULT:      -8.0      3.876      9.181
REMARK  Name = 
REMARK  5 active torsions:
REMARK  status: ('A' for Active; 'I' for Inactive)
REMARK    1  A    between atoms: C_2  and  N_3
REMARK    2  A    between atoms: C_2  and  N_11
REMARK    3  A    between atoms: N_3  and  C_4
REMARK    4  A    between atoms: C_4  and  C_5
REMARK    5  A    between atoms: N_14  and  C_15
REMARK                            x       y       z     vdW  Elec       q    Type
REMARK                         _______ _______ _______ _____ _____    ______ ____
ROOT
ATOM      1  N   UNL     1       2.796   6.611  19.421  0.00  0.00    +0.000 N 
ATOM      2  C   UNL     1       1.713   7.104  20.296  0.00  0.00    +0.000 C 
ATOM      3  C   UNL     1       1.247   8.559  20.036  0.00  0.00    +0.000 C 
ATOM      4  N   UNL     1       1.156   9.009  18.591  0.00  0.00    +0.000 N 
ATOM      5  C   UNL     1       2.305   8.546  17.812  0.00  0.00    +0.000 C 
ATOM      6  C   UNL     1       2.550   7.006  18.015  0.00  0.00    +0.000 C 
ENDROOT
BRANCH   4   7
ATOM      7  C   UNL     1       0.498  10.253  18.448  0.00  0.00    +0.000 A 
ATOM      8  N   UNL     1       1.297  11.268  18.825  0.00  0.00    +0.000 NA
ATOM      9  C   UNL     1       0.780  12.219  19.588  0.00  0.00    +0.000 A 
ATOM     10  N   UNL     1      -0.480  12.301  19.965  0.00  0.00    +0.000 NA
ATOM     11  C   UNL     1      -1.324  11.552  19.268  0.00  0.00    +0.000 A 
ATOM     12  C   UNL     1      -2.625  11.968  19.447  0.00  0.00    +0.000 A 
ATOM     13  C   UNL     1      -3.544  11.693  18.474  0.00  0.00    +0.000 A 
ATOM     14  C   UNL     1      -3.205  10.930  17.392  0.00  0.00    +0.000 A 
ATOM     15  C   UNL     1      -1.949  10.284  17.321  0.00  0.00    +0.000 A 
ATOM     16  C   UNL     1      -0.918  10.567  18.327  0.00  0.00    +0.000 A 
ATOM     17  O   UNL     1      -4.193  11.010  16.444  0.00  0.00    +0.000 OA
ATOM     18  C   UNL     1      -5.128  11.950  17.056  0.00  0.00    +0.000 C 
ATOM     19  O   UNL     1      -4.769  12.273  18.405  0.00  0.00    +0.000 OA
ENDBRANCH   4   7
BRANCH   1  21
ATOM     20  S   UNL     1       2.919   4.129  20.611  0.00  0.00    +0.000 S 
ATOM     21  C   UNL     1       3.553   5.460  19.791  0.00  0.00    +0.000 C 
BRANCH  21  22
ATOM     22  N   UNL     1       4.890   5.510  19.413  0.00  0.00    +0.000 N 
ATOM     23  H   UNL     1       5.439   6.160  19.953  0.00  0.00    +0.000 HD
BRANCH  22  24
ATOM     24  C   UNL     1       5.691   4.389  18.886  0.00  0.00    +0.000 C 
BRANCH  24  25
ATOM     25  C   UNL     1       5.876   4.460  17.382  0.00  0.00    +0.000 A 
ATOM     26  C   UNL     1       4.804   4.263  16.495  0.00  0.00    +0.000 A 
ATOM     27  C   UNL     1       4.989   4.368  15.108  0.00  0.00    +0.000 A 
ATOM     28  C   UNL     1       6.249   4.664  14.593  0.00  0.00    +0.000 A 
ATOM     29  C   UNL     1       7.319   4.874  15.460  0.00  0.00    +0.000 A 
ATOM     30  C   UNL     1       7.134   4.773  16.844  0.00  0.00    +0.000 A 
ENDBRANCH  24  25
ENDBRANCH  22  24
ENDBRANCH  21  22
ENDBRANCH   1  21
TORSDOF 5
ENDMDL
MODEL 7
REMARK VINA RESULT:      -8.0      0.842      1.130
REMARK  Name = 
REMARK  5 active torsions:
REMARK  status: ('A' for Active; 'I' for Inactive)
REMARK    1  A    between atoms: C_2  and  N_3
REMARK    2  A    between atoms: C_2  and  N_11
REMARK    3  A    between atoms: N_3  and  C_4
REMARK    4  A    between atoms: C_4  and  C_5
REMARK    5  A    between atoms: N_14  and  C_15
REMARK                            x       y       z     vdW  Elec       q    Type
REMARK                         _______ _______ _______ _____ _____    ______ ____
ROOT
ATOM      1  N   UNL     1       0.536   9.904  20.175  0.00  0.00    +0.000 N 
ATOM      2  C   UNL     1       1.074   8.882  21.096  0.00  0.00    +0.000 C 
ATOM      3  C   UNL     1       1.536   7.558  20.437  0.00  0.00    +0.000 C 
ATOM      4  N   UNL     1       2.256   7.662  19.106  0.00  0.00    +0.000 N 
ATOM      5  C   UNL     1       1.615   8.637  18.224  0.00  0.00    +0.000 C 
ATOM      6  C   UNL     1       1.379  10.006  18.961  0.00  0.00    +0.000 C 
ENDROOT
BRANCH   4   7
ATOM      7  C   UNL     1       2.845   6.439  18.709  0.00  0.00    +0.000 A 
ATOM      8  N   UNL     1       2.353   5.411  19.423  0.00  0.00    +0.000 NA
ATOM      9  C   UNL     1       3.205   4.512  19.892  0.00  0.00    +0.000 A 
ATOM     10  N   UNL     1       4.503   4.493  19.668  0.00  0.00    +0.000 NA
ATOM     11  C   UNL     1       4.907   5.245  18.652  0.00  0.00    +0.000 A 
ATOM     12  C   UNL     1       6.171   4.886  18.239  0.00  0.00    +0.000 A 
ATOM     13  C   UNL     1       6.544   5.156  16.953  0.00  0.00    +0.000 A 
ATOM     14  C   UNL     1       5.718   5.860  16.122  0.00  0.00    +0.000 A 
ATOM     15  C   UNL     1       4.531   6.454  16.607  0.00  0.00    +0.000 A 
ATOM     16  C   UNL     1       4.073   6.174  17.974  0.00  0.00    +0.000 A 
ATOM     17  O   UNL     1       6.183   5.779  14.833  0.00  0.00    +0.000 OA
ATOM     18  C   UNL     1       7.340   4.901  14.981  0.00  0.00    +0.000 C 
ATOM     19  O   UNL     1       7.638   4.621  16.355  0.00  0.00    +0.000 OA
ENDBRANCH   4   7
BRANCH   1  21
ATOM     20  S   UNL     1      -0.565  11.250  22.312  0.00  0.00    +0.000 S 
ATOM     21  C   UNL     1      -0.249  10.984  20.677  0.00  0.00    +0.000 C 
BRANCH  21  22
ATOM     22  N   UNL     1      -0.750  11.831  19.695  0.00  0.00    +0.000 N 
ATOM     23  H   UNL     1      -0.626  11.482  18.758  0.00  0.00    +0.000 HD
BRANCH  22  24
ATOM     24  C   UNL     1      -1.919  12.720  19.822  0.00  0.00    +0.000 C 
BRANCH  24  25
ATOM     25  C   UNL     1      -3.157  12.159  19.148  0.00  0.00    +0.000 A 
ATOM     26  C   UNL     1      -4.446  12.400  19.651  0.00  0.00    +0.000 A 
ATOM     27  C   UNL     1      -5.581  11.901  18.993  0.00  0.00    +0.000 A 
ATOM     28  C   UNL     1      -5.437  11.150  17.828  0.00  0.00    +0.000 A 
ATOM     29  C   UNL     1      -4.166  10.914  17.309  0.00  0.00    +0.000 A 
ATOM     30  C   UNL     1      -3.035  11.414  17.965  0.00  0.00    +0.000 A 
ENDBRANCH  24  25
ENDBRANCH  22  24
ENDBRANCH  21  22
ENDBRANCH   1  21
TORSDOF 5
ENDMDL
MODEL 8
REMARK VINA RESULT:      -8.0      2.173      3.096
REMARK  Name = 
REMARK  5 active torsions:
REMARK  status: ('A' for Active; 'I' for Inactive)
REMARK    1  A    between atoms: C_2  and  N_3
REMARK    2  A    between atoms: C_2  and  N_11
REMARK    3  A    between atoms: N_3  and  C_4
REMARK    4  A    between atoms: C_4  and  C_5
REMARK    5  A    between atoms: N_14  and  C_15
REMARK                            x       y       z     vdW  Elec       q    Type
REMARK                         _______ _______ _______ _____ _____    ______ ____
ROOT
ATOM      1  N   UNL     1       0.603  10.369  20.017  0.00  0.00    +0.000 N 
ATOM      2  C   UNL     1       1.100   9.357  20.971  0.00  0.00    +0.000 C 
ATOM      3  C   UNL     1       1.493   7.990  20.357  0.00  0.00    +0.000 C 
ATOM      4  N   UNL     1       2.205   8.011  19.019  0.00  0.00    +0.000 N 
ATOM      5  C   UNL     1       1.603   8.983  18.106  0.00  0.00    +0.000 C 
ATOM      6  C   UNL     1       1.438  10.388  18.795  0.00  0.00    +0.000 C 
ENDROOT
BRANCH   4   7
ATOM      7  C   UNL     1       2.733   6.748  18.662  0.00  0.00    +0.000 A 
ATOM      8  N   UNL     1       2.171   5.767  19.390  0.00  0.00    +0.000 NA
ATOM      9  C   UNL     1       2.962   4.834  19.897  0.00  0.00    +0.000 A 
ATOM     10  N   UNL     1       4.261   4.738  19.699  0.00  0.00    +0.000 NA
ATOM     11  C   UNL     1       4.725   5.441  18.674  0.00  0.00    +0.000 A 
ATOM     12  C   UNL     1       5.975   5.003  18.295  0.00  0.00    +0.000 A 
ATOM     13  C   UNL     1       6.387   5.220  17.011  0.00  0.00    +0.000 A 
ATOM     14  C   UNL     1       5.617   5.948  16.147  0.00  0.00    +0.000 A 
ATOM     15  C   UNL     1       4.456   6.619  16.594  0.00  0.00    +0.000 A 
ATOM     16  C   UNL     1       3.957   6.398  17.958  0.00  0.00    +0.000 A 
ATOM     17  O   UNL     1       6.100   5.810  14.870  0.00  0.00    +0.000 OA
ATOM     18  C   UNL     1       7.204   4.873  15.062  0.00  0.00    +0.000 C 
ATOM     19  O   UNL     1       7.460   4.611  16.447  0.00  0.00    +0.000 OA
ENDBRANCH   4   7
BRANCH   1  21
ATOM     20  S   UNL     1       0.203  13.096  20.038  0.00  0.00    +0.000 S 
ATOM     21  C   UNL     1      -0.127  11.503  20.485  0.00  0.00    +0.000 C 
BRANCH  21  22
ATOM     22  N   UNL     1      -1.162  11.195  21.360  0.00  0.00    +0.000 N 
ATOM     23  H   UNL     1      -1.451  10.231  21.322  0.00  0.00    +0.000 HD
BRANCH  22  24
ATOM     24  C   UNL     1      -1.403  11.810  22.679  0.00  0.00    +0.000 C 
BRANCH  24  25
ATOM     25  C   UNL     1      -2.840  12.255  22.864  0.00  0.00    +0.000 A 
ATOM     26  C   UNL     1      -3.644  12.632  21.774  0.00  0.00    +0.000 A 
ATOM     27  C   UNL     1      -4.982  13.007  21.962  0.00  0.00    +0.000 A 
ATOM     28  C   UNL     1      -5.531  13.015  23.243  0.00  0.00    +0.000 A 
ATOM     29  C   UNL     1      -4.751  12.632  24.332  0.00  0.00    +0.000 A 
ATOM     30  C   UNL     1      -3.417  12.255  24.144  0.00  0.00    +0.000 A 
ENDBRANCH  24  25
ENDBRANCH  22  24
ENDBRANCH  21  22
ENDBRANCH   1  21
TORSDOF 5
ENDMDL
MODEL 9
REMARK VINA RESULT:      -8.0      3.845      9.295
REMARK  Name = 
REMARK  5 active torsions:
REMARK  status: ('A' for Active; 'I' for Inactive)
REMARK    1  A    between atoms: C_2  and  N_3
REMARK    2  A    between atoms: C_2  and  N_11
REMARK    3  A    between atoms: N_3  and  C_4
REMARK    4  A    between atoms: C_4  and  C_5
REMARK    5  A    between atoms: N_14  and  C_15
REMARK                            x       y       z     vdW  Elec       q    Type
REMARK                         _______ _______ _______ _____ _____    ______ ____
ROOT
ATOM      1  N   UNL     1       2.508   6.615  19.320  0.00  0.00    +0.000 N 
ATOM      2  C   UNL     1       2.777   7.486  18.159  0.00  0.00    +0.000 C 
ATOM      3  C   UNL     1       1.767   8.640  17.935  0.00  0.00    +0.000 C 
ATOM      4  N   UNL     1       1.250   9.357  19.166  0.00  0.00    +0.000 N 
ATOM      5  C   UNL     1       0.933   8.417  20.241  0.00  0.00    +0.000 C 
ATOM      6  C   UNL     1       2.124   7.423  20.501  0.00  0.00    +0.000 C 
ENDROOT
BRANCH   4   7
ATOM      7  C   UNL     1       0.533  10.535  18.850  0.00  0.00    +0.000 A 
ATOM      8  N   UNL     1       1.248  11.632  19.158  0.00  0.00    +0.000 NA
ATOM      9  C   UNL     1       0.630  12.625  19.781  0.00  0.00    +0.000 A 
ATOM     10  N   UNL     1      -0.653  12.667  20.075  0.00  0.00    +0.000 NA
ATOM     11  C   UNL     1      -1.408  11.796  19.417  0.00  0.00    +0.000 A 
ATOM     12  C   UNL     1      -2.738  12.146  19.476  0.00  0.00    +0.000 A 
ATOM     13  C   UNL     1      -3.577  11.712  18.489  0.00  0.00    +0.000 A 
ATOM     14  C   UNL     1      -3.128  10.861  17.518  0.00  0.00    +0.000 A 
ATOM     15  C   UNL     1      -1.836  10.292  17.590  0.00  0.00    +0.000 A 
ATOM     16  C   UNL     1      -0.888  10.745  18.615  0.00  0.00    +0.000 A 
ATOM     17  O   UNL     1      -4.057  10.777  16.512  0.00  0.00    +0.000 OA
ATOM     18  C   UNL     1      -5.080  11.716  16.963  0.00  0.00    +0.000 C 
ATOM     19  O   UNL     1      -4.826  12.202  18.287  0.00  0.00    +0.000 OA
ENDBRANCH   4   7
BRANCH   1  21
ATOM     20  S   UNL     1       2.279   3.881  19.584  0.00  0.00    +0.000 S 
ATOM     21  C   UNL     1       3.124   5.331  19.416  0.00  0.00    +0.000 C 
BRANCH  21  22
ATOM     22  N   UNL     1       4.513   5.359  19.357  0.00  0.00    +0.000 N 
ATOM     23  H   UNL     1       4.939   5.909  20.086  0.00  0.00    +0.000 HD
BRANCH  22  24
ATOM     24  C   UNL     1       5.388   4.272  18.878  0.00  0.00    +0.000 C 
BRANCH  24  25
ATOM     25  C   UNL     1       5.779   4.434  17.422  0.00  0.00    +0.000 A 
ATOM     26  C   UNL     1       7.088   4.779  17.043  0.00  0.00    +0.000 A 
ATOM     27  C   UNL     1       7.439   4.890  15.689  0.00  0.00    +0.000 A 
ATOM     28  C   UNL     1       6.484   4.664  14.700  0.00  0.00    +0.000 A 
ATOM     29  C   UNL     1       5.185   4.309  15.060  0.00  0.00    +0.000 A 
ATOM     30  C   UNL     1       4.836   4.195  16.411  0.00  0.00    +0.000 A 
ENDBRANCH  24  25
ENDBRANCH  22  24
ENDBRANCH  21  22
ENDBRANCH   1  21
TORSDOF 5
ENDMDL
