MODEL 1
REMARK VINA RESULT:      -8.7      0.000      0.000
REMARK  Name = 
REMARK  2 active torsions:
REMARK  status: ('A' for Active; 'I' for Inactive)
REMARK    1  A    between atoms: O_1  and  C_2
REMARK    2  A    between atoms: C_4  and  C_5
REMARK                            x       y       z     vdW  Elec       q    Type
REMARK                         _______ _______ _______ _____ _____    ______ ____
ROOT
ATOM      1  C   UNL     1       0.924   9.658  18.494  0.00  0.00    +0.000 A 
ATOM      2  C   UNL     1       1.740   8.742  17.849  0.00  0.00    +0.000 A 
ATOM      3  C   UNL     1       2.323   7.730  18.603  0.00  0.00    +0.000 A 
ATOM      4  N   UNL     1       2.118   7.649  19.939  0.00  0.00    +0.000 NA
ATOM      5  C   UNL     1       1.373   8.553  20.575  0.00  0.00    +0.000 A 
ATOM      6  N   UNL     1       1.259   8.441  21.901  0.00  0.00    +0.000 NA
ATOM      7  C   UNL     1       0.496   9.330  22.574  0.00  0.00    +0.000 A 
ATOM      8  C   UNL     1      -0.194  10.361  21.974  0.00  0.00    +0.000 A 
ATOM      9  C   UNL     1      -0.074  10.492  20.600  0.00  0.00    +0.000 A 
ATOM     10  C   UNL     1       0.729   9.586  19.879  0.00  0.00    +0.000 A 
ENDROOT
BRANCH   3  11
ATOM     11  C   UNL     1       3.142   6.645  17.988  0.00  0.00    +0.000 A 
ATOM     12  C   UNL     1       4.335   7.012  17.316  0.00  0.00    +0.000 A 
ATOM     13  C   UNL     1       5.151   6.072  16.695  0.00  0.00    +0.000 A 
ATOM     14  C   UNL     1       4.794   4.733  16.714  0.00  0.00    +0.000 A 
ATOM     15  C   UNL     1       3.626   4.310  17.359  0.00  0.00    +0.000 A 
ATOM     16  C   UNL     1       3.304   2.942  17.349  0.00  0.00    +0.000 A 
ATOM     17  C   UNL     1       2.157   2.466  17.978  0.00  0.00    +0.000 A 
ATOM     18  C   UNL     1       1.323   3.356  18.634  0.00  0.00    +0.000 A 
ATOM     19  C   UNL     1       1.634   4.719  18.656  0.00  0.00    +0.000 A 
ATOM     20  C   UNL     1       2.783   5.253  18.014  0.00  0.00    +0.000 A 
ENDBRANCH   3  11
BRANCH   1  21
ATOM     21  O   UNL     1       0.299  10.646  17.778  0.00  0.00    +0.000 OA
ATOM     22  H   UNL     1      -0.655  10.621  17.954  0.00  0.00    +0.000 HD
ENDBRANCH   1  21
TORSDOF 2
ENDMDL
MODEL 2
REMARK VINA RESULT:      -8.5      1.002      2.608
REMARK  Name = 
REMARK  2 active torsions:
REMARK  status: ('A' for Active; 'I' for Inactive)
REMARK    1  A    between atoms: O_1  and  C_2
REMARK    2  A    between atoms: C_4  and  C_5
REMARK                            x       y       z     vdW  Elec       q    Type
REMARK                         _______ _______ _______ _____ _____    ______ ____
ROOT
ATOM      1  C   UNL     1       1.842   9.405  18.240  0.00  0.00    +0.000 A 
ATOM      2  C   UNL     1       2.421   8.276  17.682  0.00  0.00    +0.000 A 
ATOM      3  C   UNL     1       2.518   7.129  18.463  0.00  0.00    +0.000 A 
ATOM      4  N   UNL     1       2.079   7.118  19.743  0.00  0.00    +0.000 NA
ATOM      5  C   UNL     1       1.564   8.213  20.302  0.00  0.00    +0.000 A 
ATOM      6  N   UNL     1       1.201   8.142  21.586  0.00  0.00    +0.000 NA
ATOM      7  C   UNL     1       0.657   9.228  22.177  0.00  0.00    +0.000 A 
ATOM      8  C   UNL     1       0.440  10.427  21.533  0.00  0.00    +0.000 A 
ATOM      9  C   UNL     1       0.823  10.514  20.204  0.00  0.00    +0.000 A 
ATOM     10  C   UNL     1       1.406   9.399  19.571  0.00  0.00    +0.000 A 
ENDROOT
BRANCH   3  11
ATOM     11  C   UNL     1       3.042   5.839  17.927  0.00  0.00    +0.000 A 
ATOM     12  C   UNL     1       2.164   4.728  17.889  0.00  0.00    +0.000 A 
ATOM     13  C   UNL     1       2.571   3.481  17.426  0.00  0.00    +0.000 A 
ATOM     14  C   UNL     1       3.876   3.300  16.996  0.00  0.00    +0.000 A 
ATOM     15  C   UNL     1       4.791   4.359  17.014  0.00  0.00    +0.000 A 
ATOM     16  C   UNL     1       6.105   4.125  16.572  0.00  0.00    +0.000 A 
ATOM     17  C   UNL     1       7.055   5.143  16.563  0.00  0.00    +0.000 A 
ATOM     18  C   UNL     1       6.695   6.412  16.990  0.00  0.00    +0.000 A 
ATOM     19  C   UNL     1       5.390   6.658  17.427  0.00  0.00    +0.000 A 
ATOM     20  C   UNL     1       4.393   5.648  17.469  0.00  0.00    +0.000 A 
ENDBRANCH   3  11
BRANCH   1  21
ATOM     21  O   UNL     1       1.691  10.542  17.489  0.00  0.00    +0.000 OA
ATOM     22  H   UNL     1       1.166  10.342  16.697  0.00  0.00    +0.000 HD
ENDBRANCH   1  21
TORSDOF 2
ENDMDL
MODEL 3
REMARK VINA RESULT:      -8.0      3.813      7.299
REMARK  Name = 
REMARK  2 active torsions:
REMARK  status: ('A' for Active; 'I' for Inactive)
REMARK    1  A    between atoms: O_1  and  C_2
REMARK    2  A    between atoms: C_4  and  C_5
REMARK                            x       y       z     vdW  Elec       q    Type
REMARK                         _______ _______ _______ _____ _____    ______ ____
ROOT
ATOM      1  C   UNL     1       6.767   5.632  16.117  0.00  0.00    +0.000 A 
ATOM      2  C   UNL     1       5.842   5.271  17.084  0.00  0.00    +0.000 A 
ATOM      3  C   UNL     1       4.914   4.283  16.774  0.00  0.00    +0.000 A 
ATOM      4  N   UNL     1       4.897   3.701  15.551  0.00  0.00    +0.000 NA
ATOM      5  C   UNL     1       5.753   4.075  14.601  0.00  0.00    +0.000 A 
ATOM      6  N   UNL     1       5.643   3.494  13.402  0.00  0.00    +0.000 NA
ATOM      7  C   UNL     1       6.507   3.837  12.423  0.00  0.00    +0.000 A 
ATOM      8  C   UNL     1       7.520   4.758  12.578  0.00  0.00    +0.000 A 
ATOM      9  C   UNL     1       7.636   5.374  13.814  0.00  0.00    +0.000 A 
ATOM     10  C   UNL     1       6.737   5.044  14.846  0.00  0.00    +0.000 A 
ENDROOT
BRANCH   3  11
ATOM     11  C   UNL     1       3.936   3.762  17.773  0.00  0.00    +0.000 A 
ATOM     12  C   UNL     1       3.717   2.362  17.823  0.00  0.00    +0.000 A 
ATOM     13  C   UNL     1       2.810   1.789  18.708  0.00  0.00    +0.000 A 
ATOM     14  C   UNL     1       2.080   2.598  19.564  0.00  0.00    +0.000 A 
ATOM     15  C   UNL     1       2.249   3.987  19.558  0.00  0.00    +0.000 A 
ATOM     16  C   UNL     1       1.484   4.766  20.443  0.00  0.00    +0.000 A 
ATOM     17  C   UNL     1       1.616   6.152  20.483  0.00  0.00    +0.000 A 
ATOM     18  C   UNL     1       2.524   6.773  19.641  0.00  0.00    +0.000 A 
ATOM     19  C   UNL     1       3.296   6.008  18.760  0.00  0.00    +0.000 A 
ATOM     20  C   UNL     1       3.184   4.595  18.672  0.00  0.00    +0.000 A 
ENDBRANCH   3  11
BRANCH   1  21
ATOM     21  O   UNL     1       7.723   6.573  16.399  0.00  0.00    +0.000 OA
ATOM     22  H   UNL     1       7.957   7.052  15.587  0.00  0.00    +0.000 HD
ENDBRANCH   1  21
TORSDOF 2
ENDMDL
MODEL 4
REMARK VINA RESULT:      -7.8      1.509      1.655
REMARK  Name = 
REMARK  2 active torsions:
REMARK  status: ('A' for Active; 'I' for Inactive)
REMARK    1  A    between atoms: O_1  and  C_2
REMARK    2  A    between atoms: C_4  and  C_5
REMARK                            x       y       z     vdW  Elec       q    Type
REMARK                         _______ _______ _______ _____ _____    ______ ____
ROOT
ATOM      1  C   UNL     1       1.802   9.441  18.331  0.00  0.00    +0.000 A 
ATOM      2  C   UNL     1       2.468   8.262  18.033  0.00  0.00    +0.000 A 
ATOM      3  C   UNL     1       2.478   7.251  18.987  0.00  0.00    +0.000 A 
ATOM      4  N   UNL     1       1.873   7.417  20.187  0.00  0.00    +0.000 NA
ATOM      5  C   UNL     1       1.271   8.565  20.499  0.00  0.00    +0.000 A 
ATOM      6  N   UNL     1       0.742   8.676  21.721  0.00  0.00    +0.000 NA
ATOM      7  C   UNL     1       0.108   9.819  22.062  0.00  0.00    +0.000 A 
ATOM      8  C   UNL     1      -0.040  10.898  21.218  0.00  0.00    +0.000 A 
ATOM      9  C   UNL     1       0.515  10.797  19.952  0.00  0.00    +0.000 A 
ATOM     10  C   UNL     1       1.193   9.621  19.579  0.00  0.00    +0.000 A 
ENDROOT
BRANCH   3  11
ATOM     11  C   UNL     1       3.089   5.914  18.729  0.00  0.00    +0.000 A 
ATOM     12  C   UNL     1       3.843   5.745  17.541  0.00  0.00    +0.000 A 
ATOM     13  C   UNL     1       4.431   4.530  17.207  0.00  0.00    +0.000 A 
ATOM     14  C   UNL     1       4.273   3.437  18.044  0.00  0.00    +0.000 A 
ATOM     15  C   UNL     1       3.536   3.541  19.230  0.00  0.00    +0.000 A 
ATOM     16  C   UNL     1       3.401   2.404  20.046  0.00  0.00    +0.000 A 
ATOM     17  C   UNL     1       2.684   2.453  21.238  0.00  0.00    +0.000 A 
ATOM     18  C   UNL     1       2.099   3.646  21.631  0.00  0.00    +0.000 A 
ATOM     19  C   UNL     1       2.231   4.785  20.831  0.00  0.00    +0.000 A 
ATOM     20  C   UNL     1       2.939   4.780  19.600  0.00  0.00    +0.000 A 
ENDBRANCH   3  11
BRANCH   1  21
ATOM     21  O   UNL     1       1.735  10.446  17.400  0.00  0.00    +0.000 OA
ATOM     22  H   UNL     1       0.944  10.986  17.561  0.00  0.00    +0.000 HD
ENDBRANCH   1  21
TORSDOF 2
ENDMDL
MODEL 5
REMARK VINA RESULT:      -7.8      1.597      2.135
REMARK  Name = 
REMARK  2 active torsions:
REMARK  status: ('A' for Active; 'I' for Inactive)
REMARK    1  A    between atoms: O_1  and  C_2
REMARK    2  A    between atoms: C_4  and  C_5
REMARK                            x       y       z     vdW  Elec       q    Type
REMARK                         _______ _______ _______ _____ _____    ______ ____
ROOT
ATOM      1  C   UNL     1       1.457   8.462  20.971  0.00  0.00    +0.000 A 
ATOM      2  C   UNL     1       2.146   7.447  20.327  0.00  0.00    +0.000 A 
ATOM      3  C   UNL     1       2.253   7.497  18.941  0.00  0.00    +0.000 A 
ATOM      4  N   UNL     1       1.680   8.499  18.233  0.00  0.00    +0.000 NA
ATOM      5  C   UNL     1       0.976   9.454  18.842  0.00  0.00    +0.000 A 
ATOM      6  N   UNL     1       0.396  10.381  18.075  0.00  0.00    +0.000 NA
ATOM      7  C   UNL     1      -0.309  11.373  18.661  0.00  0.00    +0.000 A 
ATOM      8  C   UNL     1      -0.468  11.503  20.023  0.00  0.00    +0.000 A 
ATOM      9  C   UNL     1       0.121  10.541  20.827  0.00  0.00    +0.000 A 
ATOM     10  C   UNL     1       0.848   9.488  20.237  0.00  0.00    +0.000 A 
ENDROOT
BRANCH   3  11
ATOM     11  C   UNL     1       3.048   6.502  18.164  0.00  0.00    +0.000 A 
ATOM     12  C   UNL     1       4.151   6.975  17.410  0.00  0.00    +0.000 A 
ATOM     13  C   UNL     1       4.936   6.125  16.639  0.00  0.00    +0.000 A 
ATOM     14  C   UNL     1       4.636   4.773  16.584  0.00  0.00    +0.000 A 
ATOM     15  C   UNL     1       3.557   4.247  17.304  0.00  0.00    +0.000 A 
ATOM     16  C   UNL     1       3.290   2.870  17.215  0.00  0.00    +0.000 A 
ATOM     17  C   UNL     1       2.232   2.294  17.913  0.00  0.00    +0.000 A 
ATOM     18  C   UNL     1       1.434   3.091  18.717  0.00  0.00    +0.000 A 
ATOM     19  C   UNL     1       1.692   4.462  18.818  0.00  0.00    +0.000 A 
ATOM     20  C   UNL     1       2.749   5.096  18.112  0.00  0.00    +0.000 A 
ENDBRANCH   3  11
BRANCH   1  21
ATOM     21  O   UNL     1       1.366   8.469  22.339  0.00  0.00    +0.000 OA
ATOM     22  H   UNL     1       2.149   8.040  22.720  0.00  0.00    +0.000 HD
ENDBRANCH   1  21
TORSDOF 2
ENDMDL
MODEL 6
REMARK VINA RESULT:      -7.8      3.475      6.621
REMARK  Name = 
REMARK  2 active torsions:
REMARK  status: ('A' for Active; 'I' for Inactive)
REMARK    1  A    between atoms: O_1  and  C_2
REMARK    2  A    between atoms: C_4  and  C_5
REMARK                            x       y       z     vdW  Elec       q    Type
REMARK                         _______ _______ _______ _____ _____    ______ ____
ROOT
ATOM      1  C   UNL     1       6.725   6.372  16.748  0.00  0.00    +0.000 A 
ATOM      2  C   UNL     1       5.778   6.518  17.750  0.00  0.00    +0.000 A 
ATOM      3  C   UNL     1       4.620   5.752  17.681  0.00  0.00    +0.000 A 
ATOM      4  N   UNL     1       4.408   4.900  16.650  0.00  0.00    +0.000 NA
ATOM      5  C   UNL     1       5.292   4.788  15.659  0.00  0.00    +0.000 A 
ATOM      6  N   UNL     1       4.992   3.966  14.648  0.00  0.00    +0.000 NA
ATOM      7  C   UNL     1       5.874   3.816  13.638  0.00  0.00    +0.000 A 
ATOM      8  C   UNL     1       7.092   4.458  13.577  0.00  0.00    +0.000 A 
ATOM      9  C   UNL     1       7.409   5.321  14.614  0.00  0.00    +0.000 A 
ATOM     10  C   UNL     1       6.497   5.505  15.672  0.00  0.00    +0.000 A 
ENDROOT
BRANCH   3  11
ATOM     11  C   UNL     1       3.584   5.770  18.754  0.00  0.00    +0.000 A 
ATOM     12  C   UNL     1       2.837   6.960  18.939  0.00  0.00    +0.000 A 
ATOM     13  C   UNL     1       1.866   7.076  19.927  0.00  0.00    +0.000 A 
ATOM     14  C   UNL     1       1.617   6.008  20.775  0.00  0.00    +0.000 A 
ATOM     15  C   UNL     1       2.326   4.808  20.644  0.00  0.00    +0.000 A 
ATOM     16  C   UNL     1       2.041   3.754  21.529  0.00  0.00    +0.000 A 
ATOM     17  C   UNL     1       2.711   2.537  21.442  0.00  0.00    +0.000 A 
ATOM     18  C   UNL     1       3.670   2.359  20.458  0.00  0.00    +0.000 A 
ATOM     19  C   UNL     1       3.959   3.398  19.567  0.00  0.00    +0.000 A 
ATOM     20  C   UNL     1       3.313   4.661  19.629  0.00  0.00    +0.000 A 
ENDBRANCH   3  11
BRANCH   1  21
ATOM     21  O   UNL     1       7.898   7.080  16.804  0.00  0.00    +0.000 OA
ATOM     22  H   UNL     1       8.100   7.304  17.726  0.00  0.00    +0.000 HD
ENDBRANCH   1  21
TORSDOF 2
ENDMDL
MODEL 7
REMARK VINA RESULT:      -7.6      1.200      2.475
REMARK  Name = 
REMARK  2 active torsions:
REMARK  status: ('A' for Active; 'I' for Inactive)
REMARK    1  A    between atoms: O_1  and  C_2
REMARK    2  A    between atoms: C_4  and  C_5
REMARK                            x       y       z     vdW  Elec       q    Type
REMARK                         _______ _______ _______ _____ _____    ______ ____
ROOT
ATOM      1  C   UNL     1       1.193   9.662  18.870  0.00  0.00    +0.000 A 
ATOM      2  C   UNL     1       1.895   8.501  18.588  0.00  0.00    +0.000 A 
ATOM      3  C   UNL     1       2.031   7.551  19.594  0.00  0.00    +0.000 A 
ATOM      4  N   UNL     1       1.512   7.761  20.827  0.00  0.00    +0.000 NA
ATOM      5  C   UNL     1       0.876   8.896  21.120  0.00  0.00    +0.000 A 
ATOM      6  N   UNL     1       0.437   9.056  22.372  0.00  0.00    +0.000 NA
ATOM      7  C   UNL     1      -0.228  10.185  22.696  0.00  0.00    +0.000 A 
ATOM      8  C   UNL     1      -0.497  11.203  21.807  0.00  0.00    +0.000 A 
ATOM      9  C   UNL     1      -0.036  11.052  20.509  0.00  0.00    +0.000 A 
ATOM     10  C   UNL     1       0.673   9.888  20.151  0.00  0.00    +0.000 A 
ENDROOT
BRANCH   3  11
ATOM     11  C   UNL     1       2.690   6.232  19.365  0.00  0.00    +0.000 A 
ATOM     12  C   UNL     1       2.372   5.167  20.244  0.00  0.00    +0.000 A 
ATOM     13  C   UNL     1       2.952   3.909  20.120  0.00  0.00    +0.000 A 
ATOM     14  C   UNL     1       3.882   3.677  19.119  0.00  0.00    +0.000 A 
ATOM     15  C   UNL     1       4.239   4.691  18.222  0.00  0.00    +0.000 A 
ATOM     16  C   UNL     1       5.189   4.408  17.226  0.00  0.00    +0.000 A 
ATOM     17  C   UNL     1       5.578   5.377  16.305  0.00  0.00    +0.000 A 
ATOM     18  C   UNL     1       5.012   6.640  16.367  0.00  0.00    +0.000 A 
ATOM     19  C   UNL     1       4.062   6.932  17.351  0.00  0.00    +0.000 A 
ATOM     20  C   UNL     1       3.647   5.982  18.321  0.00  0.00    +0.000 A 
ENDBRANCH   3  11
BRANCH   1  21
ATOM     21  O   UNL     1       1.002  10.604  17.892  0.00  0.00    +0.000 OA
ATOM     22  H   UNL     1       0.692  10.172  17.080  0.00  0.00    +0.000 HD
ENDBRANCH   1  21
TORSDOF 2
ENDMDL
MODEL 8
REMARK VINA RESULT:      -7.6      1.954      2.522
REMARK  Name = 
REMARK  2 active torsions:
REMARK  status: ('A' for Active; 'I' for Inactive)
REMARK    1  A    between atoms: O_1  and  C_2
REMARK    2  A    between atoms: C_4  and  C_5
REMARK                            x       y       z     vdW  Elec       q    Type
REMARK                         _______ _______ _______ _____ _____    ______ ____
ROOT
ATOM      1  C   UNL     1       1.145   9.190  21.671  0.00  0.00    +0.000 A 
ATOM      2  C   UNL     1       1.704   8.041  21.134  0.00  0.00    +0.000 A 
ATOM      3  C   UNL     1       1.820   7.947  19.751  0.00  0.00    +0.000 A 
ATOM      4  N   UNL     1       1.380   8.942  18.945  0.00  0.00    +0.000 NA
ATOM      5  C   UNL     1       0.799  10.030  19.452  0.00  0.00    +0.000 A 
ATOM      6  N   UNL     1       0.341  10.946  18.594  0.00  0.00    +0.000 NA
ATOM      7  C   UNL     1      -0.236  12.068  19.075  0.00  0.00    +0.000 A 
ATOM      8  C   UNL     1      -0.382  12.344  20.417  0.00  0.00    +0.000 A 
ATOM      9  C   UNL     1       0.079  11.395  21.315  0.00  0.00    +0.000 A 
ATOM     10  C   UNL     1       0.671  10.210  20.837  0.00  0.00    +0.000 A 
ENDROOT
BRANCH   3  11
ATOM     11  C   UNL     1       2.488   6.794  19.081  0.00  0.00    +0.000 A 
ATOM     12  C   UNL     1       3.401   7.070  18.033  0.00  0.00    +0.000 A 
ATOM     13  C   UNL     1       4.054   6.058  17.337  0.00  0.00    +0.000 A 
ATOM     14  C   UNL     1       3.805   4.732  17.658  0.00  0.00    +0.000 A 
ATOM     15  C   UNL     1       2.911   4.397  18.682  0.00  0.00    +0.000 A 
ATOM     16  C   UNL     1       2.689   3.039  18.969  0.00  0.00    +0.000 A 
ATOM     17  C   UNL     1       1.814   2.649  19.979  0.00  0.00    +0.000 A 
ATOM     18  C   UNL     1       1.156   3.617  20.720  0.00  0.00    +0.000 A 
ATOM     19  C   UNL     1       1.373   4.972  20.448  0.00  0.00    +0.000 A 
ATOM     20  C   UNL     1       2.243   5.417  19.417  0.00  0.00    +0.000 A 
ENDBRANCH   3  11
BRANCH   1  21
ATOM     21  O   UNL     1       1.050   9.336  23.031  0.00  0.00    +0.000 OA
ATOM     22  H   UNL     1       1.851   9.770  23.368  0.00  0.00    +0.000 HD
ENDBRANCH   1  21
TORSDOF 2
ENDMDL
MODEL 9
REMARK VINA RESULT:      -7.5      1.449      1.696
REMARK  Name = 
REMARK  2 active torsions:
REMARK  status: ('A' for Active; 'I' for Inactive)
REMARK    1  A    between atoms: O_1  and  C_2
REMARK    2  A    between atoms: C_4  and  C_5
REMARK                            x       y       z     vdW  Elec       q    Type
REMARK                         _______ _______ _______ _____ _____    ______ ____
ROOT
ATOM      1  C   UNL     1      -0.025  10.349  18.594  0.00  0.00    +0.000 A 
ATOM      2  C   UNL     1       0.891   9.413  18.142  0.00  0.00    +0.000 A 
ATOM      3  C   UNL     1       1.576   8.651  19.082  0.00  0.00    +0.000 A 
ATOM      4  N   UNL     1       1.372   8.831  20.408  0.00  0.00    +0.000 NA
ATOM      5  C   UNL     1       0.528   9.762  20.853  0.00  0.00    +0.000 A 
ATOM      6  N   UNL     1       0.417   9.919  22.175  0.00  0.00    +0.000 NA
ATOM      7  C   UNL     1      -0.444  10.840  22.659  0.00  0.00    +0.000 A 
ATOM      8  C   UNL     1      -1.239  11.641  21.868  0.00  0.00    +0.000 A 
ATOM      9  C   UNL     1      -1.124  11.493  20.495  0.00  0.00    +0.000 A 
ATOM     10  C   UNL     1      -0.221  10.549  19.967  0.00  0.00    +0.000 A 
ENDROOT
BRANCH   3  11
ATOM     11  C   UNL     1       2.514   7.558  18.694  0.00  0.00    +0.000 A 
ATOM     12  C   UNL     1       3.418   7.801  17.630  0.00  0.00    +0.000 A 
ATOM     13  C   UNL     1       4.314   6.835  17.187  0.00  0.00    +0.000 A 
ATOM     14  C   UNL     1       4.327   5.584  17.785  0.00  0.00    +0.000 A 
ATOM     15  C   UNL     1       3.455   5.282  18.837  0.00  0.00    +0.000 A 
ATOM     16  C   UNL     1       3.504   3.999  19.410  0.00  0.00    +0.000 A 
ATOM     17  C   UNL     1       2.663   3.647  20.462  0.00  0.00    +0.000 A 
ATOM     18  C   UNL     1       1.769   4.580  20.959  0.00  0.00    +0.000 A 
ATOM     19  C   UNL     1       1.715   5.862  20.403  0.00  0.00    +0.000 A 
ATOM     20  C   UNL     1       2.540   6.262  19.318  0.00  0.00    +0.000 A 
ENDBRANCH   3  11
BRANCH   1  21
ATOM     21  O   UNL     1      -0.750  11.091  17.698  0.00  0.00    +0.000 OA
ATOM     22  H   UNL     1      -0.215  11.256  16.905  0.00  0.00    +0.000 HD
ENDBRANCH   1  21
TORSDOF 2
ENDMDL
