MODEL 1
REMARK VINA RESULT:      -8.4      0.000      0.000
REMARK  Name = 
REMARK  9 active torsions:
REMARK  status: ('A' for Active; 'I' for Inactive)
REMARK    1  A    between atoms: C_1  and  C_2
REMARK    2  A    between atoms: C_5  and  N_6
REMARK    3  A    between atoms: N_6  and  S_7
REMARK    4  A    between atoms: S_7  and  C_10
REMARK    5  A    between atoms: C_12  and  N_13
REMARK    6  A    between atoms: C_14  and  C_16
REMARK    7  A    between atoms: C_18  and  O_19
REMARK    8  A    between atoms: C_21  and  O_22
REMARK    9  A    between atoms: C_28  and  C_29
REMARK                            x       y       z     vdW  Elec       q    Type
REMARK                         _______ _______ _______ _____ _____    ______ ____
ROOT
ATOM      1  C   UNL     1       2.663   3.947  19.528  0.00  0.00    +0.000 A 
ATOM      2  C   UNL     1       3.343   4.247  18.339  0.00  0.00    +0.000 A 
ATOM      3  C   UNL     1       3.880   3.244  17.514  0.00  0.00    +0.000 A 
ATOM      4  C   UNL     1       3.713   1.914  17.897  0.00  0.00    +0.000 A 
ATOM      5  C   UNL     1       3.029   1.600  19.080  0.00  0.00    +0.000 A 
ATOM      6  C   UNL     1       2.504   2.610  19.900  0.00  0.00    +0.000 A 
ATOM      7 CL   UNL     1       1.685   2.099  21.330  0.00  0.00    +0.000 Cl
ENDROOT
BRANCH   3   8
ATOM      8  N   UNL     1       4.579   3.524  16.310  0.00  0.00    +0.000 N 
ATOM      9  C   UNL     1       5.865   4.042  16.223  0.00  0.00    +0.000 C 
ATOM     10  O   UNL     1       6.593   4.310  17.177  0.00  0.00    +0.000 OA
ATOM     11  H   UNL     1       4.117   3.329  15.424  0.00  0.00    +0.000 HD
BRANCH   9  12
ATOM     12  C   UNL     1       6.415   4.290  14.857  0.00  0.00    +0.000 A 
ATOM     13  C   UNL     1       5.838   3.595  13.808  0.00  0.00    +0.000 A 
ATOM     14  C   UNL     1       6.375   3.831  12.579  0.00  0.00    +0.000 A 
ATOM     15  N   UNL     1       7.390   4.669  12.363  0.00  0.00    +0.000 NA
ATOM     16  C   UNL     1       7.857   5.281  13.451  0.00  0.00    +0.000 A 
ATOM     17  N   UNL     1       7.437   5.154  14.719  0.00  0.00    +0.000 NA
BRANCH  14  18
ATOM     18  O   UNL     1       5.894   3.199  11.469  0.00  0.00    +0.000 OA
ATOM     19  H   UNL     1       5.012   3.549  11.264  0.00  0.00    +0.000 HD
ENDBRANCH  14  18
BRANCH  16  20
ATOM     20  O   UNL     1       8.899   6.117  13.206  0.00  0.00    +0.000 OA
ATOM     21  H   UNL     1       8.434   6.967  13.314  0.00  0.00    +0.000 HD
ENDBRANCH  16  20
ENDBRANCH   9  12
ENDBRANCH   3   8
BRANCH   1  22
ATOM     22  S   UNL     1       2.021   5.234  20.581  0.00  0.00    +0.000 S 
ATOM     23  O   UNL     1       2.495   4.927  21.916  0.00  0.00    +0.000 OA
ATOM     24  O   UNL     1       0.611   5.349  20.272  0.00  0.00    +0.000 OA
BRANCH  22  25
ATOM     25  N   UNL     1       2.736   6.690  20.116  0.00  0.00    +0.000 N 
ATOM     26  H   UNL     1       3.734   6.854  20.180  0.00  0.00    +0.000 HD
BRANCH  25  31
ATOM     27  C   UNL     1      -0.780  11.226  19.900  0.00  0.00    +0.000 C 
ATOM     28  C   UNL     1       0.149  10.048  19.956  0.00  0.00    +0.000 A 
ATOM     29  C   UNL     1       0.335   9.329  21.139  0.00  0.00    +0.000 A 
ATOM     30  C   UNL     1       1.209   8.239  21.174  0.00  0.00    +0.000 A 
ATOM     31  C   UNL     1       1.906   7.848  20.028  0.00  0.00    +0.000 A 
ATOM     32  C   UNL     1       1.727   8.548  18.826  0.00  0.00    +0.000 A 
ATOM     33  C   UNL     1       2.436   8.203  17.548  0.00  0.00    +0.000 C 
ATOM     34  C   UNL     1       0.851   9.653  18.809  0.00  0.00    +0.000 A 
ENDBRANCH  25  31
ENDBRANCH  22  25
ENDBRANCH   1  22
TORSDOF 7
ENDMDL
MODEL 2
REMARK VINA RESULT:      -8.0      0.515      1.319
REMARK  Name = 
REMARK  9 active torsions:
REMARK  status: ('A' for Active; 'I' for Inactive)
REMARK    1  A    between atoms: C_1  and  C_2
REMARK    2  A    between atoms: C_5  and  N_6
REMARK    3  A    between atoms: N_6  and  S_7
REMARK    4  A    between atoms: S_7  and  C_10
REMARK    5  A    between atoms: C_12  and  N_13
REMARK    6  A    between atoms: C_14  and  C_16
REMARK    7  A    between atoms: C_18  and  O_19
REMARK    8  A    between atoms: C_21  and  O_22
REMARK    9  A    between atoms: C_28  and  C_29
REMARK                            x       y       z     vdW  Elec       q    Type
REMARK                         _______ _______ _______ _____ _____    ______ ____
ROOT
ATOM      1  C   UNL     1       2.578   4.185  19.440  0.00  0.00    +0.000 A 
ATOM      2  C   UNL     1       3.289   4.459  18.263  0.00  0.00    +0.000 A 
ATOM      3  C   UNL     1       3.796   3.436  17.443  0.00  0.00    +0.000 A 
ATOM      4  C   UNL     1       3.568   2.113  17.820  0.00  0.00    +0.000 A 
ATOM      5  C   UNL     1       2.852   1.826  18.991  0.00  0.00    +0.000 A 
ATOM      6  C   UNL     1       2.357   2.854  19.805  0.00  0.00    +0.000 A 
ATOM      7 CL   UNL     1       1.494   2.374  21.220  0.00  0.00    +0.000 Cl
ENDROOT
BRANCH   3   8
ATOM      8  N   UNL     1       4.526   3.690  16.252  0.00  0.00    +0.000 N 
ATOM      9  C   UNL     1       5.860   4.071  16.185  0.00  0.00    +0.000 C 
ATOM     10  O   UNL     1       6.609   4.221  17.150  0.00  0.00    +0.000 OA
ATOM     11  H   UNL     1       4.050   3.581  15.358  0.00  0.00    +0.000 HD
BRANCH   9  12
ATOM     12  C   UNL     1       6.439   4.315  14.831  0.00  0.00    +0.000 A 
ATOM     13  C   UNL     1       5.905   3.594  13.777  0.00  0.00    +0.000 A 
ATOM     14  C   UNL     1       6.467   3.828  12.559  0.00  0.00    +0.000 A 
ATOM     15  N   UNL     1       7.468   4.687  12.357  0.00  0.00    +0.000 NA
ATOM     16  C   UNL     1       7.893   5.322  13.449  0.00  0.00    +0.000 A 
ATOM     17  N   UNL     1       7.445   5.201  14.707  0.00  0.00    +0.000 NA
BRANCH  14  18
ATOM     18  O   UNL     1       6.029   3.171  11.445  0.00  0.00    +0.000 OA
ATOM     19  H   UNL     1       6.577   2.381  11.310  0.00  0.00    +0.000 HD
ENDBRANCH  14  18
BRANCH  16  20
ATOM     20  O   UNL     1       8.921   6.180  13.219  0.00  0.00    +0.000 OA
ATOM     21  H   UNL     1       9.378   5.677  12.520  0.00  0.00    +0.000 HD
ENDBRANCH  16  20
ENDBRANCH   9  12
ENDBRANCH   3   8
BRANCH   1  22
ATOM     22  S   UNL     1       1.973   5.495  20.486  0.00  0.00    +0.000 S 
ATOM     23  O   UNL     1       2.475   5.206  21.814  0.00  0.00    +0.000 OA
ATOM     24  O   UNL     1       0.557   5.619  20.209  0.00  0.00    +0.000 OA
BRANCH  22  25
ATOM     25  N   UNL     1       2.690   6.936  19.980  0.00  0.00    +0.000 N 
ATOM     26  H   UNL     1       3.652   7.171  20.192  0.00  0.00    +0.000 HD
BRANCH  25  31
ATOM     27  C   UNL     1      -0.577  11.367  18.344  0.00  0.00    +0.000 C 
ATOM     28  C   UNL     1       0.267  10.202  18.775  0.00  0.00    +0.000 A 
ATOM     29  C   UNL     1       0.897   9.380  17.839  0.00  0.00    +0.000 A 
ATOM     30  C   UNL     1       1.673   8.295  18.258  0.00  0.00    +0.000 A 
ATOM     31  C   UNL     1       1.836   8.021  19.618  0.00  0.00    +0.000 A 
ATOM     32  C   UNL     1       1.222   8.840  20.577  0.00  0.00    +0.000 A 
ATOM     33  C   UNL     1       1.337   8.619  22.058  0.00  0.00    +0.000 C 
ATOM     34  C   UNL     1       0.432   9.923  20.138  0.00  0.00    +0.000 A 
ENDBRANCH  25  31
ENDBRANCH  22  25
ENDBRANCH   1  22
TORSDOF 7
ENDMDL
MODEL 3
REMARK VINA RESULT:      -7.8      4.243      6.942
REMARK  Name = 
REMARK  9 active torsions:
REMARK  status: ('A' for Active; 'I' for Inactive)
REMARK    1  A    between atoms: C_1  and  C_2
REMARK    2  A    between atoms: C_5  and  N_6
REMARK    3  A    between atoms: N_6  and  S_7
REMARK    4  A    between atoms: S_7  and  C_10
REMARK    5  A    between atoms: C_12  and  N_13
REMARK    6  A    between atoms: C_14  and  C_16
REMARK    7  A    between atoms: C_18  and  O_19
REMARK    8  A    between atoms: C_21  and  O_22
REMARK    9  A    between atoms: C_28  and  C_29
REMARK                            x       y       z     vdW  Elec       q    Type
REMARK                         _______ _______ _______ _____ _____    ______ ____
ROOT
ATOM      1  C   UNL     1      -0.258  10.624  20.683  0.00  0.00    +0.000 A 
ATOM      2  C   UNL     1       0.615   9.780  19.982  0.00  0.00    +0.000 A 
ATOM      3  C   UNL     1       1.304   8.731  20.614  0.00  0.00    +0.000 A 
ATOM      4  C   UNL     1       1.093   8.528  21.977  0.00  0.00    +0.000 A 
ATOM      5  C   UNL     1       0.216   9.360  22.687  0.00  0.00    +0.000 A 
ATOM      6  C   UNL     1      -0.460  10.409  22.048  0.00  0.00    +0.000 A 
ATOM      7 CL   UNL     1      -1.511  11.365  23.029  0.00  0.00    +0.000 Cl
ENDROOT
BRANCH   3   8
ATOM      8  N   UNL     1       2.200   7.869  19.927  0.00  0.00    +0.000 N 
ATOM      9  C   UNL     1       2.220   6.483  20.019  0.00  0.00    +0.000 C 
ATOM     10  O   UNL     1       1.447   5.801  20.688  0.00  0.00    +0.000 OA
ATOM     11  H   UNL     1       2.891   8.284  19.305  0.00  0.00    +0.000 HD
BRANCH   9  12
ATOM     12  C   UNL     1       3.262   5.757  19.234  0.00  0.00    +0.000 A 
ATOM     13  C   UNL     1       3.637   6.308  18.020  0.00  0.00    +0.000 A 
ATOM     14  C   UNL     1       4.576   5.613  17.322  0.00  0.00    +0.000 A 
ATOM     15  N   UNL     1       5.121   4.471  17.748  0.00  0.00    +0.000 NA
ATOM     16  C   UNL     1       4.681   4.044  18.931  0.00  0.00    +0.000 A 
ATOM     17  N   UNL     1       3.768   4.614  19.732  0.00  0.00    +0.000 NA
BRANCH  14  18
ATOM     18  O   UNL     1       5.020   6.054  16.109  0.00  0.00    +0.000 OA
ATOM     19  H   UNL     1       4.464   5.670  15.412  0.00  0.00    +0.000 HD
ENDBRANCH  14  18
BRANCH  16  20
ATOM     20  O   UNL     1       5.240   2.875  19.335  0.00  0.00    +0.000 OA
ATOM     21  H   UNL     1       4.466   2.487  19.782  0.00  0.00    +0.000 HD
ENDBRANCH  16  20
ENDBRANCH   9  12
ENDBRANCH   3   8
BRANCH   1  22
ATOM     22  S   UNL     1      -1.096  11.973  19.872  0.00  0.00    +0.000 S 
ATOM     23  O   UNL     1      -0.417  12.156  18.605  0.00  0.00    +0.000 OA
ATOM     24  O   UNL     1      -1.201  13.036  20.850  0.00  0.00    +0.000 OA
BRANCH  22  25
ATOM     25  N   UNL     1      -2.672  11.475  19.531  0.00  0.00    +0.000 N 
ATOM     26  H   UNL     1      -3.313  11.161  20.249  0.00  0.00    +0.000 HD
BRANCH  25  31
ATOM     27  C   UNL     1      -3.666   9.971  14.079  0.00  0.00    +0.000 C 
ATOM     28  C   UNL     1      -3.415  10.356  15.508  0.00  0.00    +0.000 A 
ATOM     29  C   UNL     1      -2.276   9.917  16.186  0.00  0.00    +0.000 A 
ATOM     30  C   UNL     1      -2.062  10.280  17.519  0.00  0.00    +0.000 A 
ATOM     31  C   UNL     1      -2.980  11.091  18.191  0.00  0.00    +0.000 A 
ATOM     32  C   UNL     1      -4.125  11.554  17.527  0.00  0.00    +0.000 A 
ATOM     33  C   UNL     1      -5.166  12.425  18.170  0.00  0.00    +0.000 C 
ATOM     34  C   UNL     1      -4.333  11.169  16.186  0.00  0.00    +0.000 A 
ENDBRANCH  25  31
ENDBRANCH  22  25
ENDBRANCH   1  22
TORSDOF 7
ENDMDL
MODEL 4
REMARK VINA RESULT:      -7.8      0.573      1.469
REMARK  Name = 
REMARK  9 active torsions:
REMARK  status: ('A' for Active; 'I' for Inactive)
REMARK    1  A    between atoms: C_1  and  C_2
REMARK    2  A    between atoms: C_5  and  N_6
REMARK    3  A    between atoms: N_6  and  S_7
REMARK    4  A    between atoms: S_7  and  C_10
REMARK    5  A    between atoms: C_12  and  N_13
REMARK    6  A    between atoms: C_14  and  C_16
REMARK    7  A    between atoms: C_18  and  O_19
REMARK    8  A    between atoms: C_21  and  O_22
REMARK    9  A    between atoms: C_28  and  C_29
REMARK                            x       y       z     vdW  Elec       q    Type
REMARK                         _______ _______ _______ _____ _____    ______ ____
ROOT
ATOM      1  C   UNL     1       2.544   3.974  19.586  0.00  0.00    +0.000 A 
ATOM      2  C   UNL     1       3.228   4.212  18.386  0.00  0.00    +0.000 A 
ATOM      3  C   UNL     1       3.714   3.165  17.584  0.00  0.00    +0.000 A 
ATOM      4  C   UNL     1       3.491   1.853  18.004  0.00  0.00    +0.000 A 
ATOM      5  C   UNL     1       2.802   1.602  19.199  0.00  0.00    +0.000 A 
ATOM      6  C   UNL     1       2.328   2.656  19.994  0.00  0.00    +0.000 A 
ATOM      7 CL   UNL     1       1.496   2.219  21.443  0.00  0.00    +0.000 Cl
ENDROOT
BRANCH   3   8
ATOM      8  N   UNL     1       4.417   3.381  16.370  0.00  0.00    +0.000 N 
ATOM      9  C   UNL     1       5.639   4.030  16.246  0.00  0.00    +0.000 C 
ATOM     10  O   UNL     1       6.300   4.489  17.176  0.00  0.00    +0.000 OA
ATOM     11  H   UNL     1       4.009   3.032  15.504  0.00  0.00    +0.000 HD
BRANCH   9  12
ATOM     12  C   UNL     1       6.202   4.179  14.872  0.00  0.00    +0.000 A 
ATOM     13  C   UNL     1       7.267   5.050  14.716  0.00  0.00    +0.000 A 
ATOM     14  C   UNL     1       7.745   5.175  13.448  0.00  0.00    +0.000 A 
ATOM     15  N   UNL     1       7.246   4.518  12.399  0.00  0.00    +0.000 NA
ATOM     16  C   UNL     1       6.225   3.707  12.677  0.00  0.00    +0.000 A 
ATOM     17  N   UNL     1       5.647   3.478  13.866  0.00  0.00    +0.000 NA
BRANCH  14  18
ATOM     18  O   UNL     1       8.789   6.011  13.170  0.00  0.00    +0.000 OA
ATOM     19  H   UNL     1       9.301   6.156  13.981  0.00  0.00    +0.000 HD
ENDBRANCH  14  18
BRANCH  16  20
ATOM     20  O   UNL     1       5.727   3.062  11.592  0.00  0.00    +0.000 OA
ATOM     21  H   UNL     1       6.231   3.527  10.899  0.00  0.00    +0.000 HD
ENDBRANCH  16  20
ENDBRANCH   9  12
ENDBRANCH   3   8
BRANCH   1  22
ATOM     22  S   UNL     1       1.966   5.316  20.608  0.00  0.00    +0.000 S 
ATOM     23  O   UNL     1       2.549   5.097  21.916  0.00  0.00    +0.000 OA
ATOM     24  O   UNL     1       0.535   5.396  20.407  0.00  0.00    +0.000 OA
BRANCH  22  25
ATOM     25  N   UNL     1       2.619   6.749  20.000  0.00  0.00    +0.000 N 
ATOM     26  H   UNL     1       3.614   6.881  19.862  0.00  0.00    +0.000 HD
BRANCH  25  31
ATOM     27  C   UNL     1      -0.749  11.381  20.431  0.00  0.00    +0.000 C 
ATOM     28  C   UNL     1       0.141  10.177  20.318  0.00  0.00    +0.000 A 
ATOM     29  C   UNL     1       0.362   9.335  21.410  0.00  0.00    +0.000 A 
ATOM     30  C   UNL     1       1.200   8.223  21.289  0.00  0.00    +0.000 A 
ATOM     31  C   UNL     1       1.825   7.933  20.074  0.00  0.00    +0.000 A 
ATOM     32  C   UNL     1       1.609   8.757  18.960  0.00  0.00    +0.000 A 
ATOM     33  C   UNL     1       2.242   8.526  17.618  0.00  0.00    +0.000 C 
ATOM     34  C   UNL     1       0.771   9.882  19.101  0.00  0.00    +0.000 A 
ENDBRANCH  25  31
ENDBRANCH  22  25
ENDBRANCH   1  22
TORSDOF 7
ENDMDL
MODEL 5
REMARK VINA RESULT:      -7.7      3.424      7.636
REMARK  Name = 
REMARK  9 active torsions:
REMARK  status: ('A' for Active; 'I' for Inactive)
REMARK    1  A    between atoms: C_1  and  C_2
REMARK    2  A    between atoms: C_5  and  N_6
REMARK    3  A    between atoms: N_6  and  S_7
REMARK    4  A    between atoms: S_7  and  C_10
REMARK    5  A    between atoms: C_12  and  N_13
REMARK    6  A    between atoms: C_14  and  C_16
REMARK    7  A    between atoms: C_18  and  O_19
REMARK    8  A    between atoms: C_21  and  O_22
REMARK    9  A    between atoms: C_28  and  C_29
REMARK                            x       y       z     vdW  Elec       q    Type
REMARK                         _______ _______ _______ _____ _____    ______ ____
ROOT
ATOM      1  C   UNL     1       2.593   4.457  18.821  0.00  0.00    +0.000 A 
ATOM      2  C   UNL     1       2.374   5.793  18.454  0.00  0.00    +0.000 A 
ATOM      3  C   UNL     1       2.091   6.790  19.403  0.00  0.00    +0.000 A 
ATOM      4  C   UNL     1       2.040   6.426  20.749  0.00  0.00    +0.000 A 
ATOM      5  C   UNL     1       2.265   5.095  21.129  0.00  0.00    +0.000 A 
ATOM      6  C   UNL     1       2.539   4.108  20.172  0.00  0.00    +0.000 A 
ATOM      7 CL   UNL     1       2.796   2.507  20.764  0.00  0.00    +0.000 Cl
ENDROOT
BRANCH   3   8
ATOM      8  N   UNL     1       1.857   8.147  19.055  0.00  0.00    +0.000 N 
ATOM      9  C   UNL     1       1.085   9.047  19.778  0.00  0.00    +0.000 C 
ATOM     10  O   UNL     1       0.513   8.804  20.840  0.00  0.00    +0.000 OA
ATOM     11  H   UNL     1       2.289   8.512  18.208  0.00  0.00    +0.000 HD
BRANCH   9  12
ATOM     12  C   UNL     1       0.941  10.427  19.228  0.00  0.00    +0.000 A 
ATOM     13  C   UNL     1      -0.285  11.048  19.392  0.00  0.00    +0.000 A 
ATOM     14  C   UNL     1      -0.388  12.298  18.864  0.00  0.00    +0.000 A 
ATOM     15  N   UNL     1       0.606  12.915  18.222  0.00  0.00    +0.000 NA
ATOM     16  C   UNL     1       1.737  12.217  18.132  0.00  0.00    +0.000 A 
ATOM     17  N   UNL     1       1.992  10.985  18.598  0.00  0.00    +0.000 NA
BRANCH  14  18
ATOM     18  O   UNL     1      -1.551  13.007  18.957  0.00  0.00    +0.000 OA
ATOM     19  H   UNL     1      -2.231  12.569  18.420  0.00  0.00    +0.000 HD
ENDBRANCH  14  18
BRANCH  16  20
ATOM     20  O   UNL     1       2.728  12.861  17.463  0.00  0.00    +0.000 OA
ATOM     21  H   UNL     1       3.149  12.088  17.043  0.00  0.00    +0.000 HD
ENDBRANCH  16  20
ENDBRANCH   9  12
ENDBRANCH   3   8
BRANCH   1  22
ATOM     22  S   UNL     1       2.916   3.200  17.600  0.00  0.00    +0.000 S 
ATOM     23  O   UNL     1       2.498   3.763  16.332  0.00  0.00    +0.000 OA
ATOM     24  O   UNL     1       2.353   1.971  18.119  0.00  0.00    +0.000 OA
BRANCH  22  25
ATOM     25  N   UNL     1       4.585   2.968  17.521  0.00  0.00    +0.000 N 
ATOM     26  H   UNL     1       5.027   2.087  17.755  0.00  0.00    +0.000 HD
BRANCH  25  31
ATOM     27  C   UNL     1       7.824   7.704  17.771  0.00  0.00    +0.000 C 
ATOM     28  C   UNL     1       6.987   6.460  17.702  0.00  0.00    +0.000 A 
ATOM     29  C   UNL     1       6.587   5.791  18.861  0.00  0.00    +0.000 A 
ATOM     30  C   UNL     1       5.814   4.630  18.778  0.00  0.00    +0.000 A 
ATOM     31  C   UNL     1       5.425   4.123  17.535  0.00  0.00    +0.000 A 
ATOM     32  C   UNL     1       5.806   4.783  16.358  0.00  0.00    +0.000 A 
ATOM     33  C   UNL     1       5.438   4.309  14.981  0.00  0.00    +0.000 C 
ATOM     34  C   UNL     1       6.596   5.947  16.458  0.00  0.00    +0.000 A 
ENDBRANCH  25  31
ENDBRANCH  22  25
ENDBRANCH   1  22
TORSDOF 7
ENDMDL
MODEL 6
REMARK VINA RESULT:      -7.7      4.792      7.715
REMARK  Name = 
REMARK  9 active torsions:
REMARK  status: ('A' for Active; 'I' for Inactive)
REMARK    1  A    between atoms: C_1  and  C_2
REMARK    2  A    between atoms: C_5  and  N_6
REMARK    3  A    between atoms: N_6  and  S_7
REMARK    4  A    between atoms: S_7  and  C_10
REMARK    5  A    between atoms: C_12  and  N_13
REMARK    6  A    between atoms: C_14  and  C_16
REMARK    7  A    between atoms: C_18  and  O_19
REMARK    8  A    between atoms: C_21  and  O_22
REMARK    9  A    between atoms: C_28  and  C_29
REMARK                            x       y       z     vdW  Elec       q    Type
REMARK                         _______ _______ _______ _____ _____    ______ ____
ROOT
ATOM      1  C   UNL     1       0.560  10.619  20.654  0.00  0.00    +0.000 A 
ATOM      2  C   UNL     1       0.920   9.301  20.970  0.00  0.00    +0.000 A 
ATOM      3  C   UNL     1       1.479   8.432  20.017  0.00  0.00    +0.000 A 
ATOM      4  C   UNL     1       1.687   8.915  18.725  0.00  0.00    +0.000 A 
ATOM      5  C   UNL     1       1.338  10.233  18.399  0.00  0.00    +0.000 A 
ATOM      6  C   UNL     1       0.774  11.088  19.356  0.00  0.00    +0.000 A 
ATOM      7 CL   UNL     1       0.386  12.687  18.833  0.00  0.00    +0.000 Cl
ENDROOT
BRANCH   3   8
ATOM      8  N   UNL     1       1.843   7.092  20.311  0.00  0.00    +0.000 N 
ATOM      9  C   UNL     1       2.683   6.295  19.544  0.00  0.00    +0.000 C 
ATOM     10  O   UNL     1       3.254   6.644  18.512  0.00  0.00    +0.000 OA
ATOM     11  H   UNL     1       1.471   6.662  21.155  0.00  0.00    +0.000 HD
BRANCH   9  12
ATOM     12  C   UNL     1       2.921   4.897  20.012  0.00  0.00    +0.000 A 
ATOM     13  C   UNL     1       2.045   4.389  20.956  0.00  0.00    +0.000 A 
ATOM     14  C   UNL     1       2.301   3.119  21.374  0.00  0.00    +0.000 A 
ATOM     15  N   UNL     1       3.320   2.383  20.927  0.00  0.00    +0.000 NA
ATOM     16  C   UNL     1       4.090   2.981  20.018  0.00  0.00    +0.000 A 
ATOM     17  N   UNL     1       3.968   4.216  19.510  0.00  0.00    +0.000 NA
BRANCH  14  18
ATOM     18  O   UNL     1       1.510   2.514  22.308  0.00  0.00    +0.000 OA
ATOM     19  H   UNL     1       2.071   2.174  23.023  0.00  0.00    +0.000 HD
ENDBRANCH  14  18
BRANCH  16  20
ATOM     20  O   UNL     1       5.128   2.216  19.589  0.00  0.00    +0.000 OA
ATOM     21  H   UNL     1       5.274   2.638  18.723  0.00  0.00    +0.000 HD
ENDBRANCH  16  20
ENDBRANCH   9  12
ENDBRANCH   3   8
BRANCH   1  22
ATOM     22  S   UNL     1      -0.182  11.695  21.867  0.00  0.00    +0.000 S 
ATOM     23  O   UNL     1       0.598  12.916  21.842  0.00  0.00    +0.000 OA
ATOM     24  O   UNL     1      -0.340  10.907  23.071  0.00  0.00    +0.000 OA
BRANCH  22  25
ATOM     25  N   UNL     1      -1.737  12.081  21.336  0.00  0.00    +0.000 N 
ATOM     26  H   UNL     1      -2.054  11.896  20.392  0.00  0.00    +0.000 HD
BRANCH  25  31
ATOM     27  C   UNL     1      -4.910  15.811  24.337  0.00  0.00    +0.000 C 
ATOM     28  C   UNL     1      -4.070  14.841  23.557  0.00  0.00    +0.000 A 
ATOM     29  C   UNL     1      -3.991  13.495  23.923  0.00  0.00    +0.000 A 
ATOM     30  C   UNL     1      -3.199  12.608  23.189  0.00  0.00    +0.000 A 
ATOM     31  C   UNL     1      -2.478  13.050  22.077  0.00  0.00    +0.000 A 
ATOM     32  C   UNL     1      -2.550  14.395  21.685  0.00  0.00    +0.000 A 
ATOM     33  C   UNL     1      -1.807  14.959  20.508  0.00  0.00    +0.000 C 
ATOM     34  C   UNL     1      -3.344  15.281  22.442  0.00  0.00    +0.000 A 
ENDBRANCH  25  31
ENDBRANCH  22  25
ENDBRANCH   1  22
TORSDOF 7
ENDMDL
MODEL 7
REMARK VINA RESULT:      -7.6      4.215      6.895
REMARK  Name = 
REMARK  9 active torsions:
REMARK  status: ('A' for Active; 'I' for Inactive)
REMARK    1  A    between atoms: C_1  and  C_2
REMARK    2  A    between atoms: C_5  and  N_6
REMARK    3  A    between atoms: N_6  and  S_7
REMARK    4  A    between atoms: S_7  and  C_10
REMARK    5  A    between atoms: C_12  and  N_13
REMARK    6  A    between atoms: C_14  and  C_16
REMARK    7  A    between atoms: C_18  and  O_19
REMARK    8  A    between atoms: C_21  and  O_22
REMARK    9  A    between atoms: C_28  and  C_29
REMARK                            x       y       z     vdW  Elec       q    Type
REMARK                         _______ _______ _______ _____ _____    ______ ____
ROOT
ATOM      1  C   UNL     1      -0.175  10.717  20.686  0.00  0.00    +0.000 A 
ATOM      2  C   UNL     1       0.687   9.887  19.954  0.00  0.00    +0.000 A 
ATOM      3  C   UNL     1       1.290   8.752  20.521  0.00  0.00    +0.000 A 
ATOM      4  C   UNL     1       1.005   8.449  21.853  0.00  0.00    +0.000 A 
ATOM      5  C   UNL     1       0.139   9.266  22.593  0.00  0.00    +0.000 A 
ATOM      6  C   UNL     1      -0.451  10.400  22.018  0.00  0.00    +0.000 A 
ATOM      7 CL   UNL     1      -1.496  11.327  23.032  0.00  0.00    +0.000 Cl
ENDROOT
BRANCH   3   8
ATOM      8  N   UNL     1       2.172   7.903  19.802  0.00  0.00    +0.000 N 
ATOM      9  C   UNL     1       2.237   6.520  19.917  0.00  0.00    +0.000 C 
ATOM     10  O   UNL     1       1.521   5.829  20.640  0.00  0.00    +0.000 OA
ATOM     11  H   UNL     1       2.816   8.324  19.136  0.00  0.00    +0.000 HD
BRANCH   9  12
ATOM     12  C   UNL     1       3.255   5.809  19.089  0.00  0.00    +0.000 A 
ATOM     13  C   UNL     1       3.778   4.634  19.602  0.00  0.00    +0.000 A 
ATOM     14  C   UNL     1       4.716   4.020  18.830  0.00  0.00    +0.000 A 
ATOM     15  N   UNL     1       5.130   4.490  17.652  0.00  0.00    +0.000 NA
ATOM     16  C   UNL     1       4.550   5.626  17.264  0.00  0.00    +0.000 A 
ATOM     17  N   UNL     1       3.617   6.344  17.908  0.00  0.00    +0.000 NA
BRANCH  14  18
ATOM     18  O   UNL     1       5.309   2.858  19.235  0.00  0.00    +0.000 OA
ATOM     19  H   UNL     1       6.088   3.073  19.772  0.00  0.00    +0.000 HD
ENDBRANCH  14  18
BRANCH  16  20
ATOM     20  O   UNL     1       4.998   6.091  16.070  0.00  0.00    +0.000 OA
ATOM     21  H   UNL     1       5.777   5.513  15.969  0.00  0.00    +0.000 HD
ENDBRANCH  16  20
ENDBRANCH   9  12
ENDBRANCH   3   8
BRANCH   1  22
ATOM     22  S   UNL     1      -0.903  12.172  19.960  0.00  0.00    +0.000 S 
ATOM     23  O   UNL     1      -0.262  12.334  18.670  0.00  0.00    +0.000 OA
ATOM     24  O   UNL     1      -0.859  13.203  20.976  0.00  0.00    +0.000 OA
BRANCH  22  25
ATOM     25  N   UNL     1      -2.534  11.849  19.673  0.00  0.00    +0.000 N 
ATOM     26  H   UNL     1      -3.201  11.696  20.420  0.00  0.00    +0.000 HD
BRANCH  25  31
ATOM     27  C   UNL     1      -3.801   9.986  14.390  0.00  0.00    +0.000 C 
ATOM     28  C   UNL     1      -3.477  10.464  15.776  0.00  0.00    +0.000 A 
ATOM     29  C   UNL     1      -2.246  10.181  16.370  0.00  0.00    +0.000 A 
ATOM     30  C   UNL     1      -1.965  10.628  17.664  0.00  0.00    +0.000 A 
ATOM     31  C   UNL     1      -2.907  11.370  18.381  0.00  0.00    +0.000 A 
ATOM     32  C   UNL     1      -4.147  11.677  17.800  0.00  0.00    +0.000 A 
ATOM     33  C   UNL     1      -5.220  12.463  18.496  0.00  0.00    +0.000 C 
ATOM     34  C   UNL     1      -4.420  11.208  16.499  0.00  0.00    +0.000 A 
ENDBRANCH  25  31
ENDBRANCH  22  25
ENDBRANCH   1  22
TORSDOF 7
ENDMDL
MODEL 8
REMARK VINA RESULT:      -7.6      4.945      7.511
REMARK  Name = 
REMARK  9 active torsions:
REMARK  status: ('A' for Active; 'I' for Inactive)
REMARK    1  A    between atoms: C_1  and  C_2
REMARK    2  A    between atoms: C_5  and  N_6
REMARK    3  A    between atoms: N_6  and  S_7
REMARK    4  A    between atoms: S_7  and  C_10
REMARK    5  A    between atoms: C_12  and  N_13
REMARK    6  A    between atoms: C_14  and  C_16
REMARK    7  A    between atoms: C_18  and  O_19
REMARK    8  A    between atoms: C_21  and  O_22
REMARK    9  A    between atoms: C_28  and  C_29
REMARK                            x       y       z     vdW  Elec       q    Type
REMARK                         _______ _______ _______ _____ _____    ______ ____
ROOT
ATOM      1  C   UNL     1       0.739  10.632  20.036  0.00  0.00    +0.000 A 
ATOM      2  C   UNL     1       1.053   9.340  20.482  0.00  0.00    +0.000 A 
ATOM      3  C   UNL     1       1.813   8.448  19.706  0.00  0.00    +0.000 A 
ATOM      4  C   UNL     1       2.270   8.880  18.461  0.00  0.00    +0.000 A 
ATOM      5  C   UNL     1       1.969  10.172  18.008  0.00  0.00    +0.000 A 
ATOM      6  C   UNL     1       1.204  11.051  18.788  0.00  0.00    +0.000 A 
ATOM      7 CL   UNL     1       0.899  12.613  18.121  0.00  0.00    +0.000 Cl
ENDROOT
BRANCH   3   8
ATOM      8  N   UNL     1       2.136   7.132  20.131  0.00  0.00    +0.000 N 
ATOM      9  C   UNL     1       2.290   6.028  19.303  0.00  0.00    +0.000 C 
ATOM     10  O   UNL     1       2.193   6.037  18.077  0.00  0.00    +0.000 OA
ATOM     11  H   UNL     1       2.277   6.965  21.126  0.00  0.00    +0.000 HD
BRANCH   9  12
ATOM     12  C   UNL     1       2.606   4.721  19.951  0.00  0.00    +0.000 A 
ATOM     13  C   UNL     1       3.722   4.042  19.491  0.00  0.00    +0.000 A 
ATOM     14  C   UNL     1       3.972   2.846  20.092  0.00  0.00    +0.000 A 
ATOM     15  N   UNL     1       3.213   2.330  21.061  0.00  0.00    +0.000 NA
ATOM     16  C   UNL     1       2.171   3.080  21.419  0.00  0.00    +0.000 A 
ATOM     17  N   UNL     1       1.796   4.270  20.926  0.00  0.00    +0.000 NA
BRANCH  14  18
ATOM     18  O   UNL     1       5.039   2.081  19.718  0.00  0.00    +0.000 OA
ATOM     19  H   UNL     1       5.478   1.741  20.514  0.00  0.00    +0.000 HD
ENDBRANCH  14  18
BRANCH  16  20
ATOM     20  O   UNL     1       1.408   2.527  22.396  0.00  0.00    +0.000 OA
ATOM     21  H   UNL     1       1.690   1.599  22.297  0.00  0.00    +0.000 HD
ENDBRANCH  16  20
ENDBRANCH   9  12
ENDBRANCH   3   8
BRANCH   1  22
ATOM     22  S   UNL     1      -0.256  11.737  21.020  0.00  0.00    +0.000 S 
ATOM     23  O   UNL     1       0.679  12.586  21.729  0.00  0.00    +0.000 OA
ATOM     24  O   UNL     1      -1.223  10.910  21.711  0.00  0.00    +0.000 OA
BRANCH  22  25
ATOM     25  N   UNL     1      -1.131  12.723  19.967  0.00  0.00    +0.000 N 
ATOM     26  H   UNL     1      -0.912  13.702  19.826  0.00  0.00    +0.000 HD
BRANCH  25  31
ATOM     27  C   UNL     1      -6.337  11.066  18.195  0.00  0.00    +0.000 C 
ATOM     28  C   UNL     1      -4.977  11.492  18.668  0.00  0.00    +0.000 A 
ATOM     29  C   UNL     1      -3.816  11.034  18.041  0.00  0.00    +0.000 A 
ATOM     30  C   UNL     1      -2.558  11.436  18.499  0.00  0.00    +0.000 A 
ATOM     31  C   UNL     1      -2.442  12.304  19.587  0.00  0.00    +0.000 A 
ATOM     32  C   UNL     1      -3.594  12.786  20.227  0.00  0.00    +0.000 A 
ATOM     33  C   UNL     1      -3.565  13.717  21.404  0.00  0.00    +0.000 C 
ATOM     34  C   UNL     1      -4.856  12.362  19.760  0.00  0.00    +0.000 A 
ENDBRANCH  25  31
ENDBRANCH  22  25
ENDBRANCH   1  22
TORSDOF 7
ENDMDL
MODEL 9
REMARK VINA RESULT:      -7.6      4.760      7.869
REMARK  Name = 
REMARK  9 active torsions:
REMARK  status: ('A' for Active; 'I' for Inactive)
REMARK    1  A    between atoms: C_1  and  C_2
REMARK    2  A    between atoms: C_5  and  N_6
REMARK    3  A    between atoms: N_6  and  S_7
REMARK    4  A    between atoms: S_7  and  C_10
REMARK    5  A    between atoms: C_12  and  N_13
REMARK    6  A    between atoms: C_14  and  C_16
REMARK    7  A    between atoms: C_18  and  O_19
REMARK    8  A    between atoms: C_21  and  O_22
REMARK    9  A    between atoms: C_28  and  C_29
REMARK                            x       y       z     vdW  Elec       q    Type
REMARK                         _______ _______ _______ _____ _____    ______ ____
ROOT
ATOM      1  C   UNL     1       0.654  10.970  20.323  0.00  0.00    +0.000 A 
ATOM      2  C   UNL     1       1.178   9.675  20.204  0.00  0.00    +0.000 A 
ATOM      3  C   UNL     1       0.939   8.682  21.169  0.00  0.00    +0.000 A 
ATOM      4  C   UNL     1       0.144   9.007  22.268  0.00  0.00    +0.000 A 
ATOM      5  C   UNL     1      -0.392  10.297  22.395  0.00  0.00    +0.000 A 
ATOM      6  C   UNL     1      -0.140  11.281  21.430  0.00  0.00    +0.000 A 
ATOM      7 CL   UNL     1      -0.854  12.830  21.698  0.00  0.00    +0.000 Cl
ENDROOT
BRANCH   3   8
ATOM      8  N   UNL     1       1.466   7.367  21.074  0.00  0.00    +0.000 N 
ATOM      9  C   UNL     1       2.198   6.864  20.007  0.00  0.00    +0.000 C 
ATOM     10  O   UNL     1       2.517   7.494  19.000  0.00  0.00    +0.000 OA
ATOM     11  H   UNL     1       1.309   6.724  21.848  0.00  0.00    +0.000 HD
BRANCH   9  12
ATOM     12  C   UNL     1       2.643   5.441  20.088  0.00  0.00    +0.000 A 
ATOM     13  C   UNL     1       2.039   4.644  21.046  0.00  0.00    +0.000 A 
ATOM     14  C   UNL     1       2.480   3.357  21.104  0.00  0.00    +0.000 A 
ATOM     15  N   UNL     1       3.429   2.862  20.308  0.00  0.00    +0.000 NA
ATOM     16  C   UNL     1       3.930   3.726  19.426  0.00  0.00    +0.000 A 
ATOM     17  N   UNL     1       3.603   5.014  19.246  0.00  0.00    +0.000 NA
BRANCH  14  18
ATOM     18  O   UNL     1       1.964   2.479  22.014  0.00  0.00    +0.000 OA
ATOM     19  H   UNL     1       2.649   2.265  22.668  0.00  0.00    +0.000 HD
ENDBRANCH  14  18
BRANCH  16  20
ATOM     20  O   UNL     1       4.904   3.201  18.637  0.00  0.00    +0.000 OA
ATOM     21  H   UNL     1       5.328   2.619  19.295  0.00  0.00    +0.000 HD
ENDBRANCH  16  20
ENDBRANCH   9  12
ENDBRANCH   3   8
BRANCH   1  22
ATOM     22  S   UNL     1       0.997  12.227  19.107  0.00  0.00    +0.000 S 
ATOM     23  O   UNL     1      -0.274  12.531  18.482  0.00  0.00    +0.000 OA
ATOM     24  O   UNL     1       2.137  11.760  18.346  0.00  0.00    +0.000 OA
BRANCH  22  25
ATOM     25  N   UNL     1       1.501  13.616  19.923  0.00  0.00    +0.000 N 
ATOM     26  H   UNL     1       1.586  13.656  20.932  0.00  0.00    +0.000 HD
BRANCH  25  31
ATOM     27  C   UNL     1       0.886  18.575  17.093  0.00  0.00    +0.000 C 
ATOM     28  C   UNL     1       1.053  17.284  17.842  0.00  0.00    +0.000 A 
ATOM     29  C   UNL     1      -0.013  16.707  18.535  0.00  0.00    +0.000 A 
ATOM     30  C   UNL     1       0.163  15.508  19.232  0.00  0.00    +0.000 A 
ATOM     31  C   UNL     1       1.404  14.867  19.243  0.00  0.00    +0.000 A 
ATOM     32  C   UNL     1       2.486  15.423  18.545  0.00  0.00    +0.000 A 
ATOM     33  C   UNL     1       3.856  14.807  18.505  0.00  0.00    +0.000 C 
ATOM     34  C   UNL     1       2.297  16.638  17.856  0.00  0.00    +0.000 A 
ENDBRANCH  25  31
ENDBRANCH  22  25
ENDBRANCH   1  22
TORSDOF 7
ENDMDL
