MODEL 1
REMARK VINA RESULT:      -7.8      0.000      0.000
REMARK  Name = 
REMARK  4 active torsions:
REMARK  status: ('A' for Active; 'I' for Inactive)
REMARK    1  A    between atoms: C_1  and  C_2
REMARK    2  A    between atoms: C_6  and  C_7
REMARK    3  A    between atoms: C_7  and  C_8
REMARK    4  A    between atoms: C_8  and  C_9
REMARK                            x       y       z     vdW  Elec       q    Type
REMARK                         _______ _______ _______ _____ _____    ______ ____
ROOT
ATOM      1  C   UNL     1       2.230   8.106  18.531  0.00  0.00    +0.000 A 
ATOM      2  C   UNL     1       1.568   9.070  17.776  0.00  0.00    +0.000 A 
ATOM      3  C   UNL     1       0.701   9.945  18.412  0.00  0.00    +0.000 A 
ATOM      4  N   UNL     1       0.431   9.922  19.736  0.00  0.00    +0.000 NA
ATOM      5  C   UNL     1       1.059   8.984  20.472  0.00  0.00    +0.000 A 
ATOM      6  N   UNL     1       0.890   8.936  21.860  0.00  0.00    +0.000 N 
ATOM      7  C   UNL     1       0.235   9.771  22.690  0.00  0.00    +0.000 C 
ATOM      8  N   UNL     1      -0.449  10.802  22.166  0.00  0.00    +0.000 N 
ATOM      9  O   UNL     1       0.283   9.603  23.906  0.00  0.00    +0.000 OA
ATOM     10  C   UNL     1       1.930   8.044  19.900  0.00  0.00    +0.000 A 
ATOM     11  H   UNL     1       1.395   8.215  22.355  0.00  0.00    +0.000 HD
ATOM     12  H   UNL     1      -0.727  10.741  21.194  0.00  0.00    +0.000 HD
ATOM     13  H   UNL     1      -0.995  11.363  22.806  0.00  0.00    +0.000 HD
ENDROOT
BRANCH   1  14
ATOM     14  C   UNL     1       3.212   7.120  17.922  0.00  0.00    +0.000 C 
BRANCH  14  15
ATOM     15  C   UNL     1       3.703   6.041  18.903  0.00  0.00    +0.000 C 
BRANCH  15  21
ATOM     16  C   UNL     1       1.468   2.584  21.804  0.00  0.00    +0.000 C 
ATOM     17  C   UNL     1       1.670   3.197  20.449  0.00  0.00    +0.000 A 
ATOM     18  C   UNL     1       0.963   2.735  19.335  0.00  0.00    +0.000 A 
ATOM     19  C   UNL     1       1.160   3.321  18.084  0.00  0.00    +0.000 A 
ATOM     20  C   UNL     1       2.062   4.376  17.936  0.00  0.00    +0.000 A 
ATOM     21  C   UNL     1       2.773   4.860  19.040  0.00  0.00    +0.000 A 
ATOM     22  C   UNL     1       2.574   4.258  20.292  0.00  0.00    +0.000 A 
ENDBRANCH  15  21
ENDBRANCH  14  15
ENDBRANCH   1  14
TORSDOF 3
ENDMDL
MODEL 2
REMARK VINA RESULT:      -7.7      7.911     10.393
REMARK  Name = 
REMARK  4 active torsions:
REMARK  status: ('A' for Active; 'I' for Inactive)
REMARK    1  A    between atoms: C_1  and  C_2
REMARK    2  A    between atoms: C_6  and  C_7
REMARK    3  A    between atoms: C_7  and  C_8
REMARK    4  A    between atoms: C_8  and  C_9
REMARK                            x       y       z     vdW  Elec       q    Type
REMARK                         _______ _______ _______ _____ _____    ______ ____
ROOT
ATOM      1  C   UNL     1       7.970   7.969  17.951  0.00  0.00    +0.000 A 
ATOM      2  C   UNL     1       8.258   7.075  18.978  0.00  0.00    +0.000 A 
ATOM      3  C   UNL     1       7.825   5.762  18.869  0.00  0.00    +0.000 A 
ATOM      4  N   UNL     1       7.114   5.279  17.826  0.00  0.00    +0.000 NA
ATOM      5  C   UNL     1       6.820   6.143  16.834  0.00  0.00    +0.000 A 
ATOM      6  N   UNL     1       6.148   5.706  15.686  0.00  0.00    +0.000 N 
ATOM      7  C   UNL     1       5.784   4.467  15.305  0.00  0.00    +0.000 C 
ATOM      8  N   UNL     1       6.004   3.439  16.141  0.00  0.00    +0.000 N 
ATOM      9  O   UNL     1       5.278   4.280  14.201  0.00  0.00    +0.000 OA
ATOM     10  C   UNL     1       7.198   7.493  16.881  0.00  0.00    +0.000 A 
ATOM     11  H   UNL     1       5.966   6.400  14.975  0.00  0.00    +0.000 HD
ATOM     12  H   UNL     1       6.123   3.646  17.125  0.00  0.00    +0.000 HD
ATOM     13  H   UNL     1       5.648   2.535  15.862  0.00  0.00    +0.000 HD
ENDROOT
BRANCH   1  14
ATOM     14  C   UNL     1       8.421   9.419  17.977  0.00  0.00    +0.000 C 
BRANCH  14  15
ATOM     15  C   UNL     1       9.053   9.855  19.310  0.00  0.00    +0.000 C 
BRANCH  15  21
ATOM     16  C   UNL     1      11.360  13.322  16.477  0.00  0.00    +0.000 C 
ATOM     17  C   UNL     1      11.161  12.671  17.815  0.00  0.00    +0.000 A 
ATOM     18  C   UNL     1      11.840  13.130  18.948  0.00  0.00    +0.000 A 
ATOM     19  C   UNL     1      11.639  12.516  20.185  0.00  0.00    +0.000 A 
ATOM     20  C   UNL     1      10.755  11.442  20.301  0.00  0.00    +0.000 A 
ATOM     21  C   UNL     1      10.058  10.974  19.181  0.00  0.00    +0.000 A 
ATOM     22  C   UNL     1      10.275  11.592  17.940  0.00  0.00    +0.000 A 
ENDBRANCH  15  21
ENDBRANCH  14  15
ENDBRANCH   1  14
TORSDOF 3
ENDMDL
MODEL 3
REMARK VINA RESULT:      -7.6      4.839      6.039
REMARK  Name = 
REMARK  4 active torsions:
REMARK  status: ('A' for Active; 'I' for Inactive)
REMARK    1  A    between atoms: C_1  and  C_2
REMARK    2  A    between atoms: C_6  and  C_7
REMARK    3  A    between atoms: C_7  and  C_8
REMARK    4  A    between atoms: C_8  and  C_9
REMARK                            x       y       z     vdW  Elec       q    Type
REMARK                         _______ _______ _______ _____ _____    ______ ____
ROOT
ATOM      1  C   UNL     1       6.039   5.724  17.313  0.00  0.00    +0.000 A 
ATOM      2  C   UNL     1       6.744   5.016  18.281  0.00  0.00    +0.000 A 
ATOM      3  C   UNL     1       7.761   5.654  18.976  0.00  0.00    +0.000 A 
ATOM      4  N   UNL     1       8.138   6.934  18.767  0.00  0.00    +0.000 NA
ATOM      5  C   UNL     1       7.468   7.623  17.822  0.00  0.00    +0.000 A 
ATOM      6  N   UNL     1       7.750   8.975  17.592  0.00  0.00    +0.000 N 
ATOM      7  C   UNL     1       8.568   9.821  18.248  0.00  0.00    +0.000 C 
ATOM      8  N   UNL     1       9.323   9.347  19.253  0.00  0.00    +0.000 N 
ATOM      9  O   UNL     1       8.605  11.010  17.943  0.00  0.00    +0.000 OA
ATOM     10  C   UNL     1       6.446   7.042  17.057  0.00  0.00    +0.000 A 
ATOM     11  H   UNL     1       7.208   9.437  16.877  0.00  0.00    +0.000 HD
ATOM     12  H   UNL     1       9.507   8.351  19.278  0.00  0.00    +0.000 HD
ATOM     13  H   UNL     1       9.985   9.986  19.672  0.00  0.00    +0.000 HD
ENDROOT
BRANCH   1  14
ATOM     14  C   UNL     1       4.899   5.113  16.518  0.00  0.00    +0.000 C 
BRANCH  14  15
ATOM     15  C   UNL     1       4.556   3.669  16.923  0.00  0.00    +0.000 C 
BRANCH  15  21
ATOM     16  C   UNL     1       1.709   5.555  20.624  0.00  0.00    +0.000 C 
ATOM     17  C   UNL     1       1.965   4.473  19.615  0.00  0.00    +0.000 A 
ATOM     18  C   UNL     1       1.082   3.400  19.467  0.00  0.00    +0.000 A 
ATOM     19  C   UNL     1       1.334   2.406  18.521  0.00  0.00    +0.000 A 
ATOM     20  C   UNL     1       2.469   2.479  17.711  0.00  0.00    +0.000 A 
ATOM     21  C   UNL     1       3.361   3.550  17.836  0.00  0.00    +0.000 A 
ATOM     22  C   UNL     1       3.103   4.539  18.798  0.00  0.00    +0.000 A 
ENDBRANCH  15  21
ENDBRANCH  14  15
ENDBRANCH   1  14
TORSDOF 3
ENDMDL
MODEL 4
REMARK VINA RESULT:      -7.6      5.810      7.811
REMARK  Name = 
REMARK  4 active torsions:
REMARK  status: ('A' for Active; 'I' for Inactive)
REMARK    1  A    between atoms: C_1  and  C_2
REMARK    2  A    between atoms: C_6  and  C_7
REMARK    3  A    between atoms: C_7  and  C_8
REMARK    4  A    between atoms: C_8  and  C_9
REMARK                            x       y       z     vdW  Elec       q    Type
REMARK                         _______ _______ _______ _____ _____    ______ ____
ROOT
ATOM      1  C   UNL     1       5.685   4.674  17.816  0.00  0.00    +0.000 A 
ATOM      2  C   UNL     1       6.487   5.762  18.143  0.00  0.00    +0.000 A 
ATOM      3  C   UNL     1       7.338   6.285  17.181  0.00  0.00    +0.000 A 
ATOM      4  N   UNL     1       7.463   5.796  15.928  0.00  0.00    +0.000 NA
ATOM      5  C   UNL     1       6.698   4.733  15.607  0.00  0.00    +0.000 A 
ATOM      6  N   UNL     1       6.716   4.209  14.310  0.00  0.00    +0.000 N 
ATOM      7  C   UNL     1       7.333   4.650  13.197  0.00  0.00    +0.000 C 
ATOM      8  N   UNL     1       8.137   5.723  13.283  0.00  0.00    +0.000 N 
ATOM      9  O   UNL     1       7.144   4.092  12.119  0.00  0.00    +0.000 OA
ATOM     10  C   UNL     1       5.832   4.129  16.531  0.00  0.00    +0.000 A 
ATOM     11  H   UNL     1       6.114   3.418  14.131  0.00  0.00    +0.000 HD
ATOM     12  H   UNL     1       8.512   5.962  14.192  0.00  0.00    +0.000 HD
ATOM     13  H   UNL     1       8.648   5.982  12.449  0.00  0.00    +0.000 HD
ENDROOT
BRANCH   1  14
ATOM     14  C   UNL     1       4.710   4.049  18.798  0.00  0.00    +0.000 C 
BRANCH  14  15
ATOM     15  C   UNL     1       3.231   4.313  18.466  0.00  0.00    +0.000 C 
BRANCH  15  21
ATOM     16  C   UNL     1       2.196   9.197  17.807  0.00  0.00    +0.000 C 
ATOM     17  C   UNL     1       2.174   7.980  18.684  0.00  0.00    +0.000 A 
ATOM     18  C   UNL     1       1.609   8.022  19.963  0.00  0.00    +0.000 A 
ATOM     19  C   UNL     1       1.593   6.878  20.762  0.00  0.00    +0.000 A 
ATOM     20  C   UNL     1       2.136   5.683  20.289  0.00  0.00    +0.000 A 
ATOM     21  C   UNL     1       2.698   5.616  19.009  0.00  0.00    +0.000 A 
ATOM     22  C   UNL     1       2.717   6.775  18.217  0.00  0.00    +0.000 A 
ENDBRANCH  15  21
ENDBRANCH  14  15
ENDBRANCH   1  14
TORSDOF 3
ENDMDL
MODEL 5
REMARK VINA RESULT:      -7.5      6.615      9.127
REMARK  Name = 
REMARK  4 active torsions:
REMARK  status: ('A' for Active; 'I' for Inactive)
REMARK    1  A    between atoms: C_1  and  C_2
REMARK    2  A    between atoms: C_6  and  C_7
REMARK    3  A    between atoms: C_7  and  C_8
REMARK    4  A    between atoms: C_8  and  C_9
REMARK                            x       y       z     vdW  Elec       q    Type
REMARK                         _______ _______ _______ _____ _____    ______ ____
ROOT
ATOM      1  C   UNL     1       7.456   6.547  18.000  0.00  0.00    +0.000 A 
ATOM      2  C   UNL     1       7.181   6.378  16.647  0.00  0.00    +0.000 A 
ATOM      3  C   UNL     1       6.358   5.334  16.251  0.00  0.00    +0.000 A 
ATOM      4  N   UNL     1       5.804   4.439  17.098  0.00  0.00    +0.000 NA
ATOM      5  C   UNL     1       6.076   4.588  18.410  0.00  0.00    +0.000 A 
ATOM      6  N   UNL     1       5.486   3.747  19.360  0.00  0.00    +0.000 N 
ATOM      7  C   UNL     1       4.549   2.789  19.218  0.00  0.00    +0.000 C 
ATOM      8  N   UNL     1       4.111   2.487  17.984  0.00  0.00    +0.000 N 
ATOM      9  O   UNL     1       4.089   2.219  20.204  0.00  0.00    +0.000 OA
ATOM     10  C   UNL     1       6.921   5.601  18.888  0.00  0.00    +0.000 A 
ATOM     11  H   UNL     1       5.723   3.916  20.327  0.00  0.00    +0.000 HD
ATOM     12  H   UNL     1       4.703   2.730  17.199  0.00  0.00    +0.000 HD
ATOM     13  H   UNL     1       3.469   1.711  17.902  0.00  0.00    +0.000 HD
ENDROOT
BRANCH   1  14
ATOM     14  C   UNL     1       8.330   7.672  18.525  0.00  0.00    +0.000 C 
BRANCH  14  15
ATOM     15  C   UNL     1       8.106   9.020  17.818  0.00  0.00    +0.000 C 
BRANCH  15  21
ATOM     16  C   UNL     1       9.517  13.854  17.736  0.00  0.00    +0.000 C 
ATOM     17  C   UNL     1       9.452  12.540  18.458  0.00  0.00    +0.000 A 
ATOM     18  C   UNL     1       9.950  12.405  19.757  0.00  0.00    +0.000 A 
ATOM     19  C   UNL     1       9.876  11.178  20.416  0.00  0.00    +0.000 A 
ATOM     20  C   UNL     1       9.300  10.075  19.783  0.00  0.00    +0.000 A 
ATOM     21  C   UNL     1       8.787  10.190  18.486  0.00  0.00    +0.000 A 
ATOM     22  C   UNL     1       8.875  11.427  17.830  0.00  0.00    +0.000 A 
ENDBRANCH  15  21
ENDBRANCH  14  15
ENDBRANCH   1  14
TORSDOF 3
ENDMDL
MODEL 6
REMARK VINA RESULT:      -7.5      5.412      7.390
REMARK  Name = 
REMARK  4 active torsions:
REMARK  status: ('A' for Active; 'I' for Inactive)
REMARK    1  A    between atoms: C_1  and  C_2
REMARK    2  A    between atoms: C_6  and  C_7
REMARK    3  A    between atoms: C_7  and  C_8
REMARK    4  A    between atoms: C_8  and  C_9
REMARK                            x       y       z     vdW  Elec       q    Type
REMARK                         _______ _______ _______ _____ _____    ______ ____
ROOT
ATOM      1  C   UNL     1       5.382   4.739  18.689  0.00  0.00    +0.000 A 
ATOM      2  C   UNL     1       6.460   5.547  19.038  0.00  0.00    +0.000 A 
ATOM      3  C   UNL     1       7.399   5.872  18.070  0.00  0.00    +0.000 A 
ATOM      4  N   UNL     1       7.354   5.441  16.791  0.00  0.00    +0.000 NA
ATOM      5  C   UNL     1       6.319   4.648  16.448  0.00  0.00    +0.000 A 
ATOM      6  N   UNL     1       6.160   4.216  15.127  0.00  0.00    +0.000 N 
ATOM      7  C   UNL     1       6.848   4.537  14.014  0.00  0.00    +0.000 C 
ATOM      8  N   UNL     1       7.918   5.342  14.120  0.00  0.00    +0.000 N 
ATOM      9  O   UNL     1       6.487   4.115  12.918  0.00  0.00    +0.000 OA
ATOM     10  C   UNL     1       5.343   4.251  17.375  0.00  0.00    +0.000 A 
ATOM     11  H   UNL     1       5.360   3.631  14.933  0.00  0.00    +0.000 HD
ATOM     12  H   UNL     1       8.366   5.416  15.025  0.00  0.00    +0.000 HD
ATOM     13  H   UNL     1       8.460   5.500  13.282  0.00  0.00    +0.000 HD
ENDROOT
BRANCH   1  14
ATOM     14  C   UNL     1       4.297   4.348  19.677  0.00  0.00    +0.000 C 
BRANCH  14  15
ATOM     15  C   UNL     1       2.867   4.579  19.160  0.00  0.00    +0.000 C 
BRANCH  15  21
ATOM     16  C   UNL     1       1.147   8.626  21.614  0.00  0.00    +0.000 C 
ATOM     17  C   UNL     1       1.628   7.997  20.339  0.00  0.00    +0.000 A 
ATOM     18  C   UNL     1       1.747   8.746  19.165  0.00  0.00    +0.000 A 
ATOM     19  C   UNL     1       2.201   8.146  17.990  0.00  0.00    +0.000 A 
ATOM     20  C   UNL     1       2.543   6.793  17.980  0.00  0.00    +0.000 A 
ATOM     21  C   UNL     1       2.440   6.026  19.146  0.00  0.00    +0.000 A 
ATOM     22  C   UNL     1       1.974   6.638  20.320  0.00  0.00    +0.000 A 
ENDBRANCH  15  21
ENDBRANCH  14  15
ENDBRANCH   1  14
TORSDOF 3
ENDMDL
MODEL 7
REMARK VINA RESULT:      -7.5      3.667      5.887
REMARK  Name = 
REMARK  4 active torsions:
REMARK  status: ('A' for Active; 'I' for Inactive)
REMARK    1  A    between atoms: C_1  and  C_2
REMARK    2  A    between atoms: C_6  and  C_7
REMARK    3  A    between atoms: C_7  and  C_8
REMARK    4  A    between atoms: C_8  and  C_9
REMARK                            x       y       z     vdW  Elec       q    Type
REMARK                         _______ _______ _______ _____ _____    ______ ____
ROOT
ATOM      1  C   UNL     1       4.377   4.518  16.958  0.00  0.00    +0.000 A 
ATOM      2  C   UNL     1       4.257   3.424  17.810  0.00  0.00    +0.000 A 
ATOM      3  C   UNL     1       3.630   3.590  19.036  0.00  0.00    +0.000 A 
ATOM      4  N   UNL     1       3.131   4.763  19.482  0.00  0.00    +0.000 NA
ATOM      5  C   UNL     1       3.254   5.831  18.668  0.00  0.00    +0.000 A 
ATOM      6  N   UNL     1       2.703   7.066  19.025  0.00  0.00    +0.000 N 
ATOM      7  C   UNL     1       1.928   7.407  20.073  0.00  0.00    +0.000 C 
ATOM      8  N   UNL     1       1.655   6.482  21.007  0.00  0.00    +0.000 N 
ATOM      9  O   UNL     1       1.462   8.541  20.158  0.00  0.00    +0.000 OA
ATOM     10  C   UNL     1       3.899   5.751  17.425  0.00  0.00    +0.000 A 
ATOM     11  H   UNL     1       2.821   7.824  18.368  0.00  0.00    +0.000 HD
ATOM     12  H   UNL     1       2.277   5.687  21.082  0.00  0.00    +0.000 HD
ATOM     13  H   UNL     1       1.139   6.789  21.821  0.00  0.00    +0.000 HD
ENDROOT
BRANCH   1  14
ATOM     14  C   UNL     1       5.030   4.424  15.590  0.00  0.00    +0.000 C 
BRANCH  14  15
ATOM     15  C   UNL     1       6.568   4.428  15.630  0.00  0.00    +0.000 C 
BRANCH  15  21
ATOM     16  C   UNL     1       7.812   8.873  17.643  0.00  0.00    +0.000 C 
ATOM     17  C   UNL     1       7.739   7.378  17.759  0.00  0.00    +0.000 A 
ATOM     18  C   UNL     1       8.144   6.724  18.926  0.00  0.00    +0.000 A 
ATOM     19  C   UNL     1       8.064   5.334  19.018  0.00  0.00    +0.000 A 
ATOM     20  C   UNL     1       7.575   4.587  17.945  0.00  0.00    +0.000 A 
ATOM     21  C   UNL     1       7.156   5.222  16.770  0.00  0.00    +0.000 A 
ATOM     22  C   UNL     1       7.250   6.620  16.686  0.00  0.00    +0.000 A 
ENDBRANCH  15  21
ENDBRANCH  14  15
ENDBRANCH   1  14
TORSDOF 3
ENDMDL
MODEL 8
REMARK VINA RESULT:      -7.4      4.756      6.064
REMARK  Name = 
REMARK  4 active torsions:
REMARK  status: ('A' for Active; 'I' for Inactive)
REMARK    1  A    between atoms: C_1  and  C_2
REMARK    2  A    between atoms: C_6  and  C_7
REMARK    3  A    between atoms: C_7  and  C_8
REMARK    4  A    between atoms: C_8  and  C_9
REMARK                            x       y       z     vdW  Elec       q    Type
REMARK                         _______ _______ _______ _____ _____    ______ ____
ROOT
ATOM      1  C   UNL     1       6.083   5.482  17.221  0.00  0.00    +0.000 A 
ATOM      2  C   UNL     1       6.774   4.813  18.226  0.00  0.00    +0.000 A 
ATOM      3  C   UNL     1       7.748   5.494  18.942  0.00  0.00    +0.000 A 
ATOM      4  N   UNL     1       8.095   6.780  18.721  0.00  0.00    +0.000 NA
ATOM      5  C   UNL     1       7.438   7.432  17.741  0.00  0.00    +0.000 A 
ATOM      6  N   UNL     1       7.688   8.787  17.495  0.00  0.00    +0.000 N 
ATOM      7  C   UNL     1       8.458   9.669  18.161  0.00  0.00    +0.000 C 
ATOM      8  N   UNL     1       9.192   9.235  19.199  0.00  0.00    +0.000 N 
ATOM      9  O   UNL     1       8.471  10.853  17.835  0.00  0.00    +0.000 OA
ATOM     10  C   UNL     1       6.459   6.807  16.954  0.00  0.00    +0.000 A 
ATOM     11  H   UNL     1       7.157   9.219  16.753  0.00  0.00    +0.000 HD
ATOM     12  H   UNL     1       9.404   8.246  19.249  0.00  0.00    +0.000 HD
ATOM     13  H   UNL     1       9.820   9.902  19.628  0.00  0.00    +0.000 HD
ENDROOT
BRANCH   1  14
ATOM     14  C   UNL     1       4.988   4.823  16.400  0.00  0.00    +0.000 C 
BRANCH  14  15
ATOM     15  C   UNL     1       4.185   3.758  17.168  0.00  0.00    +0.000 C 
BRANCH  15  21
ATOM     16  C   UNL     1       1.834   3.081  21.569  0.00  0.00    +0.000 C 
ATOM     17  C   UNL     1       2.223   3.990  20.439  0.00  0.00    +0.000 A 
ATOM     18  C   UNL     1       1.875   5.344  20.449  0.00  0.00    +0.000 A 
ATOM     19  C   UNL     1       2.249   6.174  19.393  0.00  0.00    +0.000 A 
ATOM     20  C   UNL     1       2.978   5.660  18.319  0.00  0.00    +0.000 A 
ATOM     21  C   UNL     1       3.344   4.309  18.293  0.00  0.00    +0.000 A 
ATOM     22  C   UNL     1       2.954   3.481  19.357  0.00  0.00    +0.000 A 
ENDBRANCH  15  21
ENDBRANCH  14  15
ENDBRANCH   1  14
TORSDOF 3
ENDMDL
MODEL 9
REMARK VINA RESULT:      -7.4      4.359      7.316
REMARK  Name = 
REMARK  4 active torsions:
REMARK  status: ('A' for Active; 'I' for Inactive)
REMARK    1  A    between atoms: C_1  and  C_2
REMARK    2  A    between atoms: C_6  and  C_7
REMARK    3  A    between atoms: C_7  and  C_8
REMARK    4  A    between atoms: C_8  and  C_9
REMARK                            x       y       z     vdW  Elec       q    Type
REMARK                         _______ _______ _______ _____ _____    ______ ____
ROOT
ATOM      1  C   UNL     1       2.694   7.677  18.285  0.00  0.00    +0.000 A 
ATOM      2  C   UNL     1       2.391   6.911  19.406  0.00  0.00    +0.000 A 
ATOM      3  C   UNL     1       3.178   5.809  19.703  0.00  0.00    +0.000 A 
ATOM      4  N   UNL     1       4.231   5.404  18.960  0.00  0.00    +0.000 NA
ATOM      5  C   UNL     1       4.524   6.133  17.865  0.00  0.00    +0.000 A 
ATOM      6  N   UNL     1       5.640   5.822  17.080  0.00  0.00    +0.000 N 
ATOM      7  C   UNL     1       6.616   4.913  17.269  0.00  0.00    +0.000 C 
ATOM      8  N   UNL     1       6.537   4.085  18.324  0.00  0.00    +0.000 N 
ATOM      9  O   UNL     1       7.573   4.860  16.500  0.00  0.00    +0.000 OA
ATOM     10  C   UNL     1       3.760   7.245  17.481  0.00  0.00    +0.000 A 
ATOM     11  H   UNL     1       5.811   6.412  16.278  0.00  0.00    +0.000 HD
ATOM     12  H   UNL     1       5.627   3.938  18.743  0.00  0.00    +0.000 HD
ATOM     13  H   UNL     1       7.240   3.362  18.394  0.00  0.00    +0.000 HD
ENDROOT
BRANCH   1  14
ATOM     14  C   UNL     1       1.899   8.911  17.895  0.00  0.00    +0.000 C 
BRANCH  14  15
ATOM     15  C   UNL     1       1.142   9.563  19.064  0.00  0.00    +0.000 C 
BRANCH  15  21
ATOM     16  C   UNL     1      -2.889   9.818  16.056  0.00  0.00    +0.000 C 
ATOM     17  C   UNL     1      -2.112  10.355  17.222  0.00  0.00    +0.000 A 
ATOM     18  C   UNL     1      -2.595  11.428  17.978  0.00  0.00    +0.000 A 
ATOM     19  C   UNL     1      -1.862  11.911  19.062  0.00  0.00    +0.000 A 
ATOM     20  C   UNL     1      -0.642  11.324  19.403  0.00  0.00    +0.000 A 
ATOM     21  C   UNL     1      -0.145  10.244  18.665  0.00  0.00    +0.000 A 
ATOM     22  C   UNL     1      -0.886   9.772  17.571  0.00  0.00    +0.000 A 
ENDBRANCH  15  21
ENDBRANCH  14  15
ENDBRANCH   1  14
TORSDOF 3
ENDMDL
