MODEL 1
REMARK VINA RESULT:      -8.7      0.000      0.000
REMARK  Name = 
REMARK  5 active torsions:
REMARK  status: ('A' for Active; 'I' for Inactive)
REMARK    1  A    between atoms: C_1  and  C_2
REMARK    2  A    between atoms: C_5  and  C_6
REMARK    3  A    between atoms: N_8  and  C_9
REMARK    4  A    between atoms: C_9  and  C_10
REMARK    5  A    between atoms: C_10  and  C_11
REMARK                            x       y       z     vdW  Elec       q    Type
REMARK                         _______ _______ _______ _____ _____    ______ ____
ROOT
ATOM      1  C   UNL     1       6.152   6.475  16.642  0.00  0.00    +0.000 C 
ATOM      2  O   UNL     1       5.464   6.793  15.663  0.00  0.00    +0.000 OA
ATOM      3  N   UNL     1       5.585   5.744  17.673  0.00  0.00    +0.000 N 
ATOM      4  C   UNL     1       4.154   5.875  17.697  0.00  0.00    +0.000 C 
ATOM      5  C   UNL     1       3.580   5.315  18.965  0.00  0.00    +0.000 C 
ATOM      6  C   UNL     1       3.676   3.785  18.869  0.00  0.00    +0.000 C 
ATOM      7  C   UNL     1       5.197   3.432  18.795  0.00  0.00    +0.000 C 
ATOM      8  C   UNL     1       6.171   4.643  18.475  0.00  0.00    +0.000 C 
ATOM      9  N   UNL     1       3.007   3.248  17.621  0.00  0.00    +0.000 NA
ATOM     10  C   UNL     1       1.622   3.764  17.448  0.00  0.00    +0.000 C 
ATOM     11  C   UNL     1       0.659   3.500  18.633  0.00  0.00    +0.000 C 
ATOM     12  C   UNL     1       1.435   3.195  19.864  0.00  0.00    +0.000 A 
ATOM     13  N   UNL     1       0.946   2.910  21.101  0.00  0.00    +0.000 N 
ATOM     14  C   UNL     1       2.029   2.750  21.921  0.00  0.00    +0.000 A 
ATOM     15  N   UNL     1       3.170   2.957  21.286  0.00  0.00    +0.000 NA
ATOM     16  C   UNL     1       2.815   3.240  19.998  0.00  0.00    +0.000 A 
ATOM     17  H   UNL     1       2.957   2.233  17.720  0.00  0.00    +0.000 HD
ATOM     18  H   UNL     1      -0.026   2.873  21.376  0.00  0.00    +0.000 HD
ENDROOT
BRANCH   1  19
ATOM     19  C   UNL     1       7.515   7.102  16.819  0.00  0.00    +0.000 C 
BRANCH  19  20
ATOM     20  C   UNL     1       7.412   8.081  18.004  0.00  0.00    +0.000 C 
BRANCH  20  23
ATOM     21  C   UNL     1       8.846  10.001  18.546  0.00  0.00    +0.000 C 
ATOM     22  O   UNL     1       9.229   9.483  19.586  0.00  0.00    +0.000 OA
ATOM     23  N   UNL     1       7.889   9.424  17.738  0.00  0.00    +0.000 N 
ATOM     24  H   UNL     1       7.867   9.717  16.772  0.00  0.00    +0.000 HD
BRANCH  21  29
ATOM     25  C   UNL     1      11.367  14.960  16.954  0.00  0.00    +0.000 C 
ATOM     26  C   UNL     1      10.699  13.668  17.321  0.00  0.00    +0.000 A 
ATOM     27  C   UNL     1      11.455  12.515  17.555  0.00  0.00    +0.000 A 
ATOM     28  C   UNL     1      10.829  11.327  17.931  0.00  0.00    +0.000 A 
ATOM     29  C   UNL     1       9.436  11.286  18.080  0.00  0.00    +0.000 A 
ATOM     30  C   UNL     1       8.674  12.423  17.837  0.00  0.00    +0.000 A 
ATOM     31  C   UNL     1       9.305  13.613  17.456  0.00  0.00    +0.000 A 
ENDBRANCH  21  29
ENDBRANCH  20  23
ENDBRANCH  19  20
ENDBRANCH   1  19
TORSDOF 4
ENDMDL
MODEL 2
REMARK VINA RESULT:      -8.5      5.830      8.696
REMARK  Name = 
REMARK  5 active torsions:
REMARK  status: ('A' for Active; 'I' for Inactive)
REMARK    1  A    between atoms: C_1  and  C_2
REMARK    2  A    between atoms: C_5  and  C_6
REMARK    3  A    between atoms: N_8  and  C_9
REMARK    4  A    between atoms: C_9  and  C_10
REMARK    5  A    between atoms: C_10  and  C_11
REMARK                            x       y       z     vdW  Elec       q    Type
REMARK                         _______ _______ _______ _____ _____    ______ ____
ROOT
ATOM      1  C   UNL     1       0.927   8.493  20.964  0.00  0.00    +0.000 C 
ATOM      2  O   UNL     1       0.094   7.801  21.564  0.00  0.00    +0.000 OA
ATOM      3  N   UNL     1       1.821   7.892  20.093  0.00  0.00    +0.000 N 
ATOM      4  C   UNL     1       1.982   6.491  20.373  0.00  0.00    +0.000 C 
ATOM      5  C   UNL     1       3.143   5.918  19.617  0.00  0.00    +0.000 C 
ATOM      6  C   UNL     1       2.718   5.816  18.143  0.00  0.00    +0.000 C 
ATOM      7  C   UNL     1       2.454   7.275  17.649  0.00  0.00    +0.000 C 
ATOM      8  C   UNL     1       2.324   8.376  18.785  0.00  0.00    +0.000 C 
ATOM      9  N   UNL     1       1.440   5.023  17.971  0.00  0.00    +0.000 NA
ATOM     10  C   UNL     1       1.486   3.706  18.663  0.00  0.00    +0.000 C 
ATOM     11  C   UNL     1       2.659   2.779  18.254  0.00  0.00    +0.000 C 
ATOM     12  C   UNL     1       3.735   3.572  17.603  0.00  0.00    +0.000 A 
ATOM     13  N   UNL     1       4.917   3.115  17.109  0.00  0.00    +0.000 N 
ATOM     14  C   UNL     1       5.600   4.210  16.654  0.00  0.00    +0.000 A 
ATOM     15  N   UNL     1       4.936   5.334  16.867  0.00  0.00    +0.000 NA
ATOM     16  C   UNL     1       3.769   4.952  17.464  0.00  0.00    +0.000 A 
ATOM     17  H   UNL     1       1.325   4.851  16.971  0.00  0.00    +0.000 HD
ATOM     18  H   UNL     1       5.252   2.161  17.120  0.00  0.00    +0.000 HD
ENDROOT
BRANCH   1  19
ATOM     19  C   UNL     1       1.128   9.930  21.382  0.00  0.00    +0.000 C 
BRANCH  19  20
ATOM     20  C   UNL     1      -0.255  10.609  21.348  0.00  0.00    +0.000 C 
BRANCH  20  23
ATOM     21  C   UNL     1      -1.721  11.335  19.515  0.00  0.00    +0.000 C 
ATOM     22  O   UNL     1      -1.794  12.472  19.959  0.00  0.00    +0.000 OA
ATOM     23  N   UNL     1      -1.053  10.323  20.171  0.00  0.00    +0.000 N 
ATOM     24  H   UNL     1      -0.753   9.535  19.615  0.00  0.00    +0.000 HD
BRANCH  21  29
ATOM     25  C   UNL     1      -3.808  10.045  14.275  0.00  0.00    +0.000 C 
ATOM     26  C   UNL     1      -3.301  10.351  15.652  0.00  0.00    +0.000 A 
ATOM     27  C   UNL     1      -2.129   9.757  16.131  0.00  0.00    +0.000 A 
ATOM     28  C   UNL     1      -1.645  10.075  17.399  0.00  0.00    +0.000 A 
ATOM     29  C   UNL     1      -2.332  10.997  18.200  0.00  0.00    +0.000 A 
ATOM     30  C   UNL     1      -3.506  11.583  17.740  0.00  0.00    +0.000 A 
ATOM     31  C   UNL     1      -3.991  11.259  16.468  0.00  0.00    +0.000 A 
ENDBRANCH  21  29
ENDBRANCH  20  23
ENDBRANCH  19  20
ENDBRANCH   1  19
TORSDOF 4
ENDMDL
MODEL 3
REMARK VINA RESULT:      -8.4      1.900      2.068
REMARK  Name = 
REMARK  5 active torsions:
REMARK  status: ('A' for Active; 'I' for Inactive)
REMARK    1  A    between atoms: C_1  and  C_2
REMARK    2  A    between atoms: C_5  and  C_6
REMARK    3  A    between atoms: N_8  and  C_9
REMARK    4  A    between atoms: C_9  and  C_10
REMARK    5  A    between atoms: C_10  and  C_11
REMARK                            x       y       z     vdW  Elec       q    Type
REMARK                         _______ _______ _______ _____ _____    ______ ____
ROOT
ATOM      1  C   UNL     1       6.868   6.773  17.658  0.00  0.00    +0.000 C 
ATOM      2  O   UNL     1       6.474   7.121  16.537  0.00  0.00    +0.000 OA
ATOM      3  N   UNL     1       6.040   6.022  18.476  0.00  0.00    +0.000 N 
ATOM      4  C   UNL     1       4.656   6.162  18.111  0.00  0.00    +0.000 C 
ATOM      5  C   UNL     1       3.758   5.575  19.158  0.00  0.00    +0.000 C 
ATOM      6  C   UNL     1       3.876   4.047  19.052  0.00  0.00    +0.000 C 
ATOM      7  C   UNL     1       5.359   3.685  19.389  0.00  0.00    +0.000 C 
ATOM      8  C   UNL     1       6.384   4.897  19.379  0.00  0.00    +0.000 C 
ATOM      9  N   UNL     1       3.575   3.546  17.656  0.00  0.00    +0.000 NA
ATOM     10  C   UNL     1       2.290   4.076  17.124  0.00  0.00    +0.000 C 
ATOM     11  C   UNL     1       1.039   3.790  17.993  0.00  0.00    +0.000 C 
ATOM     12  C   UNL     1       1.448   3.449  19.381  0.00  0.00    +0.000 A 
ATOM     13  N   UNL     1       0.639   3.137  20.429  0.00  0.00    +0.000 N 
ATOM     14  C   UNL     1       1.457   2.949  21.511  0.00  0.00    +0.000 A 
ATOM     15  N   UNL     1       2.728   3.163  21.217  0.00  0.00    +0.000 NA
ATOM     16  C   UNL     1       2.739   3.481  19.889  0.00  0.00    +0.000 A 
ATOM     17  H   UNL     1       3.499   2.529  17.711  0.00  0.00    +0.000 HD
ATOM     18  H   UNL     1      -0.371   3.100  20.427  0.00  0.00    +0.000 HD
ENDROOT
BRANCH   1  19
ATOM     19  C   UNL     1       8.130   7.386  18.217  0.00  0.00    +0.000 C 
BRANCH  19  20
ATOM     20  C   UNL     1       8.168   8.853  17.746  0.00  0.00    +0.000 C 
BRANCH  20  23
ATOM     21  C   UNL     1       9.438  10.803  18.535  0.00  0.00    +0.000 C 
ATOM     22  O   UNL     1      10.128  10.822  17.526  0.00  0.00    +0.000 OA
ATOM     23  N   UNL     1       8.499   9.822  18.773  0.00  0.00    +0.000 N 
ATOM     24  H   UNL     1       7.761  10.042  19.427  0.00  0.00    +0.000 HD
BRANCH  21  29
ATOM     25  C   UNL     1      10.177  15.088  22.353  0.00  0.00    +0.000 C 
ATOM     26  C   UNL     1       9.938  13.982  21.368  0.00  0.00    +0.000 A 
ATOM     27  C   UNL     1      10.124  14.194  19.998  0.00  0.00    +0.000 A 
ATOM     28  C   UNL     1       9.934  13.151  19.092  0.00  0.00    +0.000 A 
ATOM     29  C   UNL     1       9.558  11.882  19.554  0.00  0.00    +0.000 A 
ATOM     30  C   UNL     1       9.358  11.664  20.912  0.00  0.00    +0.000 A 
ATOM     31  C   UNL     1       9.545  12.714  21.818  0.00  0.00    +0.000 A 
ENDBRANCH  21  29
ENDBRANCH  20  23
ENDBRANCH  19  20
ENDBRANCH   1  19
TORSDOF 4
ENDMDL
MODEL 4
REMARK VINA RESULT:      -8.2      5.767      8.542
REMARK  Name = 
REMARK  5 active torsions:
REMARK  status: ('A' for Active; 'I' for Inactive)
REMARK    1  A    between atoms: C_1  and  C_2
REMARK    2  A    between atoms: C_5  and  C_6
REMARK    3  A    between atoms: N_8  and  C_9
REMARK    4  A    between atoms: C_9  and  C_10
REMARK    5  A    between atoms: C_10  and  C_11
REMARK                            x       y       z     vdW  Elec       q    Type
REMARK                         _______ _______ _______ _____ _____    ______ ____
ROOT
ATOM      1  C   UNL     1       1.088   8.129  21.061  0.00  0.00    +0.000 C 
ATOM      2  O   UNL     1       0.278   7.376  21.616  0.00  0.00    +0.000 OA
ATOM      3  N   UNL     1       1.983   7.616  20.137  0.00  0.00    +0.000 N 
ATOM      4  C   UNL     1       2.178   6.201  20.309  0.00  0.00    +0.000 C 
ATOM      5  C   UNL     1       3.340   5.712  19.498  0.00  0.00    +0.000 C 
ATOM      6  C   UNL     1       2.899   5.712  18.026  0.00  0.00    +0.000 C 
ATOM      7  C   UNL     1       2.598   7.198  17.646  0.00  0.00    +0.000 C 
ATOM      8  C   UNL     1       2.459   8.207  18.863  0.00  0.00    +0.000 C 
ATOM      9  N   UNL     1       1.636   4.906  17.810  0.00  0.00    +0.000 NA
ATOM     10  C   UNL     1       1.719   3.542  18.400  0.00  0.00    +0.000 C 
ATOM     11  C   UNL     1       2.907   2.675  17.909  0.00  0.00    +0.000 C 
ATOM     12  C   UNL     1       3.956   3.538  17.307  0.00  0.00    +0.000 A 
ATOM     13  N   UNL     1       5.142   3.146  16.767  0.00  0.00    +0.000 N 
ATOM     14  C   UNL     1       5.795   4.287  16.388  0.00  0.00    +0.000 A 
ATOM     15  N   UNL     1       5.110   5.377  16.693  0.00  0.00    +0.000 NA
ATOM     16  C   UNL     1       3.959   4.926  17.272  0.00  0.00    +0.000 A 
ATOM     17  H   UNL     1       1.512   4.807  16.800  0.00  0.00    +0.000 HD
ATOM     18  H   UNL     1       5.497   2.201  16.703  0.00  0.00    +0.000 HD
ENDROOT
BRANCH   1  19
ATOM     19  C   UNL     1       1.263   9.536  21.583  0.00  0.00    +0.000 C 
BRANCH  19  20
ATOM     20  C   UNL     1      -0.144  10.150  21.709  0.00  0.00    +0.000 C 
BRANCH  20  23
ATOM     21  C   UNL     1      -1.046  11.121  19.640  0.00  0.00    +0.000 C 
ATOM     22  O   UNL     1      -0.560  12.216  19.885  0.00  0.00    +0.000 OA
ATOM     23  N   UNL     1      -0.965  10.060  20.517  0.00  0.00    +0.000 N 
ATOM     24  H   UNL     1      -1.081   9.135  20.130  0.00  0.00    +0.000 HD
BRANCH  21  29
ATOM     25  C   UNL     1      -3.976  10.146  14.747  0.00  0.00    +0.000 C 
ATOM     26  C   UNL     1      -3.184  10.423  15.990  0.00  0.00    +0.000 A 
ATOM     27  C   UNL     1      -3.618  11.379  16.914  0.00  0.00    +0.000 A 
ATOM     28  C   UNL     1      -2.894  11.605  18.085  0.00  0.00    +0.000 A 
ATOM     29  C   UNL     1      -1.728  10.871  18.341  0.00  0.00    +0.000 A 
ATOM     30  C   UNL     1      -1.281   9.928  17.422  0.00  0.00    +0.000 A 
ATOM     31  C   UNL     1      -2.007   9.706  16.247  0.00  0.00    +0.000 A 
ENDBRANCH  21  29
ENDBRANCH  20  23
ENDBRANCH  19  20
ENDBRANCH   1  19
TORSDOF 4
ENDMDL
MODEL 5
REMARK VINA RESULT:      -8.1      2.625     10.701
REMARK  Name = 
REMARK  5 active torsions:
REMARK  status: ('A' for Active; 'I' for Inactive)
REMARK    1  A    between atoms: C_1  and  C_2
REMARK    2  A    between atoms: C_5  and  C_6
REMARK    3  A    between atoms: N_8  and  C_9
REMARK    4  A    between atoms: C_9  and  C_10
REMARK    5  A    between atoms: C_10  and  C_11
REMARK                            x       y       z     vdW  Elec       q    Type
REMARK                         _______ _______ _______ _____ _____    ______ ____
ROOT
ATOM      1  C   UNL     1       8.012   9.300  18.176  0.00  0.00    +0.000 C 
ATOM      2  O   UNL     1       7.075   9.570  17.413  0.00  0.00    +0.000 OA
ATOM      3  N   UNL     1       8.865  10.305  18.601  0.00  0.00    +0.000 N 
ATOM      4  C   UNL     1       8.844  11.436  17.713  0.00  0.00    +0.000 C 
ATOM      5  C   UNL     1       9.960  12.388  18.023  0.00  0.00    +0.000 C 
ATOM      6  C   UNL     1       9.592  13.107  19.331  0.00  0.00    +0.000 C 
ATOM      7  C   UNL     1       9.528  12.013  20.445  0.00  0.00    +0.000 C 
ATOM      8  C   UNL     1       9.481  10.511  19.934  0.00  0.00    +0.000 C 
ATOM      9  N   UNL     1       8.237  13.778  19.252  0.00  0.00    +0.000 NA
ATOM     10  C   UNL     1       8.094  14.638  18.046  0.00  0.00    +0.000 C 
ATOM     11  C   UNL     1       9.164  15.748  17.888  0.00  0.00    +0.000 C 
ATOM     12  C   UNL     1      10.355  15.432  18.720  0.00  0.00    +0.000 A 
ATOM     13  N   UNL     1      11.495  16.164  18.844  0.00  0.00    +0.000 N 
ATOM     14  C   UNL     1      12.324  15.457  19.673  0.00  0.00    +0.000 A 
ATOM     15  N   UNL     1      11.792  14.305  20.045  0.00  0.00    +0.000 NA
ATOM     16  C   UNL     1      10.561  14.273  19.453  0.00  0.00    +0.000 A 
ATOM     17  H   UNL     1       8.148  14.373  20.077  0.00  0.00    +0.000 HD
ATOM     18  H   UNL     1      11.712  17.035  18.379  0.00  0.00    +0.000 HD
ENDROOT
BRANCH   1  19
ATOM     19  C   UNL     1       8.365   7.852  18.424  0.00  0.00    +0.000 C 
BRANCH  19  20
ATOM     20  C   UNL     1       7.692   7.026  17.311  0.00  0.00    +0.000 C 
BRANCH  20  23
ATOM     21  C   UNL     1       5.421   6.250  16.786  0.00  0.00    +0.000 C 
ATOM     22  O   UNL     1       5.435   6.794  15.692  0.00  0.00    +0.000 OA
ATOM     23  N   UNL     1       6.454   6.373  17.691  0.00  0.00    +0.000 N 
ATOM     24  H   UNL     1       6.531   5.658  18.400  0.00  0.00    +0.000 HD
BRANCH  21  29
ATOM     25  C   UNL     1       0.993   3.005  18.617  0.00  0.00    +0.000 C 
ATOM     26  C   UNL     1       2.121   3.845  18.098  0.00  0.00    +0.000 A 
ATOM     27  C   UNL     1       2.176   5.215  18.372  0.00  0.00    +0.000 A 
ATOM     28  C   UNL     1       3.247   5.982  17.916  0.00  0.00    +0.000 A 
ATOM     29  C   UNL     1       4.279   5.380  17.183  0.00  0.00    +0.000 A 
ATOM     30  C   UNL     1       4.228   4.021  16.894  0.00  0.00    +0.000 A 
ATOM     31  C   UNL     1       3.149   3.254  17.349  0.00  0.00    +0.000 A 
ENDBRANCH  21  29
ENDBRANCH  20  23
ENDBRANCH  19  20
ENDBRANCH   1  19
TORSDOF 4
ENDMDL
MODEL 6
REMARK VINA RESULT:      -8.0      7.141      9.667
REMARK  Name = 
REMARK  5 active torsions:
REMARK  status: ('A' for Active; 'I' for Inactive)
REMARK    1  A    between atoms: C_1  and  C_2
REMARK    2  A    between atoms: C_5  and  C_6
REMARK    3  A    between atoms: N_8  and  C_9
REMARK    4  A    between atoms: C_9  and  C_10
REMARK    5  A    between atoms: C_10  and  C_11
REMARK                            x       y       z     vdW  Elec       q    Type
REMARK                         _______ _______ _______ _____ _____    ______ ____
ROOT
ATOM      1  C   UNL     1       0.565   8.273  21.157  0.00  0.00    +0.000 C 
ATOM      2  O   UNL     1      -0.312   7.528  21.611  0.00  0.00    +0.000 OA
ATOM      3  N   UNL     1       1.540   7.757  20.320  0.00  0.00    +0.000 N 
ATOM      4  C   UNL     1       1.689   6.336  20.484  0.00  0.00    +0.000 C 
ATOM      5  C   UNL     1       2.919   5.837  19.787  0.00  0.00    +0.000 C 
ATOM      6  C   UNL     1       2.631   5.871  18.278  0.00  0.00    +0.000 C 
ATOM      7  C   UNL     1       2.400   7.370  17.897  0.00  0.00    +0.000 C 
ATOM      8  C   UNL     1       2.156   8.360  19.113  0.00  0.00    +0.000 C 
ATOM      9  N   UNL     1       1.382   5.096  17.917  0.00  0.00    +0.000 NA
ATOM     10  C   UNL     1       1.379   3.721  18.486  0.00  0.00    +0.000 C 
ATOM     11  C   UNL     1       2.593   2.837  18.103  0.00  0.00    +0.000 C 
ATOM     12  C   UNL     1       3.715   3.689  17.629  0.00  0.00    +0.000 A 
ATOM     13  N   UNL     1       4.942   3.281  17.206  0.00  0.00    +0.000 N 
ATOM     14  C   UNL     1       5.653   4.414  16.918  0.00  0.00    +0.000 A 
ATOM     15  N   UNL     1       4.962   5.513  17.172  0.00  0.00    +0.000 NA
ATOM     16  C   UNL     1       3.748   5.076  17.621  0.00  0.00    +0.000 A 
ATOM     17  H   UNL     1       1.361   5.017  16.899  0.00  0.00    +0.000 HD
ATOM     18  H   UNL     1       5.284   2.330  17.160  0.00  0.00    +0.000 HD
ENDROOT
BRANCH   1  19
ATOM     19  C   UNL     1       0.712   9.666  21.722  0.00  0.00    +0.000 C 
BRANCH  19  20
ATOM     20  C   UNL     1       0.071   9.657  23.123  0.00  0.00    +0.000 C 
BRANCH  20  23
ATOM     21  C   UNL     1      -1.344  11.661  23.007  0.00  0.00    +0.000 C 
ATOM     22  O   UNL     1      -0.376  12.397  22.883  0.00  0.00    +0.000 OA
ATOM     23  N   UNL     1      -1.223  10.304  23.213  0.00  0.00    +0.000 N 
ATOM     24  H   UNL     1      -2.021   9.731  22.976  0.00  0.00    +0.000 HD
BRANCH  21  29
ATOM     25  C   UNL     1      -6.812  13.541  22.781  0.00  0.00    +0.000 C 
ATOM     26  C   UNL     1      -5.380  13.099  22.836  0.00  0.00    +0.000 A 
ATOM     27  C   UNL     1      -4.801  12.701  24.045  0.00  0.00    +0.000 A 
ATOM     28  C   UNL     1      -3.480  12.258  24.081  0.00  0.00    +0.000 A 
ATOM     29  C   UNL     1      -2.726  12.207  22.901  0.00  0.00    +0.000 A 
ATOM     30  C   UNL     1      -3.287  12.613  21.696  0.00  0.00    +0.000 A 
ATOM     31  C   UNL     1      -4.612  13.060  21.663  0.00  0.00    +0.000 A 
ENDBRANCH  21  29
ENDBRANCH  20  23
ENDBRANCH  19  20
ENDBRANCH   1  19
TORSDOF 4
ENDMDL
MODEL 7
REMARK VINA RESULT:      -8.0      1.422      2.199
REMARK  Name = 
REMARK  5 active torsions:
REMARK  status: ('A' for Active; 'I' for Inactive)
REMARK    1  A    between atoms: C_1  and  C_2
REMARK    2  A    between atoms: C_5  and  C_6
REMARK    3  A    between atoms: N_8  and  C_9
REMARK    4  A    between atoms: C_9  and  C_10
REMARK    5  A    between atoms: C_10  and  C_11
REMARK                            x       y       z     vdW  Elec       q    Type
REMARK                         _______ _______ _______ _____ _____    ______ ____
ROOT
ATOM      1  C   UNL     1       7.123   6.212  17.505  0.00  0.00    +0.000 C 
ATOM      2  O   UNL     1       8.044   5.388  17.433  0.00  0.00    +0.000 OA
ATOM      3  N   UNL     1       5.836   5.783  17.783  0.00  0.00    +0.000 N 
ATOM      4  C   UNL     1       5.655   4.392  17.466  0.00  0.00    +0.000 C 
ATOM      5  C   UNL     1       4.206   4.011  17.506  0.00  0.00    +0.000 C 
ATOM      6  C   UNL     1       3.788   3.972  18.984  0.00  0.00    +0.000 C 
ATOM      7  C   UNL     1       3.952   5.425  19.538  0.00  0.00    +0.000 C 
ATOM      8  C   UNL     1       4.798   6.416  18.633  0.00  0.00    +0.000 C 
ATOM      9  N   UNL     1       4.672   3.055  19.803  0.00  0.00    +0.000 NA
ATOM     10  C   UNL     1       4.812   1.704  19.195  0.00  0.00    +0.000 C 
ATOM     11  C   UNL     1       3.485   0.948  18.934  0.00  0.00    +0.000 C 
ATOM     12  C   UNL     1       2.346   1.904  18.923  0.00  0.00    +0.000 A 
ATOM     13  N   UNL     1       1.030   1.621  18.727  0.00  0.00    +0.000 N 
ATOM     14  C   UNL     1       0.366   2.817  18.753  0.00  0.00    +0.000 A 
ATOM     15  N   UNL     1       1.188   3.840  18.914  0.00  0.00    +0.000 NA
ATOM     16  C   UNL     1       2.432   3.286  19.018  0.00  0.00    +0.000 A 
ATOM     17  H   UNL     1       4.227   2.946  20.716  0.00  0.00    +0.000 HD
ATOM     18  H   UNL     1       0.624   0.713  18.547  0.00  0.00    +0.000 HD
ENDROOT
BRANCH   1  19
ATOM     19  C   UNL     1       7.364   7.628  17.038  0.00  0.00    +0.000 C 
BRANCH  19  20
ATOM     20  C   UNL     1       8.138   8.349  18.158  0.00  0.00    +0.000 C 
BRANCH  20  23
ATOM     21  C   UNL     1       9.263  10.447  18.767  0.00  0.00    +0.000 C 
ATOM     22  O   UNL     1       9.433  10.078  19.920  0.00  0.00    +0.000 OA
ATOM     23  N   UNL     1       8.564   9.699  17.843  0.00  0.00    +0.000 N 
ATOM     24  H   UNL     1       8.744   9.889  16.868  0.00  0.00    +0.000 HD
BRANCH  21  29
ATOM     25  C   UNL     1      11.255  15.507  16.788  0.00  0.00    +0.000 C 
ATOM     26  C   UNL     1      10.770  14.199  17.338  0.00  0.00    +0.000 A 
ATOM     27  C   UNL     1       9.534  14.112  17.987  0.00  0.00    +0.000 A 
ATOM     28  C   UNL     1       9.074  12.885  18.464  0.00  0.00    +0.000 A 
ATOM     29  C   UNL     1       9.849  11.730  18.290  0.00  0.00    +0.000 A 
ATOM     30  C   UNL     1      11.085  11.808  17.657  0.00  0.00    +0.000 A 
ATOM     31  C   UNL     1      11.546  13.041  17.184  0.00  0.00    +0.000 A 
ENDBRANCH  21  29
ENDBRANCH  20  23
ENDBRANCH  19  20
ENDBRANCH   1  19
TORSDOF 4
ENDMDL
MODEL 8
REMARK VINA RESULT:      -7.9      7.978     10.776
REMARK  Name = 
REMARK  5 active torsions:
REMARK  status: ('A' for Active; 'I' for Inactive)
REMARK    1  A    between atoms: C_1  and  C_2
REMARK    2  A    between atoms: C_5  and  C_6
REMARK    3  A    between atoms: N_8  and  C_9
REMARK    4  A    between atoms: C_9  and  C_10
REMARK    5  A    between atoms: C_10  and  C_11
REMARK                            x       y       z     vdW  Elec       q    Type
REMARK                         _______ _______ _______ _____ _____    ______ ____
ROOT
ATOM      1  C   UNL     1       0.613  11.245  19.096  0.00  0.00    +0.000 C 
ATOM      2  O   UNL     1       1.670  11.834  19.357  0.00  0.00    +0.000 OA
ATOM      3  N   UNL     1      -0.500  11.442  19.896  0.00  0.00    +0.000 N 
ATOM      4  C   UNL     1      -0.142  11.922  21.203  0.00  0.00    +0.000 C 
ATOM      5  C   UNL     1      -1.312  11.867  22.139  0.00  0.00    +0.000 C 
ATOM      6  C   UNL     1      -2.273  12.994  21.730  0.00  0.00    +0.000 C 
ATOM      7  C   UNL     1      -2.760  12.667  20.281  0.00  0.00    +0.000 C 
ATOM      8  C   UNL     1      -1.926  11.562  19.506  0.00  0.00    +0.000 C 
ATOM      9  N   UNL     1      -1.590  14.345  21.703  0.00  0.00    +0.000 NA
ATOM     10  C   UNL     1      -0.844  14.634  22.957  0.00  0.00    +0.000 C 
ATOM     11  C   UNL     1      -1.681  14.570  24.261  0.00  0.00    +0.000 C 
ATOM     12  C   UNL     1      -2.928  13.796  24.029  0.00  0.00    +0.000 A 
ATOM     13  N   UNL     1      -3.912  13.524  24.929  0.00  0.00    +0.000 N 
ATOM     14  C   UNL     1      -4.830  12.745  24.279  0.00  0.00    +0.000 A 
ATOM     15  N   UNL     1      -4.465  12.475  23.037  0.00  0.00    +0.000 NA
ATOM     16  C   UNL     1      -3.275  13.123  22.867  0.00  0.00    +0.000 A 
ATOM     17  H   UNL     1      -2.322  15.050  21.601  0.00  0.00    +0.000 HD
ATOM     18  H   UNL     1      -3.939  13.799  25.901  0.00  0.00    +0.000 HD
ENDROOT
BRANCH   1  19
ATOM     19  C   UNL     1       0.624  10.132  18.075  0.00  0.00    +0.000 C 
BRANCH  19  20
ATOM     20  C   UNL     1       2.074   9.621  17.978  0.00  0.00    +0.000 C 
BRANCH  20  23
ATOM     21  C   UNL     1       2.089   7.573  19.335  0.00  0.00    +0.000 C 
ATOM     22  O   UNL     1       1.967   8.204  20.375  0.00  0.00    +0.000 OA
ATOM     23  N   UNL     1       2.232   8.185  18.108  0.00  0.00    +0.000 N 
ATOM     24  H   UNL     1       1.995   7.639  17.292  0.00  0.00    +0.000 HD
BRANCH  21  29
ATOM     25  C   UNL     1       1.755   1.801  19.109  0.00  0.00    +0.000 C 
ATOM     26  C   UNL     1       1.885   3.293  19.187  0.00  0.00    +0.000 A 
ATOM     27  C   UNL     1       2.152   4.047  18.041  0.00  0.00    +0.000 A 
ATOM     28  C   UNL     1       2.236   5.437  18.116  0.00  0.00    +0.000 A 
ATOM     29  C   UNL     1       2.049   6.085  19.345  0.00  0.00    +0.000 A 
ATOM     30  C   UNL     1       1.796   5.343  20.493  0.00  0.00    +0.000 A 
ATOM     31  C   UNL     1       1.716   3.948  20.415  0.00  0.00    +0.000 A 
ENDBRANCH  21  29
ENDBRANCH  20  23
ENDBRANCH  19  20
ENDBRANCH   1  19
TORSDOF 4
ENDMDL
MODEL 9
REMARK VINA RESULT:      -7.9      3.522      5.999
REMARK  Name = 
REMARK  5 active torsions:
REMARK  status: ('A' for Active; 'I' for Inactive)
REMARK    1  A    between atoms: C_1  and  C_2
REMARK    2  A    between atoms: C_5  and  C_6
REMARK    3  A    between atoms: N_8  and  C_9
REMARK    4  A    between atoms: C_9  and  C_10
REMARK    5  A    between atoms: C_10  and  C_11
REMARK                            x       y       z     vdW  Elec       q    Type
REMARK                         _______ _______ _______ _____ _____    ______ ____
ROOT
ATOM      1  C   UNL     1       5.459   7.008  17.455  0.00  0.00    +0.000 C 
ATOM      2  O   UNL     1       4.756   7.301  16.480  0.00  0.00    +0.000 OA
ATOM      3  N   UNL     1       4.977   6.129  18.411  0.00  0.00    +0.000 N 
ATOM      4  C   UNL     1       3.541   6.057  18.396  0.00  0.00    +0.000 C 
ATOM      5  C   UNL     1       3.023   5.327  19.599  0.00  0.00    +0.000 C 
ATOM      6  C   UNL     1       3.336   3.837  19.395  0.00  0.00    +0.000 C 
ATOM      7  C   UNL     1       4.893   3.706  19.348  0.00  0.00    +0.000 C 
ATOM      8  C   UNL     1       5.694   5.062  19.150  0.00  0.00    +0.000 C 
ATOM      9  N   UNL     1       2.780   3.309  18.090  0.00  0.00    +0.000 NA
ATOM     10  C   UNL     1       1.340   3.639  17.907  0.00  0.00    +0.000 C 
ATOM     11  C   UNL     1       0.397   3.153  19.037  0.00  0.00    +0.000 C 
ATOM     12  C   UNL     1       1.178   2.866  20.268  0.00  0.00    +0.000 A 
ATOM     13  N   UNL     1       0.706   2.422  21.464  0.00  0.00    +0.000 N 
ATOM     14  C   UNL     1       1.781   2.352  22.307  0.00  0.00    +0.000 A 
ATOM     15  N   UNL     1       2.896   2.764  21.727  0.00  0.00    +0.000 NA
ATOM     16  C   UNL     1       2.535   3.093  20.452  0.00  0.00    +0.000 A 
ATOM     17  H   UNL     1       2.871   2.292  18.113  0.00  0.00    +0.000 HD
ATOM     18  H   UNL     1      -0.258   2.228  21.702  0.00  0.00    +0.000 HD
ENDROOT
BRANCH   1  19
ATOM     19  C   UNL     1       6.715   7.804  17.724  0.00  0.00    +0.000 C 
BRANCH  19  20
ATOM     20  C   UNL     1       7.859   7.118  16.953  0.00  0.00    +0.000 C 
BRANCH  20  23
ATOM     21  C   UNL     1       7.409   5.102  15.622  0.00  0.00    +0.000 C 
ATOM     22  O   UNL     1       7.810   4.366  16.512  0.00  0.00    +0.000 OA
ATOM     23  N   UNL     1       7.468   6.476  15.712  0.00  0.00    +0.000 N 
ATOM     24  H   UNL     1       6.839   7.002  15.122  0.00  0.00    +0.000 HD
BRANCH  21  29
ATOM     25  C   UNL     1       4.893   2.656  11.020  0.00  0.00    +0.000 C 
ATOM     26  C   UNL     1       5.539   3.333  12.192  0.00  0.00    +0.000 A 
ATOM     27  C   UNL     1       4.849   3.485  13.399  0.00  0.00    +0.000 A 
ATOM     28  C   UNL     1       5.469   4.083  14.495  0.00  0.00    +0.000 A 
ATOM     29  C   UNL     1       6.792   4.533  14.392  0.00  0.00    +0.000 A 
ATOM     30  C   UNL     1       7.483   4.399  13.193  0.00  0.00    +0.000 A 
ATOM     31  C   UNL     1       6.857   3.802  12.093  0.00  0.00    +0.000 A 
ENDBRANCH  21  29
ENDBRANCH  20  23
ENDBRANCH  19  20
ENDBRANCH   1  19
TORSDOF 4
ENDMDL
