MODEL 1
REMARK VINA RESULT:      -7.0      0.000      0.000
REMARK  Name = 
REMARK  6 active torsions:
REMARK  status: ('A' for Active; 'I' for Inactive)
REMARK    1  A    between atoms: C_1  and  C_2
REMARK    2  A    between atoms: C_2  and  O_3
REMARK    3  A    between atoms: C_2  and  C_18
REMARK    4  A    between atoms: O_3  and  C_4
REMARK    5  A    between atoms: C_7  and  C_8
REMARK    6  A    between atoms: C_18  and  O_20
REMARK                            x       y       z     vdW  Elec       q    Type
REMARK                         _______ _______ _______ _____ _____    ______ ____
ROOT
ATOM      1  C   UNL     1       5.297   4.007  16.776  0.00  0.00    +0.000 A 
ATOM      2  C   UNL     1       3.909   3.848  16.729  0.00  0.00    +0.000 A 
ATOM      3  C   UNL     1       3.103   4.290  17.782  0.00  0.00    +0.000 A 
ATOM      4  C   UNL     1       3.682   4.881  18.908  0.00  0.00    +0.000 A 
ATOM      5  C   UNL     1       5.074   4.982  18.983  0.00  0.00    +0.000 A 
ATOM      6  C   UNL     1       5.880   4.541  17.924  0.00  0.00    +0.000 A 
ENDROOT
BRANCH   4   7
ATOM      7  C   UNL     1       2.828   5.414  19.971  0.00  0.00    +0.000 C 
ATOM      8  C   UNL     1       2.278   6.632  19.975  0.00  0.00    +0.000 C 
ATOM      9  N   UNL     1       1.547   7.149  21.013  0.00  0.00    +0.000 N 
ATOM     10  C   UNL     1       1.184   8.450  20.724  0.00  0.00    +0.000 C 
ATOM     11  S   UNL     1       0.334   9.454  21.719  0.00  0.00    +0.000 S 
ATOM     12  N   UNL     1       1.656   8.760  19.480  0.00  0.00    +0.000 N 
ATOM     13  C   UNL     1       2.339   7.709  18.926  0.00  0.00    +0.000 C 
ATOM     14  O   UNL     1       2.859   7.667  17.829  0.00  0.00    +0.000 OA
ATOM     15  H   UNL     1       1.334   6.678  21.883  0.00  0.00    +0.000 HD
ATOM     16  H   UNL     1       1.528   9.643  19.010  0.00  0.00    +0.000 HD
ENDBRANCH   4   7
BRANCH   1  17
ATOM     17  O   UNL     1       5.952   3.608  15.647  0.00  0.00    +0.000 OA
BRANCH  17  19
ATOM     18  C   UNL     1       5.784   3.591  13.190  0.00  0.00    +0.000 C 
ATOM     19  C   UNL     1       5.877   4.426  14.465  0.00  0.00    +0.000 C 
BRANCH  19  20
ATOM     20  C   UNL     1       7.178   5.237  14.405  0.00  0.00    +0.000 C 
ATOM     21  O   UNL     1       7.703   5.774  15.369  0.00  0.00    +0.000 OA
BRANCH  20  22
ATOM     22  O   UNL     1       7.703   5.323  13.156  0.00  0.00    +0.000 OA
ATOM     23  H   UNL     1       8.628   5.648  13.215  0.00  0.00    +0.000 HD
ENDBRANCH  20  22
ENDBRANCH  19  20
ENDBRANCH  17  19
ENDBRANCH   1  17
TORSDOF 5
ENDMDL
MODEL 2
REMARK VINA RESULT:      -6.9      1.198      1.377
REMARK  Name = 
REMARK  6 active torsions:
REMARK  status: ('A' for Active; 'I' for Inactive)
REMARK    1  A    between atoms: C_1  and  C_2
REMARK    2  A    between atoms: C_2  and  O_3
REMARK    3  A    between atoms: C_2  and  C_18
REMARK    4  A    between atoms: O_3  and  C_4
REMARK    5  A    between atoms: C_7  and  C_8
REMARK    6  A    between atoms: C_18  and  O_20
REMARK                            x       y       z     vdW  Elec       q    Type
REMARK                         _______ _______ _______ _____ _____    ______ ____
ROOT
ATOM      1  C   UNL     1       4.489   4.295  17.526  0.00  0.00    +0.000 A 
ATOM      2  C   UNL     1       3.098   4.240  17.403  0.00  0.00    +0.000 A 
ATOM      3  C   UNL     1       2.273   4.843  18.357  0.00  0.00    +0.000 A 
ATOM      4  C   UNL     1       2.833   5.494  19.459  0.00  0.00    +0.000 A 
ATOM      5  C   UNL     1       4.222   5.493  19.615  0.00  0.00    +0.000 A 
ATOM      6  C   UNL     1       5.048   4.890  18.655  0.00  0.00    +0.000 A 
ENDROOT
BRANCH   4   7
ATOM      7  C   UNL     1       1.967   6.192  20.411  0.00  0.00    +0.000 C 
ATOM      8  C   UNL     1       1.567   7.462  20.294  0.00  0.00    +0.000 C 
ATOM      9  N   UNL     1       0.822   8.129  21.234  0.00  0.00    +0.000 N 
ATOM     10  C   UNL     1       0.639   9.439  20.837  0.00  0.00    +0.000 C 
ATOM     11  S   UNL     1      -0.162  10.599  21.693  0.00  0.00    +0.000 S 
ATOM     12  N   UNL     1       1.241   9.607  19.622  0.00  0.00    +0.000 N 
ATOM     13  C   UNL     1       1.836   8.450  19.193  0.00  0.00    +0.000 C 
ATOM     14  O   UNL     1       2.433   8.274  18.149  0.00  0.00    +0.000 OA
ATOM     15  H   UNL     1       0.487   7.745  22.108  0.00  0.00    +0.000 HD
ATOM     16  H   UNL     1       1.256  10.464  19.092  0.00  0.00    +0.000 HD
ENDBRANCH   4   7
BRANCH   1  17
ATOM     17  O   UNL     1       5.173   3.739  16.483  0.00  0.00    +0.000 OA
BRANCH  17  19
ATOM     18  C   UNL     1       6.079   3.900  14.200  0.00  0.00    +0.000 C 
ATOM     19  C   UNL     1       5.825   4.600  15.533  0.00  0.00    +0.000 C 
BRANCH  19  20
ATOM     20  C   UNL     1       7.185   4.975  16.136  0.00  0.00    +0.000 C 
ATOM     21  O   UNL     1       7.939   4.184  16.685  0.00  0.00    +0.000 OA
BRANCH  20  22
ATOM     22  O   UNL     1       7.482   6.294  16.019  0.00  0.00    +0.000 OA
ATOM     23  H   UNL     1       6.966   6.678  15.277  0.00  0.00    +0.000 HD
ENDBRANCH  20  22
ENDBRANCH  19  20
ENDBRANCH  17  19
ENDBRANCH   1  17
TORSDOF 5
ENDMDL
MODEL 3
REMARK VINA RESULT:      -6.8      1.309      1.887
REMARK  Name = 
REMARK  6 active torsions:
REMARK  status: ('A' for Active; 'I' for Inactive)
REMARK    1  A    between atoms: C_1  and  C_2
REMARK    2  A    between atoms: C_2  and  O_3
REMARK    3  A    between atoms: C_2  and  C_18
REMARK    4  A    between atoms: O_3  and  C_4
REMARK    5  A    between atoms: C_7  and  C_8
REMARK    6  A    between atoms: C_18  and  O_20
REMARK                            x       y       z     vdW  Elec       q    Type
REMARK                         _______ _______ _______ _____ _____    ______ ____
ROOT
ATOM      1  C   UNL     1       4.280   4.399  17.478  0.00  0.00    +0.000 A 
ATOM      2  C   UNL     1       4.846   5.148  18.514  0.00  0.00    +0.000 A 
ATOM      3  C   UNL     1       4.041   5.734  19.494  0.00  0.00    +0.000 A 
ATOM      4  C   UNL     1       2.651   5.593  19.437  0.00  0.00    +0.000 A 
ATOM      5  C   UNL     1       2.082   4.899  18.366  0.00  0.00    +0.000 A 
ATOM      6  C   UNL     1       2.893   4.308  17.386  0.00  0.00    +0.000 A 
ENDROOT
BRANCH   4   7
ATOM      7  C   UNL     1       1.819   6.142  20.509  0.00  0.00    +0.000 C 
ATOM      8  C   UNL     1       1.388   7.405  20.576  0.00  0.00    +0.000 C 
ATOM      9  N   UNL     1       0.678   7.927  21.627  0.00  0.00    +0.000 N 
ATOM     10  C   UNL     1       0.450   9.272  21.411  0.00  0.00    +0.000 C 
ATOM     11  S   UNL     1      -0.331  10.292  22.447  0.00  0.00    +0.000 S 
ATOM     12  N   UNL     1       0.989   9.609  20.202  0.00  0.00    +0.000 N 
ATOM     13  C   UNL     1       1.585   8.532  19.601  0.00  0.00    +0.000 C 
ATOM     14  O   UNL     1       2.133   8.507  18.517  0.00  0.00    +0.000 OA
ATOM     15  H   UNL     1       0.393   7.426  22.459  0.00  0.00    +0.000 HD
ATOM     16  H   UNL     1       0.961  10.527  19.787  0.00  0.00    +0.000 HD
ENDBRANCH   4   7
BRANCH   1  17
ATOM     17  O   UNL     1       5.186   3.814  16.640  0.00  0.00    +0.000 OA
BRANCH  17  19
ATOM     18  C   UNL     1       6.133   3.803  14.367  0.00  0.00    +0.000 C 
ATOM     19  C   UNL     1       5.819   4.612  15.624  0.00  0.00    +0.000 C 
BRANCH  19  20
ATOM     20  C   UNL     1       7.148   5.104  16.211  0.00  0.00    +0.000 C 
ATOM     21  O   UNL     1       7.554   6.255  16.133  0.00  0.00    +0.000 OA
BRANCH  20  22
ATOM     22  O   UNL     1       7.861   4.127  16.828  0.00  0.00    +0.000 OA
ATOM     23  H   UNL     1       8.164   3.475  16.159  0.00  0.00    +0.000 HD
ENDBRANCH  20  22
ENDBRANCH  19  20
ENDBRANCH  17  19
ENDBRANCH   1  17
TORSDOF 5
ENDMDL
MODEL 4
REMARK VINA RESULT:      -6.7      1.413      1.846
REMARK  Name = 
REMARK  6 active torsions:
REMARK  status: ('A' for Active; 'I' for Inactive)
REMARK    1  A    between atoms: C_1  and  C_2
REMARK    2  A    between atoms: C_2  and  O_3
REMARK    3  A    between atoms: C_2  and  C_18
REMARK    4  A    between atoms: O_3  and  C_4
REMARK    5  A    between atoms: C_7  and  C_8
REMARK    6  A    between atoms: C_18  and  O_20
REMARK                            x       y       z     vdW  Elec       q    Type
REMARK                         _______ _______ _______ _____ _____    ______ ____
ROOT
ATOM      1  C   UNL     1       4.334   4.762  16.923  0.00  0.00    +0.000 A 
ATOM      2  C   UNL     1       4.813   6.016  17.311  0.00  0.00    +0.000 A 
ATOM      3  C   UNL     1       4.110   6.794  18.235  0.00  0.00    +0.000 A 
ATOM      4  C   UNL     1       2.904   6.331  18.769  0.00  0.00    +0.000 A 
ATOM      5  C   UNL     1       2.394   5.105  18.333  0.00  0.00    +0.000 A 
ATOM      6  C   UNL     1       3.103   4.325  17.408  0.00  0.00    +0.000 A 
ENDROOT
BRANCH   4   7
ATOM      7  C   UNL     1       2.214   7.114  19.796  0.00  0.00    +0.000 C 
ATOM      8  C   UNL     1       1.693   8.331  19.611  0.00  0.00    +0.000 C 
ATOM      9  N   UNL     1       1.121   9.087  20.602  0.00  0.00    +0.000 N 
ATOM     10  C   UNL     1       0.745  10.314  20.092  0.00  0.00    +0.000 C 
ATOM     11  S   UNL     1       0.058  11.543  20.952  0.00  0.00    +0.000 S 
ATOM     12  N   UNL     1       1.048  10.335  18.760  0.00  0.00    +0.000 N 
ATOM     13  C   UNL     1       1.628   9.161  18.359  0.00  0.00    +0.000 C 
ATOM     14  O   UNL     1       1.992   8.866  17.238  0.00  0.00    +0.000 OA
ATOM     15  H   UNL     1       1.021   8.818  21.573  0.00  0.00    +0.000 HD
ATOM     16  H   UNL     1       0.873  11.105  18.134  0.00  0.00    +0.000 HD
ENDBRANCH   4   7
BRANCH   1  17
ATOM     17  O   UNL     1       5.161   4.075  16.081  0.00  0.00    +0.000 OA
BRANCH  17  19
ATOM     18  C   UNL     1       5.543   3.956  13.651  0.00  0.00    +0.000 C 
ATOM     19  C   UNL     1       5.723   4.752  14.942  0.00  0.00    +0.000 C 
BRANCH  19  20
ATOM     20  C   UNL     1       7.228   4.887  15.207  0.00  0.00    +0.000 C 
ATOM     21  O   UNL     1       7.797   4.458  16.200  0.00  0.00    +0.000 OA
BRANCH  20  22
ATOM     22  O   UNL     1       7.891   5.554  14.227  0.00  0.00    +0.000 OA
ATOM     23  H   UNL     1       7.369   6.342  13.961  0.00  0.00    +0.000 HD
ENDBRANCH  20  22
ENDBRANCH  19  20
ENDBRANCH  17  19
ENDBRANCH   1  17
TORSDOF 5
ENDMDL
MODEL 5
REMARK VINA RESULT:      -6.7      0.415      1.132
REMARK  Name = 
REMARK  6 active torsions:
REMARK  status: ('A' for Active; 'I' for Inactive)
REMARK    1  A    between atoms: C_1  and  C_2
REMARK    2  A    between atoms: C_2  and  O_3
REMARK    3  A    between atoms: C_2  and  C_18
REMARK    4  A    between atoms: O_3  and  C_4
REMARK    5  A    between atoms: C_7  and  C_8
REMARK    6  A    between atoms: C_18  and  O_20
REMARK                            x       y       z     vdW  Elec       q    Type
REMARK                         _______ _______ _______ _____ _____    ______ ____
ROOT
ATOM      1  C   UNL     1       4.923   4.220  16.535  0.00  0.00    +0.000 A 
ATOM      2  C   UNL     1       5.512   5.119  17.428  0.00  0.00    +0.000 A 
ATOM      3  C   UNL     1       4.794   5.614  18.520  0.00  0.00    +0.000 A 
ATOM      4  C   UNL     1       3.465   5.230  18.719  0.00  0.00    +0.000 A 
ATOM      5  C   UNL     1       2.856   4.381  17.790  0.00  0.00    +0.000 A 
ATOM      6  C   UNL     1       3.580   3.882  16.697  0.00  0.00    +0.000 A 
ENDROOT
BRANCH   4   7
ATOM      7  C   UNL     1       2.744   5.689  19.907  0.00  0.00    +0.000 C 
ATOM      8  C   UNL     1       2.152   6.880  20.032  0.00  0.00    +0.000 C 
ATOM      9  N   UNL     1       1.550   7.330  21.180  0.00  0.00    +0.000 N 
ATOM     10  C   UNL     1       1.098   8.622  20.992  0.00  0.00    +0.000 C 
ATOM     11  S   UNL     1       0.353   9.554  22.132  0.00  0.00    +0.000 S 
ATOM     12  N   UNL     1       1.383   8.993  19.709  0.00  0.00    +0.000 N 
ATOM     13  C   UNL     1       2.025   7.992  19.028  0.00  0.00    +0.000 C 
ATOM     14  O   UNL     1       2.391   8.010  17.869  0.00  0.00    +0.000 OA
ATOM     15  H   UNL     1       1.477   6.821  22.052  0.00  0.00    +0.000 HD
ATOM     16  H   UNL     1       1.157   9.884  19.296  0.00  0.00    +0.000 HD
ENDBRANCH   4   7
BRANCH   1  17
ATOM     17  O   UNL     1       5.762   3.752  15.564  0.00  0.00    +0.000 OA
BRANCH  17  19
ATOM     18  C   UNL     1       5.798   3.470  13.119  0.00  0.00    +0.000 C 
ATOM     19  C   UNL     1       5.826   4.437  14.301  0.00  0.00    +0.000 C 
BRANCH  19  20
ATOM     20  C   UNL     1       7.166   5.183  14.268  0.00  0.00    +0.000 C 
ATOM     21  O   UNL     1       7.732   5.629  15.255  0.00  0.00    +0.000 OA
BRANCH  20  22
ATOM     22  O   UNL     1       7.676   5.323  13.018  0.00  0.00    +0.000 OA
ATOM     23  H   UNL     1       7.249   4.672  12.419  0.00  0.00    +0.000 HD
ENDBRANCH  20  22
ENDBRANCH  19  20
ENDBRANCH  17  19
ENDBRANCH   1  17
TORSDOF 5
ENDMDL
MODEL 6
REMARK VINA RESULT:      -6.5      0.982      1.178
REMARK  Name = 
REMARK  6 active torsions:
REMARK  status: ('A' for Active; 'I' for Inactive)
REMARK    1  A    between atoms: C_1  and  C_2
REMARK    2  A    between atoms: C_2  and  O_3
REMARK    3  A    between atoms: C_2  and  C_18
REMARK    4  A    between atoms: O_3  and  C_4
REMARK    5  A    between atoms: C_7  and  C_8
REMARK    6  A    between atoms: C_18  and  O_20
REMARK                            x       y       z     vdW  Elec       q    Type
REMARK                         _______ _______ _______ _____ _____    ______ ____
ROOT
ATOM      1  C   UNL     1       6.542   4.731  16.406  0.00  0.00    +0.000 A 
ATOM      2  C   UNL     1       5.201   4.361  16.269  0.00  0.00    +0.000 A 
ATOM      3  C   UNL     1       4.293   4.572  17.311  0.00  0.00    +0.000 A 
ATOM      4  C   UNL     1       4.723   5.139  18.513  0.00  0.00    +0.000 A 
ATOM      5  C   UNL     1       6.077   5.449  18.673  0.00  0.00    +0.000 A 
ATOM      6  C   UNL     1       6.985   5.240  17.625  0.00  0.00    +0.000 A 
ENDROOT
BRANCH   4   7
ATOM      7  C   UNL     1       3.752   5.430  19.570  0.00  0.00    +0.000 C 
ATOM      8  C   UNL     1       2.946   6.496  19.598  0.00  0.00    +0.000 C 
ATOM      9  N   UNL     1       2.099   6.799  20.633  0.00  0.00    +0.000 N 
ATOM     10  C   UNL     1       1.462   7.997  20.375  0.00  0.00    +0.000 C 
ATOM     11  S   UNL     1       0.391   8.751  21.379  0.00  0.00    +0.000 S 
ATOM     12  N   UNL     1       1.877   8.450  19.155  0.00  0.00    +0.000 N 
ATOM     13  C   UNL     1       2.786   7.597  18.586  0.00  0.00    +0.000 C 
ATOM     14  O   UNL     1       3.323   7.712  17.502  0.00  0.00    +0.000 OA
ATOM     15  H   UNL     1       1.980   6.261  21.481  0.00  0.00    +0.000 HD
ATOM     16  H   UNL     1       1.566   9.299  18.711  0.00  0.00    +0.000 HD
ENDBRANCH   4   7
BRANCH   1  17
ATOM     17  O   UNL     1       7.299   4.546  15.284  0.00  0.00    +0.000 OA
BRANCH  17  19
ATOM     18  C   UNL     1       6.117   3.555  13.365  0.00  0.00    +0.000 C 
ATOM     19  C   UNL     1       6.718   4.810  13.994  0.00  0.00    +0.000 C 
BRANCH  19  20
ATOM     20  C   UNL     1       7.855   5.295  13.087  0.00  0.00    +0.000 C 
ATOM     21  O   UNL     1       8.815   5.948  13.471  0.00  0.00    +0.000 OA
BRANCH  20  22
ATOM     22  O   UNL     1       7.696   4.943  11.786  0.00  0.00    +0.000 OA
ATOM     23  H   UNL     1       8.071   4.046  11.644  0.00  0.00    +0.000 HD
ENDBRANCH  20  22
ENDBRANCH  19  20
ENDBRANCH  17  19
ENDBRANCH   1  17
TORSDOF 5
ENDMDL
MODEL 7
REMARK VINA RESULT:      -6.3      3.299      4.489
REMARK  Name = 
REMARK  6 active torsions:
REMARK  status: ('A' for Active; 'I' for Inactive)
REMARK    1  A    between atoms: C_1  and  C_2
REMARK    2  A    between atoms: C_2  and  O_3
REMARK    3  A    between atoms: C_2  and  C_18
REMARK    4  A    between atoms: O_3  and  C_4
REMARK    5  A    between atoms: C_7  and  C_8
REMARK    6  A    between atoms: C_18  and  O_20
REMARK                            x       y       z     vdW  Elec       q    Type
REMARK                         _______ _______ _______ _____ _____    ______ ____
ROOT
ATOM      1  C   UNL     1       3.716   4.984  18.353  0.00  0.00    +0.000 A 
ATOM      2  C   UNL     1       4.528   6.074  18.030  0.00  0.00    +0.000 A 
ATOM      3  C   UNL     1       3.969   7.330  17.775  0.00  0.00    +0.000 A 
ATOM      4  C   UNL     1       2.584   7.504  17.823  0.00  0.00    +0.000 A 
ATOM      5  C   UNL     1       1.768   6.400  18.083  0.00  0.00    +0.000 A 
ATOM      6  C   UNL     1       2.331   5.142  18.342  0.00  0.00    +0.000 A 
ENDROOT
BRANCH   4   7
ATOM      7  C   UNL     1       2.011   8.838  17.635  0.00  0.00    +0.000 C 
ATOM      8  C   UNL     1       1.393   9.549  18.584  0.00  0.00    +0.000 C 
ATOM      9  N   UNL     1       0.789  10.762  18.373  0.00  0.00    +0.000 N 
ATOM     10  C   UNL     1       0.190  11.191  19.541  0.00  0.00    +0.000 C 
ATOM     11  S   UNL     1      -0.682  12.580  19.720  0.00  0.00    +0.000 S 
ATOM     12  N   UNL     1       0.436  10.264  20.515  0.00  0.00    +0.000 N 
ATOM     13  C   UNL     1       1.175   9.216  20.034  0.00  0.00    +0.000 C 
ATOM     14  O   UNL     1       1.569   8.249  20.655  0.00  0.00    +0.000 OA
ATOM     15  H   UNL     1       0.745  11.260  17.494  0.00  0.00    +0.000 HD
ATOM     16  H   UNL     1       0.124  10.326  21.471  0.00  0.00    +0.000 HD
ENDBRANCH   4   7
BRANCH   1  17
ATOM     17  O   UNL     1       4.396   3.840  18.659  0.00  0.00    +0.000 OA
BRANCH  17  19
ATOM     18  C   UNL     1       4.592   2.109  20.399  0.00  0.00    +0.000 C 
ATOM     19  C   UNL     1       3.711   2.778  19.346  0.00  0.00    +0.000 C 
BRANCH  19  20
ATOM     20  C   UNL     1       3.356   1.724  18.289  0.00  0.00    +0.000 C 
ATOM     21  O   UNL     1       2.469   1.851  17.458  0.00  0.00    +0.000 OA
BRANCH  20  22
ATOM     22  O   UNL     1       4.119   0.604  18.366  0.00  0.00    +0.000 OA
ATOM     23  H   UNL     1       4.520   0.545  19.261  0.00  0.00    +0.000 HD
ENDBRANCH  20  22
ENDBRANCH  19  20
ENDBRANCH  17  19
ENDBRANCH   1  17
TORSDOF 5
ENDMDL
MODEL 8
REMARK VINA RESULT:      -6.2      4.582      7.612
REMARK  Name = 
REMARK  6 active torsions:
REMARK  status: ('A' for Active; 'I' for Inactive)
REMARK    1  A    between atoms: C_1  and  C_2
REMARK    2  A    between atoms: C_2  and  O_3
REMARK    3  A    between atoms: C_2  and  C_18
REMARK    4  A    between atoms: O_3  and  C_4
REMARK    5  A    between atoms: C_7  and  C_8
REMARK    6  A    between atoms: C_18  and  O_20
REMARK                            x       y       z     vdW  Elec       q    Type
REMARK                         _______ _______ _______ _____ _____    ______ ____
ROOT
ATOM      1  C   UNL     1       1.184   9.626  18.717  0.00  0.00    +0.000 A 
ATOM      2  C   UNL     1       1.094   8.904  19.910  0.00  0.00    +0.000 A 
ATOM      3  C   UNL     1       1.841   7.737  20.096  0.00  0.00    +0.000 A 
ATOM      4  C   UNL     1       2.675   7.267  19.077  0.00  0.00    +0.000 A 
ATOM      5  C   UNL     1       2.716   7.955  17.861  0.00  0.00    +0.000 A 
ATOM      6  C   UNL     1       1.969   9.127  17.678  0.00  0.00    +0.000 A 
ENDROOT
BRANCH   4   7
ATOM      7  C   UNL     1       3.514   6.090  19.308  0.00  0.00    +0.000 C 
ATOM      8  C   UNL     1       3.239   4.856  18.875  0.00  0.00    +0.000 C 
ATOM      9  N   UNL     1       3.992   3.747  19.167  0.00  0.00    +0.000 N 
ATOM     10  C   UNL     1       3.398   2.626  18.622  0.00  0.00    +0.000 C 
ATOM     11  S   UNL     1       3.949   1.078  18.771  0.00  0.00    +0.000 S 
ATOM     12  N   UNL     1       2.275   3.019  17.950  0.00  0.00    +0.000 N 
ATOM     13  C   UNL     1       2.088   4.374  18.036  0.00  0.00    +0.000 C 
ATOM     14  O   UNL     1       1.195   5.025  17.532  0.00  0.00    +0.000 OA
ATOM     15  H   UNL     1       4.833   3.731  19.729  0.00  0.00    +0.000 HD
ATOM     16  H   UNL     1       1.651   2.407  17.448  0.00  0.00    +0.000 HD
ENDBRANCH   4   7
BRANCH   1  17
ATOM     17  O   UNL     1       0.468  10.789  18.702  0.00  0.00    +0.000 OA
BRANCH  17  19
ATOM     18  C   UNL     1      -1.510  10.013  17.458  0.00  0.00    +0.000 C 
ATOM     19  C   UNL     1      -0.970  10.727  18.694  0.00  0.00    +0.000 C 
BRANCH  19  20
ATOM     20  C   UNL     1      -1.474  12.176  18.660  0.00  0.00    +0.000 C 
ATOM     21  O   UNL     1      -2.205  12.673  19.505  0.00  0.00    +0.000 OA
BRANCH  20  22
ATOM     22  O   UNL     1      -1.043  12.873  17.578  0.00  0.00    +0.000 OA
ATOM     23  H   UNL     1      -0.671  12.248  16.917  0.00  0.00    +0.000 HD
ENDBRANCH  20  22
ENDBRANCH  19  20
ENDBRANCH  17  19
ENDBRANCH   1  17
TORSDOF 5
ENDMDL
MODEL 9
REMARK VINA RESULT:      -6.2      2.298      3.378
REMARK  Name = 
REMARK  6 active torsions:
REMARK  status: ('A' for Active; 'I' for Inactive)
REMARK    1  A    between atoms: C_1  and  C_2
REMARK    2  A    between atoms: C_2  and  O_3
REMARK    3  A    between atoms: C_2  and  C_18
REMARK    4  A    between atoms: O_3  and  C_4
REMARK    5  A    between atoms: C_7  and  C_8
REMARK    6  A    between atoms: C_18  and  O_20
REMARK                            x       y       z     vdW  Elec       q    Type
REMARK                         _______ _______ _______ _____ _____    ______ ____
ROOT
ATOM      1  C   UNL     1       3.835   5.713  17.710  0.00  0.00    +0.000 A 
ATOM      2  C   UNL     1       4.332   6.977  17.381  0.00  0.00    +0.000 A 
ATOM      3  C   UNL     1       3.517   8.109  17.466  0.00  0.00    +0.000 A 
ATOM      4  C   UNL     1       2.183   7.985  17.864  0.00  0.00    +0.000 A 
ATOM      5  C   UNL     1       1.668   6.714  18.130  0.00  0.00    +0.000 A 
ATOM      6  C   UNL     1       2.489   5.580  18.048  0.00  0.00    +0.000 A 
ENDROOT
BRANCH   4   7
ATOM      7  C   UNL     1       1.358   9.183  18.028  0.00  0.00    +0.000 C 
ATOM      8  C   UNL     1       0.871   9.626  19.191  0.00  0.00    +0.000 C 
ATOM      9  N   UNL     1       0.032  10.703  19.320  0.00  0.00    +0.000 N 
ATOM     10  C   UNL     1      -0.336  10.849  20.643  0.00  0.00    +0.000 C 
ATOM     11  S   UNL     1      -1.369  11.993  21.233  0.00  0.00    +0.000 S 
ATOM     12  N   UNL     1       0.294   9.881  21.373  0.00  0.00    +0.000 N 
ATOM     13  C   UNL     1       1.067   9.078  20.577  0.00  0.00    +0.000 C 
ATOM     14  O   UNL     1       1.761   8.144  20.930  0.00  0.00    +0.000 OA
ATOM     15  H   UNL     1      -0.308  11.286  18.566  0.00  0.00    +0.000 HD
ATOM     16  H   UNL     1       0.213   9.757  22.370  0.00  0.00    +0.000 HD
ENDBRANCH   4   7
BRANCH   1  17
ATOM     17  O   UNL     1       4.760   4.710  17.664  0.00  0.00    +0.000 OA
BRANCH  17  19
ATOM     18  C   UNL     1       6.076   3.918  15.739  0.00  0.00    +0.000 C 
ATOM     19  C   UNL     1       5.966   4.901  16.902  0.00  0.00    +0.000 C 
BRANCH  19  20
ATOM     20  C   UNL     1       7.138   4.637  17.856  0.00  0.00    +0.000 C 
ATOM     21  O   UNL     1       7.133   4.905  19.048  0.00  0.00    +0.000 OA
BRANCH  20  22
ATOM     22  O   UNL     1       8.215   4.079  17.246  0.00  0.00    +0.000 OA
ATOM     23  H   UNL     1       8.753   3.599  17.913  0.00  0.00    +0.000 HD
ENDBRANCH  20  22
ENDBRANCH  19  20
ENDBRANCH  17  19
ENDBRANCH   1  17
TORSDOF 5
ENDMDL
