MODEL 1
REMARK VINA RESULT:      -9.9      0.000      0.000
REMARK  Name = 
REMARK  3 active torsions:
REMARK  status: ('A' for Active; 'I' for Inactive)
REMARK    1  A    between atoms: C_1  and  O_2
REMARK    2  A    between atoms: O_2  and  C_3
REMARK    3  A    between atoms: C_6  and  C_7
REMARK                            x       y       z     vdW  Elec       q    Type
REMARK                         _______ _______ _______ _____ _____    ______ ____
ROOT
ATOM      1  C   UNL     1       2.146   6.857  19.782  0.00  0.00    +0.000 A 
ATOM      2  C   UNL     1       2.827   6.594  18.611  0.00  0.00    +0.000 A 
ATOM      3  C   UNL     1       3.307   5.258  18.657  0.00  0.00    +0.000 A 
ATOM      4  C   UNL     1       2.776   4.678  19.797  0.00  0.00    +0.000 A 
ATOM      5  N   UNL     1       2.127   5.681  20.492  0.00  0.00    +0.000 N 
ATOM      6  C   UNL     1       2.838   3.332  20.306  0.00  0.00    +0.000 C 
ATOM      7  O   UNL     1       2.716   3.063  21.498  0.00  0.00    +0.000 OA
ATOM      8  N   UNL     1       2.976   2.325  19.389  0.00  0.00    +0.000 N 
ATOM      9  C   UNL     1       2.783   2.490  17.963  0.00  0.00    +0.000 C 
ATOM     10  C   UNL     1       3.937   3.236  17.293  0.00  0.00    +0.000 C 
ATOM     11  C   UNL     1       4.223   4.664  17.718  0.00  0.00    +0.000 C 
ATOM     12  C   UNL     1       5.313   5.325  17.274  0.00  0.00    +0.000 C 
ATOM     13  N   UNL     1       5.805   6.561  17.592  0.00  0.00    +0.000 N 
ATOM     14  C   UNL     1       6.987   6.736  16.973  0.00  0.00    +0.000 C 
ATOM     15  N   UNL     1       7.673   7.872  17.203  0.00  0.00    +0.000 N 
ATOM     16  N   UNL     1       7.347   5.757  16.196  0.00  0.00    +0.000 NA
ATOM     17  C   UNL     1       6.338   4.800  16.282  0.00  0.00    +0.000 C 
ATOM     18  O   UNL     1       6.279   3.745  15.670  0.00  0.00    +0.000 OA
ATOM     19  H   UNL     1       1.681   5.537  21.392  0.00  0.00    +0.000 HD
ATOM     20  H   UNL     1       2.926   1.397  19.790  0.00  0.00    +0.000 HD
ATOM     21  H   UNL     1       5.378   7.166  18.273  0.00  0.00    +0.000 HD
ATOM     22  H   UNL     1       7.631   8.229  18.148  0.00  0.00    +0.000 HD
ATOM     23  H   UNL     1       8.629   7.816  16.860  0.00  0.00    +0.000 HD
ENDROOT
BRANCH   1  27
ATOM     24  C   UNL     1       0.255  10.437  21.143  0.00  0.00    +0.000 A 
ATOM     25  C   UNL     1       0.511   9.389  22.023  0.00  0.00    +0.000 A 
ATOM     26  C   UNL     1       1.186   8.249  21.587  0.00  0.00    +0.000 A 
ATOM     27  C   UNL     1       1.596   8.129  20.251  0.00  0.00    +0.000 A 
ATOM     28  C   UNL     1       1.358   9.194  19.376  0.00  0.00    +0.000 A 
ATOM     29  C   UNL     1       0.688  10.343  19.819  0.00  0.00    +0.000 A 
BRANCH  24  31
ATOM     30  C   UNL     1      -1.061  11.227  22.940  0.00  0.00    +0.000 C 
ATOM     31  O   UNL     1      -0.471  11.468  21.670  0.00  0.00    +0.000 OA
ENDBRANCH  24  31
ENDBRANCH   1  27
TORSDOF 2
ENDMDL
MODEL 2
REMARK VINA RESULT:      -9.8      0.334      1.002
REMARK  Name = 
REMARK  3 active torsions:
REMARK  status: ('A' for Active; 'I' for Inactive)
REMARK    1  A    between atoms: C_1  and  O_2
REMARK    2  A    between atoms: O_2  and  C_3
REMARK    3  A    between atoms: C_6  and  C_7
REMARK                            x       y       z     vdW  Elec       q    Type
REMARK                         _______ _______ _______ _____ _____    ______ ____
ROOT
ATOM      1  C   UNL     1       2.134   6.786  19.784  0.00  0.00    +0.000 A 
ATOM      2  C   UNL     1       2.820   6.538  18.612  0.00  0.00    +0.000 A 
ATOM      3  C   UNL     1       3.321   5.211  18.654  0.00  0.00    +0.000 A 
ATOM      4  C   UNL     1       2.800   4.618  19.791  0.00  0.00    +0.000 A 
ATOM      5  N   UNL     1       2.134   5.607  20.490  0.00  0.00    +0.000 N 
ATOM      6  C   UNL     1       2.884   3.271  20.296  0.00  0.00    +0.000 C 
ATOM      7  O   UNL     1       2.766   2.997  21.487  0.00  0.00    +0.000 OA
ATOM      8  N   UNL     1       3.038   2.270  19.375  0.00  0.00    +0.000 N 
ATOM      9  C   UNL     1       2.842   2.437  17.950  0.00  0.00    +0.000 C 
ATOM     10  C   UNL     1       3.984   3.204  17.282  0.00  0.00    +0.000 C 
ATOM     11  C   UNL     1       4.246   4.635  17.712  0.00  0.00    +0.000 C 
ATOM     12  C   UNL     1       5.325   5.315  17.270  0.00  0.00    +0.000 C 
ATOM     13  N   UNL     1       5.797   6.558  17.593  0.00  0.00    +0.000 N 
ATOM     14  C   UNL     1       6.977   6.754  16.974  0.00  0.00    +0.000 C 
ATOM     15  N   UNL     1       7.644   7.900  17.207  0.00  0.00    +0.000 N 
ATOM     16  N   UNL     1       7.352   5.783  16.193  0.00  0.00    +0.000 NA
ATOM     17  C   UNL     1       6.359   4.810  16.276  0.00  0.00    +0.000 C 
ATOM     18  O   UNL     1       6.317   3.756  15.661  0.00  0.00    +0.000 OA
ATOM     19  H   UNL     1       1.691   5.453  21.390  0.00  0.00    +0.000 HD
ATOM     20  H   UNL     1       3.003   1.340  19.773  0.00  0.00    +0.000 HD
ATOM     21  H   UNL     1       5.361   7.153  18.276  0.00  0.00    +0.000 HD
ATOM     22  H   UNL     1       7.596   8.253  18.154  0.00  0.00    +0.000 HD
ATOM     23  H   UNL     1       8.600   7.861  16.865  0.00  0.00    +0.000 HD
ENDROOT
BRANCH   1  27
ATOM     24  C   UNL     1       0.760  10.588  21.162  0.00  0.00    +0.000 A 
ATOM     25  C   UNL     1       1.029  10.375  19.813  0.00  0.00    +0.000 A 
ATOM     26  C   UNL     1       1.415   9.114  19.360  0.00  0.00    +0.000 A 
ATOM     27  C   UNL     1       1.564   8.047  20.258  0.00  0.00    +0.000 A 
ATOM     28  C   UNL     1       1.270   8.259  21.610  0.00  0.00    +0.000 A 
ATOM     29  C   UNL     1       0.872   9.526  22.061  0.00  0.00    +0.000 A 
BRANCH  24  31
ATOM     30  C   UNL     1      -0.681  12.056  22.325  0.00  0.00    +0.000 C 
ATOM     31  O   UNL     1       0.457  11.879  21.493  0.00  0.00    +0.000 OA
ENDBRANCH  24  31
ENDBRANCH   1  27
TORSDOF 2
ENDMDL
MODEL 3
REMARK VINA RESULT:      -8.8      1.131      1.269
REMARK  Name = 
REMARK  3 active torsions:
REMARK  status: ('A' for Active; 'I' for Inactive)
REMARK    1  A    between atoms: C_1  and  O_2
REMARK    2  A    between atoms: O_2  and  C_3
REMARK    3  A    between atoms: C_6  and  C_7
REMARK                            x       y       z     vdW  Elec       q    Type
REMARK                         _______ _______ _______ _____ _____    ______ ____
ROOT
ATOM      1  C   UNL     1       1.932   7.762  19.216  0.00  0.00    +0.000 A 
ATOM      2  C   UNL     1       2.718   7.343  18.160  0.00  0.00    +0.000 A 
ATOM      3  C   UNL     1       3.080   5.988  18.377  0.00  0.00    +0.000 A 
ATOM      4  C   UNL     1       2.379   5.555  19.490  0.00  0.00    +0.000 A 
ATOM      5  N   UNL     1       1.739   6.662  20.016  0.00  0.00    +0.000 N 
ATOM      6  C   UNL     1       2.275   4.262  20.116  0.00  0.00    +0.000 C 
ATOM      7  O   UNL     1       1.998   4.115  21.303  0.00  0.00    +0.000 OA
ATOM      8  N   UNL     1       2.433   3.166  19.310  0.00  0.00    +0.000 N 
ATOM      9  C   UNL     1       2.415   3.210  17.862  0.00  0.00    +0.000 C 
ATOM     10  C   UNL     1       3.694   3.808  17.274  0.00  0.00    +0.000 C 
ATOM     11  C   UNL     1       4.044   5.245  17.607  0.00  0.00    +0.000 C 
ATOM     12  C   UNL     1       5.227   5.783  17.241  0.00  0.00    +0.000 C 
ATOM     13  N   UNL     1       5.778   7.006  17.510  0.00  0.00    +0.000 N 
ATOM     14  C   UNL     1       7.033   7.039  17.023  0.00  0.00    +0.000 C 
ATOM     15  N   UNL     1       7.778   8.140  17.235  0.00  0.00    +0.000 N 
ATOM     16  N   UNL     1       7.398   5.968  16.380  0.00  0.00    +0.000 NA
ATOM     17  C   UNL     1       6.311   5.097  16.426  0.00  0.00    +0.000 C 
ATOM     18  O   UNL     1       6.237   3.996  15.904  0.00  0.00    +0.000 OA
ATOM     19  H   UNL     1       1.185   6.635  20.865  0.00  0.00    +0.000 HD
ATOM     20  H   UNL     1       2.264   2.286  19.779  0.00  0.00    +0.000 HD
ATOM     21  H   UNL     1       5.328   7.700  18.081  0.00  0.00    +0.000 HD
ATOM     22  H   UNL     1       7.659   8.586  18.135  0.00  0.00    +0.000 HD
ATOM     23  H   UNL     1       8.758   7.985  17.015  0.00  0.00    +0.000 HD
ENDROOT
BRANCH   1  27
ATOM     24  C   UNL     1       0.197  11.572  20.060  0.00  0.00    +0.000 A 
ATOM     25  C   UNL     1       0.363  10.627  21.069  0.00  0.00    +0.000 A 
ATOM     26  C   UNL     1       0.989   9.410  20.800  0.00  0.00    +0.000 A 
ATOM     27  C   UNL     1       1.438   9.108  19.506  0.00  0.00    +0.000 A 
ATOM     28  C   UNL     1       1.290  10.070  18.501  0.00  0.00    +0.000 A 
ATOM     29  C   UNL     1       0.669  11.297  18.776  0.00  0.00    +0.000 A 
BRANCH  24  31
ATOM     30  C   UNL     1       0.231  13.916  20.354  0.00  0.00    +0.000 C 
ATOM     31  O   UNL     1      -0.489  12.695  20.429  0.00  0.00    +0.000 OA
ENDBRANCH  24  31
ENDBRANCH   1  27
TORSDOF 2
ENDMDL
MODEL 4
REMARK VINA RESULT:      -8.8      1.169      1.591
REMARK  Name = 
REMARK  3 active torsions:
REMARK  status: ('A' for Active; 'I' for Inactive)
REMARK    1  A    between atoms: C_1  and  O_2
REMARK    2  A    between atoms: O_2  and  C_3
REMARK    3  A    between atoms: C_6  and  C_7
REMARK                            x       y       z     vdW  Elec       q    Type
REMARK                         _______ _______ _______ _____ _____    ______ ____
ROOT
ATOM      1  C   UNL     1       1.993   7.811  19.184  0.00  0.00    +0.000 A 
ATOM      2  C   UNL     1       2.781   7.379  18.136  0.00  0.00    +0.000 A 
ATOM      3  C   UNL     1       3.141   6.026  18.369  0.00  0.00    +0.000 A 
ATOM      4  C   UNL     1       2.437   5.607  19.485  0.00  0.00    +0.000 A 
ATOM      5  N   UNL     1       1.795   6.719  19.995  0.00  0.00    +0.000 N 
ATOM      6  C   UNL     1       2.330   4.320  20.124  0.00  0.00    +0.000 C 
ATOM      7  O   UNL     1       2.049   4.188  21.312  0.00  0.00    +0.000 OA
ATOM      8  N   UNL     1       2.489   3.215  19.331  0.00  0.00    +0.000 N 
ATOM      9  C   UNL     1       2.477   3.243  17.884  0.00  0.00    +0.000 C 
ATOM     10  C   UNL     1       3.758   3.833  17.292  0.00  0.00    +0.000 C 
ATOM     11  C   UNL     1       4.108   5.274  17.611  0.00  0.00    +0.000 C 
ATOM     12  C   UNL     1       5.292   5.807  17.243  0.00  0.00    +0.000 C 
ATOM     13  N   UNL     1       5.844   7.033  17.500  0.00  0.00    +0.000 N 
ATOM     14  C   UNL     1       7.100   7.059  17.017  0.00  0.00    +0.000 C 
ATOM     15  N   UNL     1       7.845   8.162  17.220  0.00  0.00    +0.000 N 
ATOM     16  N   UNL     1       7.466   5.981  16.388  0.00  0.00    +0.000 NA
ATOM     17  C   UNL     1       6.379   5.111  16.439  0.00  0.00    +0.000 C 
ATOM     18  O   UNL     1       6.305   4.004  15.929  0.00  0.00    +0.000 OA
ATOM     19  H   UNL     1       1.239   6.703  20.843  0.00  0.00    +0.000 HD
ATOM     20  H   UNL     1       2.318   2.341  19.810  0.00  0.00    +0.000 HD
ATOM     21  H   UNL     1       5.392   7.734  18.062  0.00  0.00    +0.000 HD
ATOM     22  H   UNL     1       7.724   8.618  18.114  0.00  0.00    +0.000 HD
ATOM     23  H   UNL     1       8.827   8.004  17.004  0.00  0.00    +0.000 HD
ENDROOT
BRANCH   1  27
ATOM     24  C   UNL     1       0.849  11.839  20.022  0.00  0.00    +0.000 A 
ATOM     25  C   UNL     1       1.318  11.481  18.762  0.00  0.00    +0.000 A 
ATOM     26  C   UNL     1       1.629  10.152  18.475  0.00  0.00    +0.000 A 
ATOM     27  C   UNL     1       1.498   9.160  19.458  0.00  0.00    +0.000 A 
ATOM     28  C   UNL     1       1.003   9.520  20.716  0.00  0.00    +0.000 A 
ATOM     29  C   UNL     1       0.682  10.855  20.998  0.00  0.00    +0.000 A 
BRANCH  24  31
ATOM     30  C   UNL     1       0.324  13.586  21.525  0.00  0.00    +0.000 C 
ATOM     31  O   UNL     1       0.643  13.178  20.202  0.00  0.00    +0.000 OA
ENDBRANCH  24  31
ENDBRANCH   1  27
TORSDOF 2
ENDMDL
MODEL 5
REMARK VINA RESULT:      -8.5      1.988      4.535
REMARK  Name = 
REMARK  3 active torsions:
REMARK  status: ('A' for Active; 'I' for Inactive)
REMARK    1  A    between atoms: C_1  and  O_2
REMARK    2  A    between atoms: O_2  and  C_3
REMARK    3  A    between atoms: C_6  and  C_7
REMARK                            x       y       z     vdW  Elec       q    Type
REMARK                         _______ _______ _______ _____ _____    ______ ____
ROOT
ATOM      1  C   UNL     1       2.356   8.129  18.479  0.00  0.00    +0.000 A 
ATOM      2  C   UNL     1       2.699   7.073  19.300  0.00  0.00    +0.000 A 
ATOM      3  C   UNL     1       3.690   6.295  18.645  0.00  0.00    +0.000 A 
ATOM      4  C   UNL     1       4.046   6.979  17.495  0.00  0.00    +0.000 A 
ATOM      5  N   UNL     1       3.185   8.054  17.385  0.00  0.00    +0.000 N 
ATOM      6  C   UNL     1       5.056   6.723  16.500  0.00  0.00    +0.000 C 
ATOM      7  O   UNL     1       4.974   7.133  15.346  0.00  0.00    +0.000 OA
ATOM      8  N   UNL     1       6.174   6.045  16.908  0.00  0.00    +0.000 N 
ATOM      9  C   UNL     1       6.532   5.823  18.293  0.00  0.00    +0.000 C 
ATOM     10  C   UNL     1       5.662   4.760  18.965  0.00  0.00    +0.000 C 
ATOM     11  C   UNL     1       4.171   5.010  19.083  0.00  0.00    +0.000 C 
ATOM     12  C   UNL     1       3.331   4.053  19.530  0.00  0.00    +0.000 C 
ATOM     13  N   UNL     1       1.966   4.031  19.630  0.00  0.00    +0.000 N 
ATOM     14  C   UNL     1       1.574   2.806  20.029  0.00  0.00    +0.000 C 
ATOM     15  N   UNL     1       0.256   2.553  20.132  0.00  0.00    +0.000 N 
ATOM     16  N   UNL     1       2.545   1.976  20.277  0.00  0.00    +0.000 NA
ATOM     17  C   UNL     1       3.726   2.670  20.022  0.00  0.00    +0.000 C 
ATOM     18  O   UNL     1       4.864   2.253  20.173  0.00  0.00    +0.000 OA
ATOM     19  H   UNL     1       3.197   8.702  16.604  0.00  0.00    +0.000 HD
ATOM     20  H   UNL     1       6.888   5.969  16.194  0.00  0.00    +0.000 HD
ATOM     21  H   UNL     1       1.380   4.792  19.335  0.00  0.00    +0.000 HD
ATOM     22  H   UNL     1      -0.331   2.979  19.428  0.00  0.00    +0.000 HD
ATOM     23  H   UNL     1       0.066   1.559  20.234  0.00  0.00    +0.000 HD
ENDROOT
BRANCH   1  27
ATOM     24  C   UNL     1      -0.929  10.777  19.134  0.00  0.00    +0.000 A 
ATOM     25  C   UNL     1      -0.054  10.460  20.170  0.00  0.00    +0.000 A 
ATOM     26  C   UNL     1       1.053   9.646  19.933  0.00  0.00    +0.000 A 
ATOM     27  C   UNL     1       1.290   9.114  18.658  0.00  0.00    +0.000 A 
ATOM     28  C   UNL     1       0.422   9.455  17.615  0.00  0.00    +0.000 A 
ATOM     29  C   UNL     1      -0.685  10.282  17.853  0.00  0.00    +0.000 A 
BRANCH  24  31
ATOM     30  C   UNL     1      -3.070  11.595  18.559  0.00  0.00    +0.000 C 
ATOM     31  O   UNL     1      -2.012  11.526  19.504  0.00  0.00    +0.000 OA
ENDBRANCH  24  31
ENDBRANCH   1  27
TORSDOF 2
ENDMDL
MODEL 6
REMARK VINA RESULT:      -8.5      2.601      7.228
REMARK  Name = 
REMARK  3 active torsions:
REMARK  status: ('A' for Active; 'I' for Inactive)
REMARK    1  A    between atoms: C_1  and  O_2
REMARK    2  A    between atoms: O_2  and  C_3
REMARK    3  A    between atoms: C_6  and  C_7
REMARK                            x       y       z     vdW  Elec       q    Type
REMARK                         _______ _______ _______ _____ _____    ______ ____
ROOT
ATOM      1  C   UNL     1       4.227   4.434  17.027  0.00  0.00    +0.000 A 
ATOM      2  C   UNL     1       4.057   5.428  17.969  0.00  0.00    +0.000 A 
ATOM      3  C   UNL     1       2.932   5.104  18.771  0.00  0.00    +0.000 A 
ATOM      4  C   UNL     1       2.523   3.834  18.399  0.00  0.00    +0.000 A 
ATOM      5  N   UNL     1       3.283   3.474  17.302  0.00  0.00    +0.000 N 
ATOM      6  C   UNL     1       1.505   2.961  18.925  0.00  0.00    +0.000 C 
ATOM      7  O   UNL     1       0.962   2.089  18.253  0.00  0.00    +0.000 OA
ATOM      8  N   UNL     1       1.198   3.092  20.253  0.00  0.00    +0.000 N 
ATOM      9  C   UNL     1       2.002   3.829  21.206  0.00  0.00    +0.000 C 
ATOM     10  C   UNL     1       1.871   5.344  21.043  0.00  0.00    +0.000 C 
ATOM     11  C   UNL     1       2.312   5.974  19.737  0.00  0.00    +0.000 C 
ATOM     12  C   UNL     1       2.088   7.280  19.475  0.00  0.00    +0.000 C 
ATOM     13  N   UNL     1       2.315   8.022  18.348  0.00  0.00    +0.000 N 
ATOM     14  C   UNL     1       1.817   9.259  18.529  0.00  0.00    +0.000 C 
ATOM     15  N   UNL     1       1.883  10.136  17.510  0.00  0.00    +0.000 N 
ATOM     16  N   UNL     1       1.310   9.477  19.707  0.00  0.00    +0.000 NA
ATOM     17  C   UNL     1       1.451   8.287  20.419  0.00  0.00    +0.000 C 
ATOM     18  O   UNL     1       1.134   8.091  21.582  0.00  0.00    +0.000 OA
ATOM     19  H   UNL     1       3.159   2.601  16.800  0.00  0.00    +0.000 HD
ATOM     20  H   UNL     1       0.542   2.399  20.591  0.00  0.00    +0.000 HD
ATOM     21  H   UNL     1       2.694   7.635  17.501  0.00  0.00    +0.000 HD
ATOM     22  H   UNL     1       1.739   9.750  16.586  0.00  0.00    +0.000 HD
ATOM     23  H   UNL     1       1.304  10.955  17.673  0.00  0.00    +0.000 HD
ENDROOT
BRANCH   1  27
ATOM     24  C   UNL     1       6.867   4.614  13.675  0.00  0.00    +0.000 A 
ATOM     25  C   UNL     1       7.228   5.178  14.896  0.00  0.00    +0.000 A 
ATOM     26  C   UNL     1       6.389   5.060  16.003  0.00  0.00    +0.000 A 
ATOM     27  C   UNL     1       5.160   4.394  15.901  0.00  0.00    +0.000 A 
ATOM     28  C   UNL     1       4.812   3.807  14.679  0.00  0.00    +0.000 A 
ATOM     29  C   UNL     1       5.662   3.919  13.569  0.00  0.00    +0.000 A 
BRANCH  24  31
ATOM     30  C   UNL     1       8.635   5.940  12.837  0.00  0.00    +0.000 C 
ATOM     31  O   UNL     1       7.738   4.855  12.649  0.00  0.00    +0.000 OA
ENDBRANCH  24  31
ENDBRANCH   1  27
TORSDOF 2
ENDMDL
MODEL 7
REMARK VINA RESULT:      -8.4      1.036      1.082
REMARK  Name = 
REMARK  3 active torsions:
REMARK  status: ('A' for Active; 'I' for Inactive)
REMARK    1  A    between atoms: C_1  and  O_2
REMARK    2  A    between atoms: O_2  and  C_3
REMARK    3  A    between atoms: C_6  and  C_7
REMARK                            x       y       z     vdW  Elec       q    Type
REMARK                         _______ _______ _______ _____ _____    ______ ____
ROOT
ATOM      1  C   UNL     1       1.840   6.397  20.335  0.00  0.00    +0.000 A 
ATOM      2  C   UNL     1       2.408   6.312  19.079  0.00  0.00    +0.000 A 
ATOM      3  C   UNL     1       2.979   5.021  18.929  0.00  0.00    +0.000 A 
ATOM      4  C   UNL     1       2.615   4.285  20.044  0.00  0.00    +0.000 A 
ATOM      5  N   UNL     1       1.978   5.156  20.908  0.00  0.00    +0.000 N 
ATOM      6  C   UNL     1       2.823   2.903  20.392  0.00  0.00    +0.000 C 
ATOM      7  O   UNL     1       2.849   2.504  21.552  0.00  0.00    +0.000 OA
ATOM      8  N   UNL     1       2.929   2.010  19.359  0.00  0.00    +0.000 N 
ATOM      9  C   UNL     1       2.572   2.306  17.987  0.00  0.00    +0.000 C 
ATOM     10  C   UNL     1       3.594   3.207  17.292  0.00  0.00    +0.000 C 
ATOM     11  C   UNL     1       3.826   4.601  17.842  0.00  0.00    +0.000 C 
ATOM     12  C   UNL     1       4.815   5.388  17.367  0.00  0.00    +0.000 C 
ATOM     13  N   UNL     1       5.253   6.620  17.770  0.00  0.00    +0.000 N 
ATOM     14  C   UNL     1       6.347   6.951  17.059  0.00  0.00    +0.000 C 
ATOM     15  N   UNL     1       6.975   8.107  17.344  0.00  0.00    +0.000 N 
ATOM     16  N   UNL     1       6.687   6.089  16.146  0.00  0.00    +0.000 NA
ATOM     17  C   UNL     1       5.760   5.052  16.225  0.00  0.00    +0.000 C 
ATOM     18  O   UNL     1       5.707   4.064  15.509  0.00  0.00    +0.000 OA
ATOM     19  H   UNL     1       1.643   4.885  21.827  0.00  0.00    +0.000 HD
ATOM     20  H   UNL     1       2.986   1.045  19.657  0.00  0.00    +0.000 HD
ATOM     21  H   UNL     1       4.862   7.115  18.553  0.00  0.00    +0.000 HD
ATOM     22  H   UNL     1       7.011   8.360  18.322  0.00  0.00    +0.000 HD
ATOM     23  H   UNL     1       7.890   8.163  16.903  0.00  0.00    +0.000 HD
ENDROOT
BRANCH   1  27
ATOM     24  C   UNL     1       0.173   9.655  22.535  0.00  0.00    +0.000 A 
ATOM     25  C   UNL     1       1.550   9.454  22.497  0.00  0.00    +0.000 A 
ATOM     26  C   UNL     1       2.092   8.427  21.724  0.00  0.00    +0.000 A 
ATOM     27  C   UNL     1       1.259   7.566  20.995  0.00  0.00    +0.000 A 
ATOM     28  C   UNL     1      -0.122   7.787  21.018  0.00  0.00    +0.000 A 
ATOM     29  C   UNL     1      -0.664   8.826  21.787  0.00  0.00    +0.000 A 
BRANCH  24  31
ATOM     30  C   UNL     1      -1.329  11.438  22.921  0.00  0.00    +0.000 C 
ATOM     31  O   UNL     1      -0.241  10.648  23.379  0.00  0.00    +0.000 OA
ENDBRANCH  24  31
ENDBRANCH   1  27
TORSDOF 2
ENDMDL
MODEL 8
REMARK VINA RESULT:      -8.1      2.564      7.371
REMARK  Name = 
REMARK  3 active torsions:
REMARK  status: ('A' for Active; 'I' for Inactive)
REMARK    1  A    between atoms: C_1  and  O_2
REMARK    2  A    between atoms: O_2  and  C_3
REMARK    3  A    between atoms: C_6  and  C_7
REMARK                            x       y       z     vdW  Elec       q    Type
REMARK                         _______ _______ _______ _____ _____    ______ ____
ROOT
ATOM      1  C   UNL     1       4.166   4.771  17.027  0.00  0.00    +0.000 A 
ATOM      2  C   UNL     1       3.982   5.735  17.998  0.00  0.00    +0.000 A 
ATOM      3  C   UNL     1       2.879   5.355  18.808  0.00  0.00    +0.000 A 
ATOM      4  C   UNL     1       2.503   4.084  18.409  0.00  0.00    +0.000 A 
ATOM      5  N   UNL     1       3.256   3.775  17.291  0.00  0.00    +0.000 N 
ATOM      6  C   UNL     1       1.520   3.167  18.927  0.00  0.00    +0.000 C 
ATOM      7  O   UNL     1       0.993   2.297  18.240  0.00  0.00    +0.000 OA
ATOM      8  N   UNL     1       1.231   3.254  20.263  0.00  0.00    +0.000 N 
ATOM      9  C   UNL     1       2.027   3.990  21.222  0.00  0.00    +0.000 C 
ATOM     10  C   UNL     1       1.848   5.503  21.102  0.00  0.00    +0.000 C 
ATOM     11  C   UNL     1       2.250   6.181  19.806  0.00  0.00    +0.000 C 
ATOM     12  C   UNL     1       1.982   7.485  19.583  0.00  0.00    +0.000 C 
ATOM     13  N   UNL     1       2.169   8.263  18.472  0.00  0.00    +0.000 N 
ATOM     14  C   UNL     1       1.637   9.480  18.694  0.00  0.00    +0.000 C 
ATOM     15  N   UNL     1       1.661  10.384  17.697  0.00  0.00    +0.000 N 
ATOM     16  N   UNL     1       1.143   9.652  19.885  0.00  0.00    +0.000 NA
ATOM     17  C   UNL     1       1.331   8.448  20.562  0.00  0.00    +0.000 C 
ATOM     18  O   UNL     1       1.039   8.212  21.724  0.00  0.00    +0.000 OA
ATOM     19  H   UNL     1       3.150   2.912  16.768  0.00  0.00    +0.000 HD
ATOM     20  H   UNL     1       0.602   2.532  20.592  0.00  0.00    +0.000 HD
ATOM     21  H   UNL     1       2.546   7.910  17.609  0.00  0.00    +0.000 HD
ATOM     22  H   UNL     1       1.513  10.019  16.766  0.00  0.00    +0.000 HD
ATOM     23  H   UNL     1       1.060  11.181  17.891  0.00  0.00    +0.000 HD
ENDROOT
BRANCH   1  27
ATOM     24  C   UNL     1       6.895   4.517  13.752  0.00  0.00    +0.000 A 
ATOM     25  C   UNL     1       5.586   4.060  13.624  0.00  0.00    +0.000 A 
ATOM     26  C   UNL     1       4.682   4.204  14.676  0.00  0.00    +0.000 A 
ATOM     27  C   UNL     1       5.081   4.788  15.886  0.00  0.00    +0.000 A 
ATOM     28  C   UNL     1       6.390   5.269  16.002  0.00  0.00    +0.000 A 
ATOM     29  C   UNL     1       7.295   5.132  14.939  0.00  0.00    +0.000 A 
BRANCH  24  31
ATOM     30  C   UNL     1       7.115   3.513  11.624  0.00  0.00    +0.000 C 
ATOM     31  O   UNL     1       7.703   4.259  12.680  0.00  0.00    +0.000 OA
ENDBRANCH  24  31
ENDBRANCH   1  27
TORSDOF 2
ENDMDL
MODEL 9
REMARK VINA RESULT:      -8.1      2.201      4.717
REMARK  Name = 
REMARK  3 active torsions:
REMARK  status: ('A' for Active; 'I' for Inactive)
REMARK    1  A    between atoms: C_1  and  O_2
REMARK    2  A    between atoms: O_2  and  C_3
REMARK    3  A    between atoms: C_6  and  C_7
REMARK                            x       y       z     vdW  Elec       q    Type
REMARK                         _______ _______ _______ _____ _____    ______ ____
ROOT
ATOM      1  C   UNL     1       2.435   8.215  18.265  0.00  0.00    +0.000 A 
ATOM      2  C   UNL     1       2.740   7.183  19.131  0.00  0.00    +0.000 A 
ATOM      3  C   UNL     1       3.739   6.371  18.533  0.00  0.00    +0.000 A 
ATOM      4  C   UNL     1       4.138   7.011  17.372  0.00  0.00    +0.000 A 
ATOM      5  N   UNL     1       3.294   8.092  17.199  0.00  0.00    +0.000 N 
ATOM      6  C   UNL     1       5.173   6.709  16.416  0.00  0.00    +0.000 C 
ATOM      7  O   UNL     1       5.131   7.081  15.247  0.00  0.00    +0.000 OA
ATOM      8  N   UNL     1       6.270   6.032  16.880  0.00  0.00    +0.000 N 
ATOM      9  C   UNL     1       6.583   5.852  18.282  0.00  0.00    +0.000 C 
ATOM     10  C   UNL     1       5.680   4.823  18.963  0.00  0.00    +0.000 C 
ATOM     11  C   UNL     1       4.189   5.096  19.028  0.00  0.00    +0.000 C 
ATOM     12  C   UNL     1       3.324   4.165  19.482  0.00  0.00    +0.000 C 
ATOM     13  N   UNL     1       1.956   4.163  19.542  0.00  0.00    +0.000 N 
ATOM     14  C   UNL     1       1.537   2.957  19.969  0.00  0.00    +0.000 C 
ATOM     15  N   UNL     1       0.213   2.724  20.041  0.00  0.00    +0.000 N 
ATOM     16  N   UNL     1       2.489   2.124  20.274  0.00  0.00    +0.000 NA
ATOM     17  C   UNL     1       3.686   2.795  20.031  0.00  0.00    +0.000 C 
ATOM     18  O   UNL     1       4.813   2.369  20.230  0.00  0.00    +0.000 OA
ATOM     19  H   UNL     1       3.339   8.713  16.398  0.00  0.00    +0.000 HD
ATOM     20  H   UNL     1       7.003   5.922  16.191  0.00  0.00    +0.000 HD
ATOM     21  H   UNL     1       1.389   4.921  19.204  0.00  0.00    +0.000 HD
ATOM     22  H   UNL     1      -0.347   3.133  19.306  0.00  0.00    +0.000 HD
ATOM     23  H   UNL     1       0.006   1.737  20.171  0.00  0.00    +0.000 HD
ENDROOT
BRANCH   1  27
ATOM     24  C   UNL     1      -0.596  11.223  18.297  0.00  0.00    +0.000 A 
ATOM     25  C   UNL     1      -0.838   9.976  17.728  0.00  0.00    +0.000 A 
ATOM     26  C   UNL     1       0.134   8.976  17.778  0.00  0.00    +0.000 A 
ATOM     27  C   UNL     1       1.377   9.218  18.379  0.00  0.00    +0.000 A 
ATOM     28  C   UNL     1       1.608  10.465  18.971  0.00  0.00    +0.000 A 
ATOM     29  C   UNL     1       0.626  11.465  18.928  0.00  0.00    +0.000 A 
BRANCH  24  31
ATOM     30  C   UNL     1      -2.851  11.618  17.712  0.00  0.00    +0.000 C 
ATOM     31  O   UNL     1      -1.596  12.139  18.126  0.00  0.00    +0.000 OA
ENDBRANCH  24  31
ENDBRANCH   1  27
TORSDOF 2
ENDMDL
