MODEL 1
REMARK VINA RESULT:      -8.4      0.000      0.000
REMARK  Name = 
REMARK  11 active torsions:
REMARK  status: ('A' for Active; 'I' for Inactive)
REMARK    1  A    between atoms: C_1  and  C_2
REMARK    2  A    between atoms: C_2  and  C_3
REMARK    3  A    between atoms: C_3  and  C_4
REMARK    4  A    between atoms: C_4  and  C_5
REMARK    5  A    between atoms: C_5  and  C_6
REMARK    6  A    between atoms: C_6  and  C_7
REMARK    7  A    between atoms: C_7  and  C_8
REMARK    8  A    between atoms: C_8  and  C_9
REMARK    9  A    between atoms: N_11  and  C_12
REMARK   10  A    between atoms: P_17  and  O_19
REMARK   11  A    between atoms: C_22  and  O_23
REMARK                            x       y       z     vdW  Elec       q    Type
REMARK                         _______ _______ _______ _____ _____    ______ ____
ROOT
ATOM      1  C   UNL     1       6.028   4.609  15.259  0.00  0.00    +0.000 A 
ATOM      2  C   UNL     1       5.382   4.721  16.417  0.00  0.00    +0.000 A 
ATOM      3  N   UNL     1       5.758   5.612  17.399  0.00  0.00    +0.000 N 
ATOM      4  C   UNL     1       6.888   6.405  17.236  0.00  0.00    +0.000 A 
ATOM      5  O   UNL     1       7.210   7.224  18.108  0.00  0.00    +0.000 OA
ATOM      6  N   UNL     1       7.625   6.282  16.088  0.00  0.00    +0.000 NA
ATOM      7  C   UNL     1       7.245   5.468  15.144  0.00  0.00    +0.000 A 
ATOM      8  N   UNL     1       8.068   5.471  14.051  0.00  0.00    +0.000 N 
ATOM      9  H   UNL     1       8.785   6.185  14.153  0.00  0.00    +0.000 HD
ATOM     10  H   UNL     1       7.614   5.544  13.147  0.00  0.00    +0.000 HD
ENDROOT
BRANCH   3  11
ATOM     11  C   UNL     1       4.918   5.852  18.572  0.00  0.00    +0.000 C 
ATOM     12  O   UNL     1       5.038   4.727  19.492  0.00  0.00    +0.000 OA
ATOM     13  C   UNL     1       3.718   4.301  19.805  0.00  0.00    +0.000 C 
ATOM     14  C   UNL     1       3.608   2.816  20.131  0.00  0.00    +0.000 C 
ATOM     15  O   UNL     1       2.237   2.456  20.272  0.00  0.00    +0.000 OA
ATOM     16  P   UNL     1       1.319   2.773  18.985  0.00  0.00    +0.000 P 
ATOM     17  O   UNL     1       1.666   1.962  17.781  0.00  0.00    +0.000 OA
ATOM     18  O   UNL     1       1.522   4.372  18.822  0.00  0.00    +0.000 OA
ATOM     19  C   UNL     1       2.890   4.636  18.575  0.00  0.00    +0.000 C 
ATOM     20  C   UNL     1       3.397   6.024  18.228  0.00  0.00    +0.000 C 
BRANCH  16  21
ATOM     21  O   UNL     1      -0.156   2.541  19.541  0.00  0.00    +0.000 OA
ATOM     22  H   UNL     1      -0.492   1.680  19.238  0.00  0.00    +0.000 HD
ENDBRANCH  16  21
BRANCH  20  23
ATOM     23  O   UNL     1       2.763   7.061  18.977  0.00  0.00    +0.000 OA
ATOM     24  H   UNL     1       3.349   7.390  19.677  0.00  0.00    +0.000 HD
ENDBRANCH  20  23
ENDBRANCH   3  11
BRANCH   1  25
ATOM     25  C   UNL     1       5.543   3.668  14.191  0.00  0.00    +0.000 C 
BRANCH  25  26
ATOM     26  C   UNL     1       6.235   3.789  12.843  0.00  0.00    +0.000 C 
BRANCH  26  27
ATOM     27  C   UNL     1       5.602   2.945  11.745  0.00  0.00    +0.000 C 
BRANCH  27  28
ATOM     28  C   UNL     1       4.191   3.470  11.516  0.00  0.00    +0.000 C 
BRANCH  28  29
ATOM     29  C   UNL     1       3.335   2.457  10.781  0.00  0.00    +0.000 C 
BRANCH  29  30
ATOM     30  C   UNL     1       2.689   3.110   9.564  0.00  0.00    +0.000 C 
BRANCH  30  32
ATOM     31  C   UNL     1       2.049   5.325   8.586  0.00  0.00    +0.000 C 
ATOM     32  C   UNL     1       2.958   4.607   9.566  0.00  0.00    +0.000 C 
ENDBRANCH  30  32
ENDBRANCH  29  30
ENDBRANCH  28  29
ENDBRANCH  27  28
ENDBRANCH  26  27
ENDBRANCH  25  26
ENDBRANCH   1  25
TORSDOF 10
ENDMDL
MODEL 2
REMARK VINA RESULT:      -8.1      1.546      2.349
REMARK  Name = 
REMARK  11 active torsions:
REMARK  status: ('A' for Active; 'I' for Inactive)
REMARK    1  A    between atoms: C_1  and  C_2
REMARK    2  A    between atoms: C_2  and  C_3
REMARK    3  A    between atoms: C_3  and  C_4
REMARK    4  A    between atoms: C_4  and  C_5
REMARK    5  A    between atoms: C_5  and  C_6
REMARK    6  A    between atoms: C_6  and  C_7
REMARK    7  A    between atoms: C_7  and  C_8
REMARK    8  A    between atoms: C_8  and  C_9
REMARK    9  A    between atoms: N_11  and  C_12
REMARK   10  A    between atoms: P_17  and  O_19
REMARK   11  A    between atoms: C_22  and  O_23
REMARK                            x       y       z     vdW  Elec       q    Type
REMARK                         _______ _______ _______ _____ _____    ______ ____
ROOT
ATOM      1  C   UNL     1       6.336   4.347  15.492  0.00  0.00    +0.000 A 
ATOM      2  C   UNL     1       5.807   4.330  16.712  0.00  0.00    +0.000 A 
ATOM      3  N   UNL     1       6.121   5.266  17.675  0.00  0.00    +0.000 N 
ATOM      4  C   UNL     1       7.069   6.250  17.420  0.00  0.00    +0.000 A 
ATOM      5  O   UNL     1       7.331   7.105  18.276  0.00  0.00    +0.000 OA
ATOM      6  N   UNL     1       7.689   6.272  16.199  0.00  0.00    +0.000 NA
ATOM      7  C   UNL     1       7.362   5.411  15.276  0.00  0.00    +0.000 A 
ATOM      8  N   UNL     1       8.051   5.572  14.105  0.00  0.00    +0.000 N 
ATOM      9  H   UNL     1       8.636   6.402  14.153  0.00  0.00    +0.000 HD
ATOM     10  H   UNL     1       7.498   5.571  13.255  0.00  0.00    +0.000 HD
ENDROOT
BRANCH   3  11
ATOM     11  C   UNL     1       5.381   5.340  18.935  0.00  0.00    +0.000 C 
ATOM     12  O   UNL     1       5.369   4.027  19.568  0.00  0.00    +0.000 OA
ATOM     13  C   UNL     1       4.015   3.727  19.881  0.00  0.00    +0.000 C 
ATOM     14  C   UNL     1       3.694   2.236  19.875  0.00  0.00    +0.000 C 
ATOM     15  O   UNL     1       2.292   2.047  20.040  0.00  0.00    +0.000 OA
ATOM     16  P   UNL     1       1.376   2.778  18.933  0.00  0.00    +0.000 P 
ATOM     17  O   UNL     1       1.540   2.229  17.555  0.00  0.00    +0.000 OA
ATOM     18  O   UNL     1       1.814   4.328  19.115  0.00  0.00    +0.000 OA
ATOM     19  C   UNL     1       3.193   4.450  18.827  0.00  0.00    +0.000 C 
ATOM     20  C   UNL     1       3.891   5.796  18.759  0.00  0.00    +0.000 C 
BRANCH  16  21
ATOM     21  O   UNL     1      -0.090   2.631  19.537  0.00  0.00    +0.000 OA
ATOM     22  H   UNL     1      -0.255   3.339  20.184  0.00  0.00    +0.000 HD
ENDBRANCH  16  21
BRANCH  20  23
ATOM     23  O   UNL     1       3.457   6.709  19.769  0.00  0.00    +0.000 OA
ATOM     24  H   UNL     1       4.124   6.792  20.469  0.00  0.00    +0.000 HD
ENDBRANCH  20  23
ENDBRANCH   3  11
BRANCH   1  25
ATOM     25  C   UNL     1       5.915   3.345  14.453  0.00  0.00    +0.000 C 
BRANCH  25  26
ATOM     26  C   UNL     1       5.015   3.877  13.350  0.00  0.00    +0.000 C 
BRANCH  26  27
ATOM     27  C   UNL     1       5.240   3.218  11.996  0.00  0.00    +0.000 C 
BRANCH  27  28
ATOM     28  C   UNL     1       6.723   3.332  11.669  0.00  0.00    +0.000 C 
BRANCH  28  29
ATOM     29  C   UNL     1       7.295   2.001  11.221  0.00  0.00    +0.000 C 
BRANCH  29  30
ATOM     30  C   UNL     1       6.166   1.004  10.985  0.00  0.00    +0.000 C 
BRANCH  30  32
ATOM     31  C   UNL     1       5.431  -1.363  11.335  0.00  0.00    +0.000 C 
ATOM     32  C   UNL     1       6.578  -0.380  11.463  0.00  0.00    +0.000 C 
ENDBRANCH  30  32
ENDBRANCH  29  30
ENDBRANCH  28  29
ENDBRANCH  27  28
ENDBRANCH  26  27
ENDBRANCH  25  26
ENDBRANCH   1  25
TORSDOF 10
ENDMDL
MODEL 3
REMARK VINA RESULT:      -7.8      4.567      7.433
REMARK  Name = 
REMARK  11 active torsions:
REMARK  status: ('A' for Active; 'I' for Inactive)
REMARK    1  A    between atoms: C_1  and  C_2
REMARK    2  A    between atoms: C_2  and  C_3
REMARK    3  A    between atoms: C_3  and  C_4
REMARK    4  A    between atoms: C_4  and  C_5
REMARK    5  A    between atoms: C_5  and  C_6
REMARK    6  A    between atoms: C_6  and  C_7
REMARK    7  A    between atoms: C_7  and  C_8
REMARK    8  A    between atoms: C_8  and  C_9
REMARK    9  A    between atoms: N_11  and  C_12
REMARK   10  A    between atoms: P_17  and  O_19
REMARK   11  A    between atoms: C_22  and  O_23
REMARK                            x       y       z     vdW  Elec       q    Type
REMARK                         _______ _______ _______ _____ _____    ______ ____
ROOT
ATOM      1  C   UNL     1       2.296   7.638  19.184  0.00  0.00    +0.000 A 
ATOM      2  C   UNL     1       3.036   6.576  18.878  0.00  0.00    +0.000 A 
ATOM      3  N   UNL     1       3.001   5.407  19.609  0.00  0.00    +0.000 N 
ATOM      4  C   UNL     1       2.216   5.313  20.752  0.00  0.00    +0.000 A 
ATOM      5  O   UNL     1       2.165   4.253  21.392  0.00  0.00    +0.000 OA
ATOM      6  N   UNL     1       1.484   6.401  21.145  0.00  0.00    +0.000 NA
ATOM      7  C   UNL     1       1.487   7.492  20.431  0.00  0.00    +0.000 A 
ATOM      8  N   UNL     1       0.691   8.483  20.938  0.00  0.00    +0.000 N 
ATOM      9  H   UNL     1       0.174   8.141  21.743  0.00  0.00    +0.000 HD
ATOM     10  H   UNL     1       0.070   8.940  20.280  0.00  0.00    +0.000 HD
ENDROOT
BRANCH   3  11
ATOM     11  C   UNL     1       3.672   4.195  19.139  0.00  0.00    +0.000 C 
ATOM     12  O   UNL     1       5.116   4.382  19.209  0.00  0.00    +0.000 OA
ATOM     13  C   UNL     1       5.645   4.035  17.936  0.00  0.00    +0.000 C 
ATOM     14  C   UNL     1       6.921   4.785  17.570  0.00  0.00    +0.000 C 
ATOM     15  O   UNL     1       7.281   4.491  16.224  0.00  0.00    +0.000 OA
ATOM     16  P   UNL     1       6.147   4.835  15.130  0.00  0.00    +0.000 P 
ATOM     17  O   UNL     1       5.858   6.293  14.997  0.00  0.00    +0.000 OA
ATOM     18  O   UNL     1       4.906   3.929  15.647  0.00  0.00    +0.000 OA
ATOM     19  C   UNL     1       4.538   4.357  16.944  0.00  0.00    +0.000 C 
ATOM     20  C   UNL     1       3.314   3.815  17.659  0.00  0.00    +0.000 C 
BRANCH  16  21
ATOM     21  O   UNL     1       6.713   4.145  13.810  0.00  0.00    +0.000 OA
ATOM     22  H   UNL     1       7.685   4.133  13.834  0.00  0.00    +0.000 HD
ENDBRANCH  16  21
BRANCH  20  23
ATOM     23  O   UNL     1       3.121   2.414  17.466  0.00  0.00    +0.000 OA
ATOM     24  H   UNL     1       2.517   2.053  18.135  0.00  0.00    +0.000 HD
ENDBRANCH  20  23
ENDBRANCH   3  11
BRANCH   1  25
ATOM     25  C   UNL     1       2.319   8.870  18.321  0.00  0.00    +0.000 C 
BRANCH  25  26
ATOM     26  C   UNL     1       0.961   9.383  17.869  0.00  0.00    +0.000 C 
BRANCH  26  27
ATOM     27  C   UNL     1       0.579  10.731  18.466  0.00  0.00    +0.000 C 
BRANCH  27  28
ATOM     28  C   UNL     1      -0.942  10.796  18.516  0.00  0.00    +0.000 C 
BRANCH  28  29
ATOM     29  C   UNL     1      -1.567  10.065  17.343  0.00  0.00    +0.000 C 
BRANCH  29  30
ATOM     30  C   UNL     1      -2.575  10.971  16.645  0.00  0.00    +0.000 C 
BRANCH  30  32
ATOM     31  C   UNL     1      -3.014  10.081  14.347  0.00  0.00    +0.000 C 
ATOM     32  C   UNL     1      -3.513  10.145  15.778  0.00  0.00    +0.000 C 
ENDBRANCH  30  32
ENDBRANCH  29  30
ENDBRANCH  28  29
ENDBRANCH  27  28
ENDBRANCH  26  27
ENDBRANCH  25  26
ENDBRANCH   1  25
TORSDOF 10
ENDMDL
MODEL 4
REMARK VINA RESULT:      -7.5      4.453      7.956
REMARK  Name = 
REMARK  11 active torsions:
REMARK  status: ('A' for Active; 'I' for Inactive)
REMARK    1  A    between atoms: C_1  and  C_2
REMARK    2  A    between atoms: C_2  and  C_3
REMARK    3  A    between atoms: C_3  and  C_4
REMARK    4  A    between atoms: C_4  and  C_5
REMARK    5  A    between atoms: C_5  and  C_6
REMARK    6  A    between atoms: C_6  and  C_7
REMARK    7  A    between atoms: C_7  and  C_8
REMARK    8  A    between atoms: C_8  and  C_9
REMARK    9  A    between atoms: N_11  and  C_12
REMARK   10  A    between atoms: P_17  and  O_19
REMARK   11  A    between atoms: C_22  and  O_23
REMARK                            x       y       z     vdW  Elec       q    Type
REMARK                         _______ _______ _______ _____ _____    ______ ____
ROOT
ATOM      1  C   UNL     1       2.523   7.127  19.505  0.00  0.00    +0.000 A 
ATOM      2  C   UNL     1       3.430   6.201  19.206  0.00  0.00    +0.000 A 
ATOM      3  N   UNL     1       3.432   4.946  19.777  0.00  0.00    +0.000 N 
ATOM      4  C   UNL     1       2.499   4.614  20.752  0.00  0.00    +0.000 A 
ATOM      5  O   UNL     1       2.485   3.478  21.246  0.00  0.00    +0.000 OA
ATOM      6  N   UNL     1       1.581   5.554  21.140  0.00  0.00    +0.000 NA
ATOM      7  C   UNL     1       1.556   6.726  20.570  0.00  0.00    +0.000 A 
ATOM      8  N   UNL     1       0.572   7.548  21.048  0.00  0.00    +0.000 N 
ATOM      9  H   UNL     1      -0.016   7.046  21.708  0.00  0.00    +0.000 HD
ATOM     10  H   UNL     1       0.007   8.022  20.352  0.00  0.00    +0.000 HD
ENDROOT
BRANCH   3  11
ATOM     11  C   UNL     1       4.317   3.888  19.289  0.00  0.00    +0.000 C 
ATOM     12  O   UNL     1       5.685   4.386  19.238  0.00  0.00    +0.000 OA
ATOM     13  C   UNL     1       6.184   4.105  17.936  0.00  0.00    +0.000 C 
ATOM     14  C   UNL     1       7.235   5.096  17.449  0.00  0.00    +0.000 C 
ATOM     15  O   UNL     1       7.552   4.826  16.086  0.00  0.00    +0.000 OA
ATOM     16  P   UNL     1       6.295   4.868  15.078  0.00  0.00    +0.000 P 
ATOM     17  O   UNL     1       5.685   6.221  14.928  0.00  0.00    +0.000 OA
ATOM     18  O   UNL     1       5.323   3.740  15.718  0.00  0.00    +0.000 OA
ATOM     19  C   UNL     1       4.965   4.136  17.028  0.00  0.00    +0.000 C 
ATOM     20  C   UNL     1       3.944   3.374  17.854  0.00  0.00    +0.000 C 
BRANCH  16  21
ATOM     21  O   UNL     1       6.901   4.259  13.737  0.00  0.00    +0.000 OA
ATOM     22  H   UNL     1       7.231   4.975  13.168  0.00  0.00    +0.000 HD
ENDBRANCH  16  21
BRANCH  20  23
ATOM     23  O   UNL     1       4.049   1.957  17.717  0.00  0.00    +0.000 OA
ATOM     24  H   UNL     1       4.353   1.718  16.826  0.00  0.00    +0.000 HD
ENDBRANCH  20  23
ENDBRANCH   3  11
BRANCH   1  25
ATOM     25  C   UNL     1       2.521   8.460  18.809  0.00  0.00    +0.000 C 
BRANCH  25  26
ATOM     26  C   UNL     1       1.478   8.632  17.717  0.00  0.00    +0.000 C 
BRANCH  26  27
ATOM     27  C   UNL     1       0.435   9.699  18.020  0.00  0.00    +0.000 C 
BRANCH  27  28
ATOM     28  C   UNL     1       1.051  10.675  19.014  0.00  0.00    +0.000 C 
BRANCH  28  29
ATOM     29  C   UNL     1       0.051  11.090  20.075  0.00  0.00    +0.000 C 
BRANCH  29  30
ATOM     30  C   UNL     1      -0.747  12.296  19.592  0.00  0.00    +0.000 C 
BRANCH  30  32
ATOM     31  C   UNL     1      -2.757  11.576  18.284  0.00  0.00    +0.000 C 
ATOM     32  C   UNL     1      -2.237  11.996  19.645  0.00  0.00    +0.000 C 
ENDBRANCH  30  32
ENDBRANCH  29  30
ENDBRANCH  28  29
ENDBRANCH  27  28
ENDBRANCH  26  27
ENDBRANCH  25  26
ENDBRANCH   1  25
TORSDOF 10
ENDMDL
MODEL 5
REMARK VINA RESULT:      -7.4      4.479      7.959
REMARK  Name = 
REMARK  11 active torsions:
REMARK  status: ('A' for Active; 'I' for Inactive)
REMARK    1  A    between atoms: C_1  and  C_2
REMARK    2  A    between atoms: C_2  and  C_3
REMARK    3  A    between atoms: C_3  and  C_4
REMARK    4  A    between atoms: C_4  and  C_5
REMARK    5  A    between atoms: C_5  and  C_6
REMARK    6  A    between atoms: C_6  and  C_7
REMARK    7  A    between atoms: C_7  and  C_8
REMARK    8  A    between atoms: C_8  and  C_9
REMARK    9  A    between atoms: N_11  and  C_12
REMARK   10  A    between atoms: P_17  and  O_19
REMARK   11  A    between atoms: C_22  and  O_23
REMARK                            x       y       z     vdW  Elec       q    Type
REMARK                         _______ _______ _______ _____ _____    ______ ____
ROOT
ATOM      1  C   UNL     1       2.481   7.245  19.382  0.00  0.00    +0.000 A 
ATOM      2  C   UNL     1       3.351   6.282  19.090  0.00  0.00    +0.000 A 
ATOM      3  N   UNL     1       3.357   5.061  19.731  0.00  0.00    +0.000 N 
ATOM      4  C   UNL     1       2.470   4.807  20.772  0.00  0.00    +0.000 A 
ATOM      5  O   UNL     1       2.459   3.702  21.330  0.00  0.00    +0.000 OA
ATOM      6  N   UNL     1       1.596   5.790  21.153  0.00  0.00    +0.000 NA
ATOM      7  C   UNL     1       1.565   6.928  20.518  0.00  0.00    +0.000 A 
ATOM      8  N   UNL     1       0.625   7.800  20.999  0.00  0.00    +0.000 N 
ATOM      9  H   UNL     1       0.063   7.350  21.716  0.00  0.00    +0.000 HD
ATOM     10  H   UNL     1       0.034   8.247  20.307  0.00  0.00    +0.000 HD
ENDROOT
BRANCH   3  11
ATOM     11  C   UNL     1       4.191   3.957  19.259  0.00  0.00    +0.000 C 
ATOM     12  O   UNL     1       5.588   4.372  19.253  0.00  0.00    +0.000 OA
ATOM     13  C   UNL     1       6.107   4.072  17.964  0.00  0.00    +0.000 C 
ATOM     14  C   UNL     1       7.229   5.002  17.516  0.00  0.00    +0.000 C 
ATOM     15  O   UNL     1       7.570   4.725  16.161  0.00  0.00    +0.000 OA
ATOM     16  P   UNL     1       6.348   4.849  15.117  0.00  0.00    +0.000 P 
ATOM     17  O   UNL     1       5.824   6.238  14.962  0.00  0.00    +0.000 OA
ATOM     18  O   UNL     1       5.292   3.776  15.718  0.00  0.00    +0.000 OA
ATOM     19  C   UNL     1       4.920   4.183  17.021  0.00  0.00    +0.000 C 
ATOM     20  C   UNL     1       3.831   3.477  17.809  0.00  0.00    +0.000 C 
BRANCH  16  21
ATOM     21  O   UNL     1       6.956   4.216  13.788  0.00  0.00    +0.000 OA
ATOM     22  H   UNL     1       7.326   3.336  13.980  0.00  0.00    +0.000 HD
ENDBRANCH  16  21
BRANCH  20  23
ATOM     23  O   UNL     1       3.857   2.057  17.661  0.00  0.00    +0.000 OA
ATOM     24  H   UNL     1       4.735   1.703  17.875  0.00  0.00    +0.000 HD
ENDBRANCH  20  23
ENDBRANCH   3  11
BRANCH   1  25
ATOM     25  C   UNL     1       2.470   8.536  18.611  0.00  0.00    +0.000 C 
BRANCH  25  26
ATOM     26  C   UNL     1       1.237   8.785  17.759  0.00  0.00    +0.000 C 
BRANCH  26  27
ATOM     27  C   UNL     1       0.427  10.004  18.182  0.00  0.00    +0.000 C 
BRANCH  27  28
ATOM     28  C   UNL     1      -1.003   9.794  17.703  0.00  0.00    +0.000 C 
BRANCH  28  29
ATOM     29  C   UNL     1      -1.932  10.860  18.250  0.00  0.00    +0.000 C 
BRANCH  29  30
ATOM     30  C   UNL     1      -1.381  11.404  19.563  0.00  0.00    +0.000 C 
BRANCH  30  32
ATOM     31  C   UNL     1      -0.269  13.622  19.225  0.00  0.00    +0.000 C 
ATOM     32  C   UNL     1      -1.551  12.915  19.620  0.00  0.00    +0.000 C 
ENDBRANCH  30  32
ENDBRANCH  29  30
ENDBRANCH  28  29
ENDBRANCH  27  28
ENDBRANCH  26  27
ENDBRANCH  25  26
ENDBRANCH   1  25
TORSDOF 10
ENDMDL
MODEL 6
REMARK VINA RESULT:      -7.3      4.565      7.742
REMARK  Name = 
REMARK  11 active torsions:
REMARK  status: ('A' for Active; 'I' for Inactive)
REMARK    1  A    between atoms: C_1  and  C_2
REMARK    2  A    between atoms: C_2  and  C_3
REMARK    3  A    between atoms: C_3  and  C_4
REMARK    4  A    between atoms: C_4  and  C_5
REMARK    5  A    between atoms: C_5  and  C_6
REMARK    6  A    between atoms: C_6  and  C_7
REMARK    7  A    between atoms: C_7  and  C_8
REMARK    8  A    between atoms: C_8  and  C_9
REMARK    9  A    between atoms: N_11  and  C_12
REMARK   10  A    between atoms: P_17  and  O_19
REMARK   11  A    between atoms: C_22  and  O_23
REMARK                            x       y       z     vdW  Elec       q    Type
REMARK                         _______ _______ _______ _____ _____    ______ ____
ROOT
ATOM      1  C   UNL     1       2.339   6.998  19.367  0.00  0.00    +0.000 A 
ATOM      2  C   UNL     1       3.288   6.116  19.063  0.00  0.00    +0.000 A 
ATOM      3  N   UNL     1       3.430   4.915  19.725  0.00  0.00    +0.000 N 
ATOM      4  C   UNL     1       2.605   4.599  20.798  0.00  0.00    +0.000 A 
ATOM      5  O   UNL     1       2.717   3.509  21.376  0.00  0.00    +0.000 OA
ATOM      6  N   UNL     1       1.653   5.501  21.191  0.00  0.00    +0.000 NA
ATOM      7  C   UNL     1       1.493   6.619  20.538  0.00  0.00    +0.000 A 
ATOM      8  N   UNL     1       0.490   7.407  21.034  0.00  0.00    +0.000 N 
ATOM      9  H   UNL     1      -0.004   6.920  21.778  0.00  0.00    +0.000 HD
ATOM     10  H   UNL     1      -0.163   7.781  20.355  0.00  0.00    +0.000 HD
ENDROOT
BRANCH   3  11
ATOM     11  C   UNL     1       4.352   3.885  19.245  0.00  0.00    +0.000 C 
ATOM     12  O   UNL     1       5.703   4.429  19.195  0.00  0.00    +0.000 OA
ATOM     13  C   UNL     1       6.215   4.158  17.896  0.00  0.00    +0.000 C 
ATOM     14  C   UNL     1       7.233   5.182  17.407  0.00  0.00    +0.000 C 
ATOM     15  O   UNL     1       7.563   4.916  16.047  0.00  0.00    +0.000 OA
ATOM     16  P   UNL     1       6.309   4.910  15.035  0.00  0.00    +0.000 P 
ATOM     17  O   UNL     1       5.654   6.242  14.876  0.00  0.00    +0.000 OA
ATOM     18  O   UNL     1       5.373   3.753  15.678  0.00  0.00    +0.000 OA
ATOM     19  C   UNL     1       4.998   4.143  16.985  0.00  0.00    +0.000 C 
ATOM     20  C   UNL     1       4.001   3.352  17.811  0.00  0.00    +0.000 C 
BRANCH  16  21
ATOM     21  O   UNL     1       6.939   4.315  13.698  0.00  0.00    +0.000 OA
ATOM     22  H   UNL     1       7.907   4.405  13.720  0.00  0.00    +0.000 HD
ENDBRANCH  16  21
BRANCH  20  23
ATOM     23  O   UNL     1       4.155   1.938  17.682  0.00  0.00    +0.000 OA
ATOM     24  H   UNL     1       4.334   1.694  16.760  0.00  0.00    +0.000 HD
ENDBRANCH  20  23
ENDBRANCH   3  11
BRANCH   1  25
ATOM     25  C   UNL     1       2.180   8.266  18.574  0.00  0.00    +0.000 C 
BRANCH  25  26
ATOM     26  C   UNL     1       1.481   9.409  19.293  0.00  0.00    +0.000 C 
BRANCH  26  27
ATOM     27  C   UNL     1       0.794  10.398  18.360  0.00  0.00    +0.000 C 
BRANCH  27  28
ATOM     28  C   UNL     1      -0.707  10.285  18.596  0.00  0.00    +0.000 C 
BRANCH  28  29
ATOM     29  C   UNL     1      -1.427   9.798  17.354  0.00  0.00    +0.000 C 
BRANCH  29  30
ATOM     30  C   UNL     1      -2.935   9.891  17.559  0.00  0.00    +0.000 C 
BRANCH  30  32
ATOM     31  C   UNL     1      -4.679  11.645  17.174  0.00  0.00    +0.000 C 
ATOM     32  C   UNL     1      -3.343  11.333  17.819  0.00  0.00    +0.000 C 
ENDBRANCH  30  32
ENDBRANCH  29  30
ENDBRANCH  28  29
ENDBRANCH  27  28
ENDBRANCH  26  27
ENDBRANCH  25  26
ENDBRANCH   1  25
TORSDOF 10
ENDMDL
MODEL 7
REMARK VINA RESULT:      -7.3      4.646      8.485
REMARK  Name = 
REMARK  11 active torsions:
REMARK  status: ('A' for Active; 'I' for Inactive)
REMARK    1  A    between atoms: C_1  and  C_2
REMARK    2  A    between atoms: C_2  and  C_3
REMARK    3  A    between atoms: C_3  and  C_4
REMARK    4  A    between atoms: C_4  and  C_5
REMARK    5  A    between atoms: C_5  and  C_6
REMARK    6  A    between atoms: C_6  and  C_7
REMARK    7  A    between atoms: C_7  and  C_8
REMARK    8  A    between atoms: C_8  and  C_9
REMARK    9  A    between atoms: N_11  and  C_12
REMARK   10  A    between atoms: P_17  and  O_19
REMARK   11  A    between atoms: C_22  and  O_23
REMARK                            x       y       z     vdW  Elec       q    Type
REMARK                         _______ _______ _______ _____ _____    ______ ____
ROOT
ATOM      1  C   UNL     1       2.362   7.412  19.316  0.00  0.00    +0.000 A 
ATOM      2  C   UNL     1       3.157   6.395  18.994  0.00  0.00    +0.000 A 
ATOM      3  N   UNL     1       3.159   5.202  19.687  0.00  0.00    +0.000 N 
ATOM      4  C   UNL     1       2.355   5.036  20.808  0.00  0.00    +0.000 A 
ATOM      5  O   UNL     1       2.338   3.956  21.414  0.00  0.00    +0.000 OA
ATOM      6  N   UNL     1       1.565   6.077  21.218  0.00  0.00    +0.000 NA
ATOM      7  C   UNL     1       1.534   7.190  20.538  0.00  0.00    +0.000 A 
ATOM      8  N   UNL     1       0.683   8.127  21.057  0.00  0.00    +0.000 N 
ATOM      9  H   UNL     1       0.164   7.737  21.839  0.00  0.00    +0.000 HD
ATOM     10  H   UNL     1       0.056   8.577  20.399  0.00  0.00    +0.000 HD
ENDROOT
BRANCH   3  11
ATOM     11  C   UNL     1       3.896   4.038  19.195  0.00  0.00    +0.000 C 
ATOM     12  O   UNL     1       5.326   4.315  19.239  0.00  0.00    +0.000 OA
ATOM     13  C   UNL     1       5.849   4.009  17.952  0.00  0.00    +0.000 C 
ATOM     14  C   UNL     1       7.068   4.839  17.567  0.00  0.00    +0.000 C 
ATOM     15  O   UNL     1       7.418   4.576  16.212  0.00  0.00    +0.000 OA
ATOM     16  P   UNL     1       6.244   4.854  15.143  0.00  0.00    +0.000 P 
ATOM     17  O   UNL     1       5.862   6.292  15.026  0.00  0.00    +0.000 OA
ATOM     18  O   UNL     1       5.073   3.870  15.678  0.00  0.00    +0.000 OA
ATOM     19  C   UNL     1       4.705   4.266  16.985  0.00  0.00    +0.000 C 
ATOM     20  C   UNL     1       3.532   3.645  17.721  0.00  0.00    +0.000 C 
BRANCH  16  21
ATOM     21  O   UNL     1       6.825   4.209  13.807  0.00  0.00    +0.000 OA
ATOM     22  H   UNL     1       6.944   3.251  13.927  0.00  0.00    +0.000 HD
ENDBRANCH  16  21
BRANCH  20  23
ATOM     23  O   UNL     1       3.423   2.235  17.522  0.00  0.00    +0.000 OA
ATOM     24  H   UNL     1       4.197   1.893  17.046  0.00  0.00    +0.000 HD
ENDBRANCH  20  23
ENDBRANCH   3  11
BRANCH   1  25
ATOM     25  C   UNL     1       2.347   8.671  18.492  0.00  0.00    +0.000 C 
BRANCH  25  26
ATOM     26  C   UNL     1       0.978   9.139  18.029  0.00  0.00    +0.000 C 
BRANCH  26  27
ATOM     27  C   UNL     1       0.669  10.589  18.377  0.00  0.00    +0.000 C 
BRANCH  27  28
ATOM     28  C   UNL     1      -0.734  10.632  18.968  0.00  0.00    +0.000 C 
BRANCH  28  29
ATOM     29  C   UNL     1      -0.905  11.812  19.904  0.00  0.00    +0.000 C 
BRANCH  29  30
ATOM     30  C   UNL     1      -0.653  11.374  21.342  0.00  0.00    +0.000 C 
BRANCH  30  32
ATOM     31  C   UNL     1      -2.278  11.906  23.171  0.00  0.00    +0.000 C 
ATOM     32  C   UNL     1      -1.148  12.438  22.310  0.00  0.00    +0.000 C 
ENDBRANCH  30  32
ENDBRANCH  29  30
ENDBRANCH  28  29
ENDBRANCH  27  28
ENDBRANCH  26  27
ENDBRANCH  25  26
ENDBRANCH   1  25
TORSDOF 10
ENDMDL
MODEL 8
REMARK VINA RESULT:      -7.2      3.699      6.703
REMARK  Name = 
REMARK  11 active torsions:
REMARK  status: ('A' for Active; 'I' for Inactive)
REMARK    1  A    between atoms: C_1  and  C_2
REMARK    2  A    between atoms: C_2  and  C_3
REMARK    3  A    between atoms: C_3  and  C_4
REMARK    4  A    between atoms: C_4  and  C_5
REMARK    5  A    between atoms: C_5  and  C_6
REMARK    6  A    between atoms: C_6  and  C_7
REMARK    7  A    between atoms: C_7  and  C_8
REMARK    8  A    between atoms: C_8  and  C_9
REMARK    9  A    between atoms: N_11  and  C_12
REMARK   10  A    between atoms: P_17  and  O_19
REMARK   11  A    between atoms: C_22  and  O_23
REMARK                            x       y       z     vdW  Elec       q    Type
REMARK                         _______ _______ _______ _____ _____    ______ ____
ROOT
ATOM      1  C   UNL     1       4.618   6.604  17.185  0.00  0.00    +0.000 A 
ATOM      2  C   UNL     1       3.864   5.508  17.229  0.00  0.00    +0.000 A 
ATOM      3  N   UNL     1       4.321   4.272  16.826  0.00  0.00    +0.000 N 
ATOM      4  C   UNL     1       5.597   4.130  16.292  0.00  0.00    +0.000 A 
ATOM      5  O   UNL     1       6.015   3.015  15.954  0.00  0.00    +0.000 OA
ATOM      6  N   UNL     1       6.390   5.240  16.167  0.00  0.00    +0.000 NA
ATOM      7  C   UNL     1       5.971   6.402  16.586  0.00  0.00    +0.000 A 
ATOM      8  N   UNL     1       6.881   7.409  16.415  0.00  0.00    +0.000 N 
ATOM      9  H   UNL     1       7.759   7.034  16.066  0.00  0.00    +0.000 HD
ATOM     10  H   UNL     1       7.041   8.010  17.216  0.00  0.00    +0.000 HD
ENDROOT
BRANCH   3  11
ATOM     11  C   UNL     1       3.543   3.056  17.067  0.00  0.00    +0.000 C 
ATOM     12  O   UNL     1       2.145   3.410  17.277  0.00  0.00    +0.000 OA
ATOM     13  C   UNL     1       1.732   2.783  18.485  0.00  0.00    +0.000 C 
ATOM     14  C   UNL     1       0.635   3.535  19.230  0.00  0.00    +0.000 C 
ATOM     15  O   UNL     1       0.406   2.920  20.494  0.00  0.00    +0.000 OA
ATOM     16  P   UNL     1       1.704   2.823  21.445  0.00  0.00    +0.000 P 
ATOM     17  O   UNL     1       2.217   4.147  21.903  0.00  0.00    +0.000 OA
ATOM     18  O   UNL     1       2.725   1.968  20.521  0.00  0.00    +0.000 OA
ATOM     19  C   UNL     1       2.988   2.697  19.337  0.00  0.00    +0.000 C 
ATOM     20  C   UNL     1       4.022   2.246  18.322  0.00  0.00    +0.000 C 
BRANCH  16  21
ATOM     21  O   UNL     1       1.211   1.860  22.614  0.00  0.00    +0.000 OA
ATOM     22  H   UNL     1       0.385   2.201  22.997  0.00  0.00    +0.000 HD
ENDBRANCH  16  21
BRANCH  20  23
ATOM     23  O   UNL     1       4.030   0.833  18.112  0.00  0.00    +0.000 OA
ATOM     24  H   UNL     1       3.767   0.363  18.919  0.00  0.00    +0.000 HD
ENDBRANCH  20  23
ENDBRANCH   3  11
BRANCH   1  25
ATOM     25  C   UNL     1       4.098   7.920  17.696  0.00  0.00    +0.000 C 
BRANCH  25  26
ATOM     26  C   UNL     1       2.693   7.894  18.275  0.00  0.00    +0.000 C 
BRANCH  26  27
ATOM     27  C   UNL     1       1.779   8.983  17.730  0.00  0.00    +0.000 C 
BRANCH  27  28
ATOM     28  C   UNL     1       1.167   9.708  18.922  0.00  0.00    +0.000 C 
BRANCH  28  29
ATOM     29  C   UNL     1       1.195   8.845  20.168  0.00  0.00    +0.000 C 
BRANCH  29  30
ATOM     30  C   UNL     1      -0.020   9.151  21.038  0.00  0.00    +0.000 C 
BRANCH  30  32
ATOM     31  C   UNL     1      -0.706  10.084  23.258  0.00  0.00    +0.000 C 
ATOM     32  C   UNL     1       0.415   9.437  22.467  0.00  0.00    +0.000 C 
ENDBRANCH  30  32
ENDBRANCH  29  30
ENDBRANCH  28  29
ENDBRANCH  27  28
ENDBRANCH  26  27
ENDBRANCH  25  26
ENDBRANCH   1  25
TORSDOF 10
ENDMDL
MODEL 9
REMARK VINA RESULT:      -7.2      4.964      7.864
REMARK  Name = 
REMARK  11 active torsions:
REMARK  status: ('A' for Active; 'I' for Inactive)
REMARK    1  A    between atoms: C_1  and  C_2
REMARK    2  A    between atoms: C_2  and  C_3
REMARK    3  A    between atoms: C_3  and  C_4
REMARK    4  A    between atoms: C_4  and  C_5
REMARK    5  A    between atoms: C_5  and  C_6
REMARK    6  A    between atoms: C_6  and  C_7
REMARK    7  A    between atoms: C_7  and  C_8
REMARK    8  A    between atoms: C_8  and  C_9
REMARK    9  A    between atoms: N_11  and  C_12
REMARK   10  A    between atoms: P_17  and  O_19
REMARK   11  A    between atoms: C_22  and  O_23
REMARK                            x       y       z     vdW  Elec       q    Type
REMARK                         _______ _______ _______ _____ _____    ______ ____
ROOT
ATOM      1  C   UNL     1       2.028   8.023  19.009  0.00  0.00    +0.000 A 
ATOM      2  C   UNL     1       2.617   6.882  18.660  0.00  0.00    +0.000 A 
ATOM      3  N   UNL     1       2.604   5.760  19.460  0.00  0.00    +0.000 N 
ATOM      4  C   UNL     1       2.012   5.796  20.717  0.00  0.00    +0.000 A 
ATOM      5  O   UNL     1       1.978   4.780  21.424  0.00  0.00    +0.000 OA
ATOM      6  N   UNL     1       1.446   6.966  21.150  0.00  0.00    +0.000 NA
ATOM      7  C   UNL     1       1.424   8.015  20.375  0.00  0.00    +0.000 A 
ATOM      8  N   UNL     1       0.807   9.100  20.936  0.00  0.00    +0.000 N 
ATOM      9  H   UNL     1       0.401   8.848  21.834  0.00  0.00    +0.000 HD
ATOM     10  H   UNL     1       0.127   9.579  20.356  0.00  0.00    +0.000 HD
ENDROOT
BRANCH   3  11
ATOM     11  C   UNL     1       3.087   4.469  18.969  0.00  0.00    +0.000 C 
ATOM     12  O   UNL     1       4.521   4.365  19.207  0.00  0.00    +0.000 OA
ATOM     13  C   UNL     1       5.123   3.995  17.973  0.00  0.00    +0.000 C 
ATOM     14  C   UNL     1       6.551   4.500  17.805  0.00  0.00    +0.000 C 
ATOM     15  O   UNL     1       7.007   4.219  16.485  0.00  0.00    +0.000 OA
ATOM     16  P   UNL     1       6.097   4.840  15.308  0.00  0.00    +0.000 P 
ATOM     17  O   UNL     1       6.105   6.331  15.261  0.00  0.00    +0.000 OA
ATOM     18  O   UNL     1       4.655   4.167  15.618  0.00  0.00    +0.000 OA
ATOM     19  C   UNL     1       4.223   4.584  16.899  0.00  0.00    +0.000 C 
ATOM     20  C   UNL     1       2.842   4.252  17.435  0.00  0.00    +0.000 C 
BRANCH  16  21
ATOM     21  O   UNL     1       6.675   4.130  14.005  0.00  0.00    +0.000 OA
ATOM     22  H   UNL     1       7.647   4.113  14.041  0.00  0.00    +0.000 HD
ENDBRANCH  16  21
BRANCH  20  23
ATOM     23  O   UNL     1       2.413   2.929  17.113  0.00  0.00    +0.000 OA
ATOM     24  H   UNL     1       2.586   2.321  17.849  0.00  0.00    +0.000 HD
ENDBRANCH  20  23
ENDBRANCH   3  11
BRANCH   1  25
ATOM     25  C   UNL     1       2.012   9.202  18.076  0.00  0.00    +0.000 C 
BRANCH  25  26
ATOM     26  C   UNL     1       0.776  10.083  18.148  0.00  0.00    +0.000 C 
BRANCH  26  27
ATOM     27  C   UNL     1      -0.471   9.451  17.544  0.00  0.00    +0.000 C 
BRANCH  27  28
ATOM     28  C   UNL     1      -1.679  10.186  18.110  0.00  0.00    +0.000 C 
BRANCH  28  29
ATOM     29  C   UNL     1      -2.945   9.835  17.353  0.00  0.00    +0.000 C 
BRANCH  29  30
ATOM     30  C   UNL     1      -3.642  11.110  16.889  0.00  0.00    +0.000 C 
BRANCH  30  32
ATOM     31  C   UNL     1      -5.802  11.024  18.152  0.00  0.00    +0.000 C 
ATOM     32  C   UNL     1      -4.454  11.709  18.027  0.00  0.00    +0.000 C 
ENDBRANCH  30  32
ENDBRANCH  29  30
ENDBRANCH  28  29
ENDBRANCH  27  28
ENDBRANCH  26  27
ENDBRANCH  25  26
ENDBRANCH   1  25
TORSDOF 10
ENDMDL
