MODEL 1
REMARK VINA RESULT:      -7.4      0.000      0.000
REMARK  Name = 
REMARK  1 active torsions:
REMARK  status: ('A' for Active; 'I' for Inactive)
REMARK    1  A    between atoms: N_16  and  C_17
REMARK                            x       y       z     vdW  Elec       q    Type
REMARK                         _______ _______ _______ _____ _____    ______ ____
ROOT
ATOM      1  C   UNL     1       2.061   9.320  17.901  0.00  0.00    +0.000 C 
ATOM      2  C   UNL     1       2.734   8.160  17.825  0.00  0.00    +0.000 C 
ATOM      3  C   UNL     1       2.296   7.034  18.601  0.00  0.00    +0.000 C 
ATOM      4  C   UNL     1       2.987   5.888  18.644  0.00  0.00    +0.000 C 
ATOM      5  C   UNL     1       2.487   4.735  19.414  0.00  0.00    +0.000 A 
ATOM      6  C   UNL     1       1.557   4.779  20.460  0.00  0.00    +0.000 A 
ATOM      7  C   UNL     1       1.053   3.593  21.021  0.00  0.00    +0.000 A 
ATOM      8  C   UNL     1       1.436   2.343  20.525  0.00  0.00    +0.000 A 
ATOM      9  C   UNL     1       2.365   2.306  19.508  0.00  0.00    +0.000 A 
ATOM     10  C   UNL     1       2.924   3.478  19.037  0.00  0.00    +0.000 A 
ATOM     11  C   UNL     1       4.052   3.182  18.119  0.00  0.00    +0.000 C 
ATOM     12  C   UNL     1       3.757   1.708  17.776  0.00  0.00    +0.000 C 
ATOM     13  N   UNL     1       2.793   1.173  18.776  0.00  0.00    +0.000 N 
ATOM     14  C   UNL     1       4.143   4.283  17.059  0.00  0.00    +0.000 C 
ATOM     15  C   UNL     1       4.255   5.652  17.835  0.00  0.00    +0.000 C 
ATOM     16  N   UNL     1       4.707   6.737  16.937  0.00  0.00    +0.000 NA
ATOM     17  C   UNL     1       6.132   7.016  17.182  0.00  0.00    +0.000 C 
ATOM     18  C   UNL     1       3.972   8.013  16.979  0.00  0.00    +0.000 C 
ATOM     19  H   UNL     1       3.126   0.430  19.384  0.00  0.00    +0.000 HD
ENDROOT
TORSDOF 0
ENDMDL
MODEL 2
REMARK VINA RESULT:      -7.0      2.782      5.625
REMARK  Name = 
REMARK  1 active torsions:
REMARK  status: ('A' for Active; 'I' for Inactive)
REMARK    1  A    between atoms: N_16  and  C_17
REMARK                            x       y       z     vdW  Elec       q    Type
REMARK                         _______ _______ _______ _____ _____    ______ ____
ROOT
ATOM      1  C   UNL     1       0.674   2.259  18.273  0.00  0.00    +0.000 C 
ATOM      2  C   UNL     1       1.919   2.671  18.562  0.00  0.00    +0.000 C 
ATOM      3  C   UNL     1       2.781   3.115  17.504  0.00  0.00    +0.000 C 
ATOM      4  C   UNL     1       4.063   3.437  17.720  0.00  0.00    +0.000 C 
ATOM      5  C   UNL     1       4.912   3.934  16.621  0.00  0.00    +0.000 A 
ATOM      6  C   UNL     1       4.682   3.751  15.252  0.00  0.00    +0.000 A 
ATOM      7  C   UNL     1       5.489   4.395  14.298  0.00  0.00    +0.000 A 
ATOM      8  C   UNL     1       6.512   5.264  14.690  0.00  0.00    +0.000 A 
ATOM      9  C   UNL     1       6.744   5.426  16.039  0.00  0.00    +0.000 A 
ATOM     10  C   UNL     1       6.006   4.707  16.959  0.00  0.00    +0.000 A 
ATOM     11  C   UNL     1       6.580   4.867  18.320  0.00  0.00    +0.000 C 
ATOM     12  C   UNL     1       7.445   6.127  18.116  0.00  0.00    +0.000 C 
ATOM     13  N   UNL     1       7.628   6.342  16.655  0.00  0.00    +0.000 N 
ATOM     14  C   UNL     1       5.454   4.786  19.354  0.00  0.00    +0.000 C 
ATOM     15  C   UNL     1       4.702   3.423  19.102  0.00  0.00    +0.000 C 
ATOM     16  N   UNL     1       3.840   3.069  20.252  0.00  0.00    +0.000 NA
ATOM     17  C   UNL     1       4.496   2.023  21.054  0.00  0.00    +0.000 C 
ATOM     18  C   UNL     1       2.460   2.639  19.968  0.00  0.00    +0.000 C 
ATOM     19  H   UNL     1       8.575   6.260  16.293  0.00  0.00    +0.000 HD
ENDROOT
TORSDOF 0
ENDMDL
MODEL 3
REMARK VINA RESULT:      -6.6      2.594      5.056
REMARK  Name = 
REMARK  1 active torsions:
REMARK  status: ('A' for Active; 'I' for Inactive)
REMARK    1  A    between atoms: N_16  and  C_17
REMARK                            x       y       z     vdW  Elec       q    Type
REMARK                         _______ _______ _______ _____ _____    ______ ____
ROOT
ATOM      1  C   UNL     1       1.962   2.860  21.581  0.00  0.00    +0.000 C 
ATOM      2  C   UNL     1       2.319   3.182  20.327  0.00  0.00    +0.000 C 
ATOM      3  C   UNL     1       3.600   3.784  20.087  0.00  0.00    +0.000 C 
ATOM      4  C   UNL     1       3.965   4.220  18.874  0.00  0.00    +0.000 C 
ATOM      5  C   UNL     1       5.306   4.792  18.651  0.00  0.00    +0.000 A 
ATOM      6  C   UNL     1       6.152   5.322  19.632  0.00  0.00    +0.000 A 
ATOM      7  C   UNL     1       7.465   5.709  19.312  0.00  0.00    +0.000 A 
ATOM      8  C   UNL     1       7.971   5.536  18.020  0.00  0.00    +0.000 A 
ATOM      9  C   UNL     1       7.128   5.030  17.055  0.00  0.00    +0.000 A 
ATOM     10  C   UNL     1       5.811   4.751  17.365  0.00  0.00    +0.000 A 
ATOM     11  C   UNL     1       5.044   4.441  16.132  0.00  0.00    +0.000 C 
ATOM     12  C   UNL     1       6.194   4.131  15.154  0.00  0.00    +0.000 C 
ATOM     13  N   UNL     1       7.461   4.655  15.732  0.00  0.00    +0.000 N 
ATOM     14  C   UNL     1       3.938   3.436  16.464  0.00  0.00    +0.000 C 
ATOM     15  C   UNL     1       3.091   4.065  17.638  0.00  0.00    +0.000 C 
ATOM     16  N   UNL     1       1.798   3.363  17.796  0.00  0.00    +0.000 NA
ATOM     17  C   UNL     1       0.722   4.177  17.208  0.00  0.00    +0.000 C 
ATOM     18  C   UNL     1       1.392   2.972  19.158  0.00  0.00    +0.000 C 
ATOM     19  H   UNL     1       7.921   5.409  15.228  0.00  0.00    +0.000 HD
ENDROOT
TORSDOF 0
ENDMDL
MODEL 4
REMARK VINA RESULT:      -6.4      2.594      3.521
REMARK  Name = 
REMARK  1 active torsions:
REMARK  status: ('A' for Active; 'I' for Inactive)
REMARK    1  A    between atoms: N_16  and  C_17
REMARK                            x       y       z     vdW  Elec       q    Type
REMARK                         _______ _______ _______ _____ _____    ______ ____
ROOT
ATOM      1  C   UNL     1       6.454   4.440  14.581  0.00  0.00    +0.000 C 
ATOM      2  C   UNL     1       6.174   4.369  15.892  0.00  0.00    +0.000 C 
ATOM      3  C   UNL     1       4.816   4.180  16.317  0.00  0.00    +0.000 C 
ATOM      4  C   UNL     1       4.465   4.207  17.609  0.00  0.00    +0.000 C 
ATOM      5  C   UNL     1       3.069   3.963  18.017  0.00  0.00    +0.000 A 
ATOM      6  C   UNL     1       1.936   4.093  17.205  0.00  0.00    +0.000 A 
ATOM      7  C   UNL     1       0.671   3.695  17.671  0.00  0.00    +0.000 A 
ATOM      8  C   UNL     1       0.519   3.124  18.938  0.00  0.00    +0.000 A 
ATOM      9  C   UNL     1       1.634   3.016  19.739  0.00  0.00    +0.000 A 
ATOM     10  C   UNL     1       2.850   3.505  19.302  0.00  0.00    +0.000 A 
ATOM     11  C   UNL     1       3.841   3.490  20.408  0.00  0.00    +0.000 C 
ATOM     12  C   UNL     1       3.163   2.506  21.382  0.00  0.00    +0.000 C 
ATOM     13  N   UNL     1       1.735   2.361  20.989  0.00  0.00    +0.000 N 
ATOM     14  C   UNL     1       5.240   3.259  19.829  0.00  0.00    +0.000 C 
ATOM     15  C   UNL     1       5.470   4.377  18.740  0.00  0.00    +0.000 C 
ATOM     16  N   UNL     1       6.901   4.478  18.376  0.00  0.00    +0.000 NA
ATOM     17  C   UNL     1       7.494   5.653  19.035  0.00  0.00    +0.000 C 
ATOM     18  C   UNL     1       7.242   4.530  16.943  0.00  0.00    +0.000 C 
ATOM     19  H   UNL     1       1.039   2.694  21.651  0.00  0.00    +0.000 HD
ENDROOT
TORSDOF 0
ENDMDL
MODEL 5
REMARK VINA RESULT:      -6.1      1.758      2.216
REMARK  Name = 
REMARK  1 active torsions:
REMARK  status: ('A' for Active; 'I' for Inactive)
REMARK    1  A    between atoms: N_16  and  C_17
REMARK                            x       y       z     vdW  Elec       q    Type
REMARK                         _______ _______ _______ _____ _____    ______ ____
ROOT
ATOM      1  C   UNL     1       0.695   9.140  21.456  0.00  0.00    +0.000 C 
ATOM      2  C   UNL     1       1.217   8.314  20.535  0.00  0.00    +0.000 C 
ATOM      3  C   UNL     1       1.466   6.941  20.874  0.00  0.00    +0.000 C 
ATOM      4  C   UNL     1       2.080   6.101  20.032  0.00  0.00    +0.000 C 
ATOM      5  C   UNL     1       2.280   4.685  20.392  0.00  0.00    +0.000 A 
ATOM      6  C   UNL     1       2.269   4.151  21.686  0.00  0.00    +0.000 A 
ATOM      7  C   UNL     1       2.331   2.762  21.889  0.00  0.00    +0.000 A 
ATOM      8  C   UNL     1       2.364   1.878  20.806  0.00  0.00    +0.000 A 
ATOM      9  C   UNL     1       2.394   2.410  19.535  0.00  0.00    +0.000 A 
ATOM     10  C   UNL     1       2.434   3.779  19.359  0.00  0.00    +0.000 A 
ATOM     11  C   UNL     1       2.692   4.111  17.935  0.00  0.00    +0.000 C 
ATOM     12  C   UNL     1       2.332   2.771  17.263  0.00  0.00    +0.000 C 
ATOM     13  N   UNL     1       2.299   1.712  18.308  0.00  0.00    +0.000 N 
ATOM     14  C   UNL     1       1.998   5.431  17.589  0.00  0.00    +0.000 C 
ATOM     15  C   UNL     1       2.513   6.500  18.628  0.00  0.00    +0.000 C 
ATOM     16  N   UNL     1       2.197   7.874  18.178  0.00  0.00    +0.000 NA
ATOM     17  C   UNL     1       3.410   8.503  17.633  0.00  0.00    +0.000 C 
ATOM     18  C   UNL     1       1.597   8.796  19.159  0.00  0.00    +0.000 C 
ATOM     19  H   UNL     1       2.993   0.972  18.237  0.00  0.00    +0.000 HD
ENDROOT
TORSDOF 0
ENDMDL
MODEL 6
REMARK VINA RESULT:      -6.1      2.421      4.620
REMARK  Name = 
REMARK  1 active torsions:
REMARK  status: ('A' for Active; 'I' for Inactive)
REMARK    1  A    between atoms: N_16  and  C_17
REMARK                            x       y       z     vdW  Elec       q    Type
REMARK                         _______ _______ _______ _____ _____    ______ ____
ROOT
ATOM      1  C   UNL     1       1.434   9.124  17.726  0.00  0.00    +0.000 C 
ATOM      2  C   UNL     1       2.215   8.112  18.140  0.00  0.00    +0.000 C 
ATOM      3  C   UNL     1       3.154   7.523  17.228  0.00  0.00    +0.000 C 
ATOM      4  C   UNL     1       3.881   6.446  17.553  0.00  0.00    +0.000 C 
ATOM      5  C   UNL     1       4.871   5.892  16.610  0.00  0.00    +0.000 A 
ATOM      6  C   UNL     1       4.897   6.095  15.225  0.00  0.00    +0.000 A 
ATOM      7  C   UNL     1       5.975   5.628  14.453  0.00  0.00    +0.000 A 
ATOM      8  C   UNL     1       7.064   4.988  15.052  0.00  0.00    +0.000 A 
ATOM      9  C   UNL     1       7.024   4.776  16.413  0.00  0.00    +0.000 A 
ATOM     10  C   UNL     1       5.911   5.152  17.140  0.00  0.00    +0.000 A 
ATOM     11  C   UNL     1       5.994   4.623  18.524  0.00  0.00    +0.000 C 
ATOM     12  C   UNL     1       7.499   4.301  18.614  0.00  0.00    +0.000 C 
ATOM     13  N   UNL     1       8.059   4.273  17.235  0.00  0.00    +0.000 N 
ATOM     14  C   UNL     1       5.290   5.592  19.478  0.00  0.00    +0.000 C 
ATOM     15  C   UNL     1       3.826   5.790  18.925  0.00  0.00    +0.000 C 
ATOM     16  N   UNL     1       2.951   6.408  19.946  0.00  0.00    +0.000 NA
ATOM     17  C   UNL     1       2.087   5.376  20.541  0.00  0.00    +0.000 C 
ATOM     18  C   UNL     1       2.103   7.538  19.529  0.00  0.00    +0.000 C 
ATOM     19  H   UNL     1       8.412   3.381  16.900  0.00  0.00    +0.000 HD
ENDROOT
TORSDOF 0
ENDMDL
MODEL 7
REMARK VINA RESULT:      -6.0      1.020      5.043
REMARK  Name = 
REMARK  1 active torsions:
REMARK  status: ('A' for Active; 'I' for Inactive)
REMARK    1  A    between atoms: N_16  and  C_17
REMARK                            x       y       z     vdW  Elec       q    Type
REMARK                         _______ _______ _______ _____ _____    ______ ____
ROOT
ATOM      1  C   UNL     1       1.404   2.917  21.982  0.00  0.00    +0.000 C 
ATOM      2  C   UNL     1       2.258   3.068  20.957  0.00  0.00    +0.000 C 
ATOM      3  C   UNL     1       2.293   4.311  20.241  0.00  0.00    +0.000 C 
ATOM      4  C   UNL     1       3.048   4.481  19.148  0.00  0.00    +0.000 C 
ATOM      5  C   UNL     1       3.098   5.785  18.461  0.00  0.00    +0.000 A 
ATOM      6  C   UNL     1       2.144   6.806  18.555  0.00  0.00    +0.000 A 
ATOM      7  C   UNL     1       2.375   8.059  17.962  0.00  0.00    +0.000 A 
ATOM      8  C   UNL     1       3.577   8.332  17.302  0.00  0.00    +0.000 A 
ATOM      9  C   UNL     1       4.505   7.318  17.198  0.00  0.00    +0.000 A 
ATOM     10  C   UNL     1       4.217   6.063  17.699  0.00  0.00    +0.000 A 
ATOM     11  C   UNL     1       5.251   5.087  17.273  0.00  0.00    +0.000 C 
ATOM     12  C   UNL     1       6.390   6.042  16.863  0.00  0.00    +0.000 C 
ATOM     13  N   UNL     1       5.823   7.408  16.694  0.00  0.00    +0.000 N 
ATOM     14  C   UNL     1       5.410   4.015  18.356  0.00  0.00    +0.000 C 
ATOM     15  C   UNL     1       3.977   3.405  18.604  0.00  0.00    +0.000 C 
ATOM     16  N   UNL     1       4.064   2.132  19.353  0.00  0.00    +0.000 NA
ATOM     17  C   UNL     1       3.873   1.003  18.427  0.00  0.00    +0.000 C 
ATOM     18  C   UNL     1       3.157   1.948  20.500  0.00  0.00    +0.000 C 
ATOM     19  H   UNL     1       5.847   7.803  15.758  0.00  0.00    +0.000 HD
ENDROOT
TORSDOF 0
ENDMDL
MODEL 8
REMARK VINA RESULT:      -6.0     10.715     12.445
REMARK  Name = 
REMARK  1 active torsions:
REMARK  status: ('A' for Active; 'I' for Inactive)
REMARK    1  A    between atoms: N_16  and  C_17
REMARK                            x       y       z     vdW  Elec       q    Type
REMARK                         _______ _______ _______ _____ _____    ______ ____
ROOT
ATOM      1  C   UNL     1       8.187  11.818  24.034  0.00  0.00    +0.000 C 
ATOM      2  C   UNL     1       8.606  12.812  23.235  0.00  0.00    +0.000 C 
ATOM      3  C   UNL     1       9.350  12.501  22.047  0.00  0.00    +0.000 C 
ATOM      4  C   UNL     1       9.881  13.454  21.271  0.00  0.00    +0.000 C 
ATOM      5  C   UNL     1      10.600  13.104  20.032  0.00  0.00    +0.000 A 
ATOM      6  C   UNL     1      11.167  11.860  19.729  0.00  0.00    +0.000 A 
ATOM      7  C   UNL     1      11.704  11.609  18.454  0.00  0.00    +0.000 A 
ATOM      8  C   UNL     1      11.649  12.578  17.448  0.00  0.00    +0.000 A 
ATOM      9  C   UNL     1      11.106  13.805  17.757  0.00  0.00    +0.000 A 
ATOM     10  C   UNL     1      10.676  14.067  19.044  0.00  0.00    +0.000 A 
ATOM     11  C   UNL     1      10.350  15.507  19.198  0.00  0.00    +0.000 C 
ATOM     12  C   UNL     1      10.210  15.924  17.720  0.00  0.00    +0.000 C 
ATOM     13  N   UNL     1      10.834  14.874  16.871  0.00  0.00    +0.000 N 
ATOM     14  C   UNL     1       9.219  15.663  20.219  0.00  0.00    +0.000 C 
ATOM     15  C   UNL     1       9.697  14.941  21.538  0.00  0.00    +0.000 C 
ATOM     16  N   UNL     1       8.857  15.332  22.692  0.00  0.00    +0.000 NA
ATOM     17  C   UNL     1       9.583  16.310  23.519  0.00  0.00    +0.000 C 
ATOM     18  C   UNL     1       8.359  14.260  23.572  0.00  0.00    +0.000 C 
ATOM     19  H   UNL     1      11.656  15.142  16.336  0.00  0.00    +0.000 HD
ENDROOT
TORSDOF 0
ENDMDL
MODEL 9
REMARK VINA RESULT:      -6.0      1.704      3.431
REMARK  Name = 
REMARK  1 active torsions:
REMARK  status: ('A' for Active; 'I' for Inactive)
REMARK    1  A    between atoms: N_16  and  C_17
REMARK                            x       y       z     vdW  Elec       q    Type
REMARK                         _______ _______ _______ _____ _____    ______ ____
ROOT
ATOM      1  C   UNL     1       6.306   3.893  14.684  0.00  0.00    +0.000 C 
ATOM      2  C   UNL     1       5.657   4.458  15.715  0.00  0.00    +0.000 C 
ATOM      3  C   UNL     1       4.609   3.732  16.376  0.00  0.00    +0.000 C 
ATOM      4  C   UNL     1       3.860   4.284  17.339  0.00  0.00    +0.000 C 
ATOM      5  C   UNL     1       2.822   3.498  18.031  0.00  0.00    +0.000 A 
ATOM      6  C   UNL     1       2.214   2.331  17.554  0.00  0.00    +0.000 A 
ATOM      7  C   UNL     1       1.338   1.594  18.370  0.00  0.00    +0.000 A 
ATOM      8  C   UNL     1       1.084   1.984  19.688  0.00  0.00    +0.000 A 
ATOM      9  C   UNL     1       1.672   3.143  20.146  0.00  0.00    +0.000 A 
ATOM     10  C   UNL     1       2.449   3.908  19.297  0.00  0.00    +0.000 A 
ATOM     11  C   UNL     1       2.780   5.209  19.930  0.00  0.00    +0.000 C 
ATOM     12  C   UNL     1       2.482   4.888  21.408  0.00  0.00    +0.000 C 
ATOM     13  N   UNL     1       1.659   3.650  21.467  0.00  0.00    +0.000 N 
ATOM     14  C   UNL     1       4.153   5.675  19.438  0.00  0.00    +0.000 C 
ATOM     15  C   UNL     1       4.087   5.696  17.862  0.00  0.00    +0.000 C 
ATOM     16  N   UNL     1       5.217   6.464  17.293  0.00  0.00    +0.000 NA
ATOM     17  C   UNL     1       4.742   7.791  16.866  0.00  0.00    +0.000 C 
ATOM     18  C   UNL     1       5.965   5.859  16.177  0.00  0.00    +0.000 C 
ATOM     19  H   UNL     1       0.714   3.742  21.829  0.00  0.00    +0.000 HD
ENDROOT
TORSDOF 0
ENDMDL
