MODEL 1
REMARK VINA RESULT:      -8.0      0.000      0.000
REMARK  Name = 
REMARK  10 active torsions:
REMARK  status: ('A' for Active; 'I' for Inactive)
REMARK    1  A    between atoms: C_1  and  C_2
REMARK    2  A    between atoms: C_2  and  C_3
REMARK    3  A    between atoms: C_3  and  N_4
REMARK    4  A    between atoms: C_5  and  S_6
REMARK    5  A    between atoms: S_6  and  C_7
REMARK    6  A    between atoms: C_7  and  C_8
REMARK    7  A    between atoms: N_10  and  C_11
REMARK    8  A    between atoms: C_13  and  C_14
REMARK    9  A    between atoms: C_14  and  O_16
REMARK   10  A    between atoms: C_19  and  C_20
REMARK                            x       y       z     vdW  Elec       q    Type
REMARK                         _______ _______ _______ _____ _____    ______ ____
ROOT
ATOM      1  S   UNL     1       1.211  10.676  18.599  0.00  0.00    +0.000 S 
ENDROOT
BRANCH   1   3
ATOM      2  N   UNL     1      -1.369  11.471  18.745  0.00  0.00    +0.000 N 
ATOM      3  C   UNL     1      -0.206  11.240  19.493  0.00  0.00    +0.000 A 
ATOM      4  N   UNL     1      -0.096  11.405  20.781  0.00  0.00    +0.000 NA
ATOM      5  C   UNL     1      -1.231  11.812  21.405  0.00  0.00    +0.000 A 
ATOM      6  S   UNL     1      -1.329  12.058  23.116  0.00  0.00    +0.000 S 
ATOM      7  C   UNL     1      -2.951  12.468  22.997  0.00  0.00    +0.000 A 
ATOM      8  C   UNL     1      -3.436  12.424  21.722  0.00  0.00    +0.000 A 
ATOM      9  C   UNL     1      -2.439  12.075  20.793  0.00  0.00    +0.000 A 
ATOM     10  C   UNL     1      -2.532  11.946  19.364  0.00  0.00    +0.000 A 
ATOM     11  O   UNL     1      -3.566  12.235  18.768  0.00  0.00    +0.000 OA
ATOM     12  C   UNL     1      -4.881  12.751  21.670  0.00  0.00    +0.000 C 
ATOM     13  C   UNL     1      -5.121  13.380  23.076  0.00  0.00    +0.000 C 
ATOM     14  C   UNL     1      -3.973  12.858  24.004  0.00  0.00    +0.000 C 
BRANCH   2  15
ATOM     15  C   UNL     1      -1.496  11.256  17.299  0.00  0.00    +0.000 C 
BRANCH  15  17
ATOM     16  C   UNL     1      -3.175   9.808  15.982  0.00  0.00    +0.000 C 
ATOM     17  C   UNL     1      -1.977   9.847  16.922  0.00  0.00    +0.000 C 
ENDBRANCH  15  17
ENDBRANCH   2  15
ENDBRANCH   1   3
BRANCH   1  18
ATOM     18  C   UNL     1       1.448   9.001  19.256  0.00  0.00    +0.000 C 
BRANCH  18  19
ATOM     19  C   UNL     1       2.277   8.105  18.334  0.00  0.00    +0.000 C 
ATOM     20  O   UNL     1       2.562   8.502  17.201  0.00  0.00    +0.000 OA
ATOM     21  N   UNL     1       2.695   6.892  18.869  0.00  0.00    +0.000 N 
ATOM     22  H   UNL     1       2.203   6.594  19.705  0.00  0.00    +0.000 HD
BRANCH  21  23
ATOM     23  C   UNL     1       3.490   5.925  18.200  0.00  0.00    +0.000 A 
ATOM     24  C   UNL     1       4.861   6.139  18.007  0.00  0.00    +0.000 A 
ATOM     25  C   UNL     1       5.625   5.284  17.205  0.00  0.00    +0.000 A 
ATOM     26  C   UNL     1       5.035   4.145  16.660  0.00  0.00    +0.000 A 
ATOM     27  C   UNL     1       3.696   3.862  16.928  0.00  0.00    +0.000 A 
ATOM     28  C   UNL     1       2.912   4.737  17.706  0.00  0.00    +0.000 A 
ATOM     29  C   UNL     1       1.476   4.364  17.961  0.00  0.00    +0.000 C 
BRANCH  25  30
ATOM     30  C   UNL     1       7.061   5.548  16.931  0.00  0.00    +0.000 C 
ATOM     31  O   UNL     1       7.467   6.635  16.560  0.00  0.00    +0.000 OA
BRANCH  30  32
ATOM     32  O   UNL     1       7.875   4.501  17.177  0.00  0.00    +0.000 OA
ATOM     33  H   UNL     1       8.126   3.960  16.403  0.00  0.00    +0.000 HD
ENDBRANCH  30  32
ENDBRANCH  25  30
ENDBRANCH  21  23
ENDBRANCH  18  19
ENDBRANCH   1  18
TORSDOF 8
ENDMDL
MODEL 2
REMARK VINA RESULT:      -7.8      1.828      3.226
REMARK  Name = 
REMARK  10 active torsions:
REMARK  status: ('A' for Active; 'I' for Inactive)
REMARK    1  A    between atoms: C_1  and  C_2
REMARK    2  A    between atoms: C_2  and  C_3
REMARK    3  A    between atoms: C_3  and  N_4
REMARK    4  A    between atoms: C_5  and  S_6
REMARK    5  A    between atoms: S_6  and  C_7
REMARK    6  A    between atoms: C_7  and  C_8
REMARK    7  A    between atoms: N_10  and  C_11
REMARK    8  A    between atoms: C_13  and  C_14
REMARK    9  A    between atoms: C_14  and  O_16
REMARK   10  A    between atoms: C_19  and  C_20
REMARK                            x       y       z     vdW  Elec       q    Type
REMARK                         _______ _______ _______ _____ _____    ______ ____
ROOT
ATOM      1  S   UNL     1       1.358  10.575  18.560  0.00  0.00    +0.000 S 
ENDROOT
BRANCH   1   3
ATOM      2  N   UNL     1      -0.765  11.551  19.920  0.00  0.00    +0.000 N 
ATOM      3  C   UNL     1      -0.351  11.005  18.697  0.00  0.00    +0.000 A 
ATOM      4  N   UNL     1      -1.124  10.796  17.669  0.00  0.00    +0.000 NA
ATOM      5  C   UNL     1      -2.417  11.176  17.836  0.00  0.00    +0.000 A 
ATOM      6  S   UNL     1      -3.611  11.030  16.591  0.00  0.00    +0.000 S 
ATOM      7  C   UNL     1      -4.777  11.716  17.583  0.00  0.00    +0.000 A 
ATOM      8  C   UNL     1      -4.310  12.062  18.819  0.00  0.00    +0.000 A 
ATOM      9  C   UNL     1      -2.955  11.725  18.982  0.00  0.00    +0.000 A 
ATOM     10  C   UNL     1      -2.107  11.895  20.131  0.00  0.00    +0.000 A 
ATOM     11  O   UNL     1      -2.556  12.314  21.193  0.00  0.00    +0.000 OA
ATOM     12  C   UNL     1      -5.361  12.702  19.645  0.00  0.00    +0.000 C 
ATOM     13  C   UNL     1      -6.656  12.347  18.854  0.00  0.00    +0.000 C 
ATOM     14  C   UNL     1      -6.214  12.036  17.385  0.00  0.00    +0.000 C 
BRANCH   2  15
ATOM     15  C   UNL     1       0.114  11.810  21.066  0.00  0.00    +0.000 C 
BRANCH  15  17
ATOM     16  C   UNL     1      -0.682  10.436  23.098  0.00  0.00    +0.000 C 
ATOM     17  C   UNL     1       0.330  10.587  21.970  0.00  0.00    +0.000 C 
ENDBRANCH  15  17
ENDBRANCH   2  15
ENDBRANCH   1   3
BRANCH   1  18
ATOM     18  C   UNL     1       1.378   8.857  19.144  0.00  0.00    +0.000 C 
BRANCH  18  19
ATOM     19  C   UNL     1       2.265   7.944  18.296  0.00  0.00    +0.000 C 
ATOM     20  O   UNL     1       2.662   8.338  17.196  0.00  0.00    +0.000 OA
ATOM     21  N   UNL     1       2.602   6.718  18.860  0.00  0.00    +0.000 N 
ATOM     22  H   UNL     1       2.029   6.431  19.646  0.00  0.00    +0.000 HD
BRANCH  21  23
ATOM     23  C   UNL     1       3.430   5.734  18.260  0.00  0.00    +0.000 A 
ATOM     24  C   UNL     1       4.822   5.890  18.238  0.00  0.00    +0.000 A 
ATOM     25  C   UNL     1       5.640   5.023  17.506  0.00  0.00    +0.000 A 
ATOM     26  C   UNL     1       5.072   3.926  16.859  0.00  0.00    +0.000 A 
ATOM     27  C   UNL     1       3.699   3.698  16.957  0.00  0.00    +0.000 A 
ATOM     28  C   UNL     1       2.865   4.587  17.663  0.00  0.00    +0.000 A 
ATOM     29  C   UNL     1       1.395   4.274  17.733  0.00  0.00    +0.000 C 
BRANCH  25  30
ATOM     30  C   UNL     1       7.108   5.227  17.415  0.00  0.00    +0.000 C 
ATOM     31  O   UNL     1       7.898   4.618  18.114  0.00  0.00    +0.000 OA
BRANCH  30  32
ATOM     32  O   UNL     1       7.490   6.102  16.461  0.00  0.00    +0.000 OA
ATOM     33  H   UNL     1       6.778   6.454  15.891  0.00  0.00    +0.000 HD
ENDBRANCH  30  32
ENDBRANCH  25  30
ENDBRANCH  21  23
ENDBRANCH  18  19
ENDBRANCH   1  18
TORSDOF 8
ENDMDL
MODEL 3
REMARK VINA RESULT:      -7.8      1.804      3.149
REMARK  Name = 
REMARK  10 active torsions:
REMARK  status: ('A' for Active; 'I' for Inactive)
REMARK    1  A    between atoms: C_1  and  C_2
REMARK    2  A    between atoms: C_2  and  C_3
REMARK    3  A    between atoms: C_3  and  N_4
REMARK    4  A    between atoms: C_5  and  S_6
REMARK    5  A    between atoms: S_6  and  C_7
REMARK    6  A    between atoms: C_7  and  C_8
REMARK    7  A    between atoms: N_10  and  C_11
REMARK    8  A    between atoms: C_13  and  C_14
REMARK    9  A    between atoms: C_14  and  O_16
REMARK   10  A    between atoms: C_19  and  C_20
REMARK                            x       y       z     vdW  Elec       q    Type
REMARK                         _______ _______ _______ _____ _____    ______ ____
ROOT
ATOM      1  S   UNL     1       1.416  10.761  18.617  0.00  0.00    +0.000 S 
ENDROOT
BRANCH   1   3
ATOM      2  N   UNL     1      -0.668  11.776  20.008  0.00  0.00    +0.000 N 
ATOM      3  C   UNL     1      -0.297  11.150  18.809  0.00  0.00    +0.000 A 
ATOM      4  N   UNL     1      -1.112  10.842  17.840  0.00  0.00    +0.000 NA
ATOM      5  C   UNL     1      -2.407  11.196  18.045  0.00  0.00    +0.000 A 
ATOM      6  S   UNL     1      -3.655  10.922  16.877  0.00  0.00    +0.000 S 
ATOM      7  C   UNL     1      -4.793  11.647  17.874  0.00  0.00    +0.000 A 
ATOM      8  C   UNL     1      -4.278  12.099  19.054  0.00  0.00    +0.000 A 
ATOM      9  C   UNL     1      -2.906  11.815  19.173  0.00  0.00    +0.000 A 
ATOM     10  C   UNL     1      -2.009  12.096  20.260  0.00  0.00    +0.000 A 
ATOM     11  O   UNL     1      -2.419  12.582  21.310  0.00  0.00    +0.000 OA
ATOM     12  C   UNL     1      -5.308  12.770  19.884  0.00  0.00    +0.000 C 
ATOM     13  C   UNL     1      -6.627  12.318  19.188  0.00  0.00    +0.000 C 
ATOM     14  C   UNL     1      -6.248  11.910  17.726  0.00  0.00    +0.000 C 
BRANCH   2  15
ATOM     15  C   UNL     1       0.257  12.147  21.085  0.00  0.00    +0.000 C 
BRANCH  15  17
ATOM     16  C   UNL     1       0.259  14.724  21.175  0.00  0.00    +0.000 C 
ATOM     17  C   UNL     1       1.021  13.453  20.822  0.00  0.00    +0.000 C 
ENDBRANCH  15  17
ENDBRANCH   2  15
ENDBRANCH   1   3
BRANCH   1  18
ATOM     18  C   UNL     1       1.492   9.039  19.184  0.00  0.00    +0.000 C 
BRANCH  18  19
ATOM     19  C   UNL     1       2.323   8.140  18.266  0.00  0.00    +0.000 C 
ATOM     20  O   UNL     1       2.616   8.537  17.135  0.00  0.00    +0.000 OA
ATOM     21  N   UNL     1       2.733   6.925  18.803  0.00  0.00    +0.000 N 
ATOM     22  H   UNL     1       2.236   6.629  19.636  0.00  0.00    +0.000 HD
BRANCH  21  23
ATOM     23  C   UNL     1       3.528   5.955  18.137  0.00  0.00    +0.000 A 
ATOM     24  C   UNL     1       4.892   6.182  17.915  0.00  0.00    +0.000 A 
ATOM     25  C   UNL     1       5.652   5.322  17.115  0.00  0.00    +0.000 A 
ATOM     26  C   UNL     1       5.067   4.165  16.603  0.00  0.00    +0.000 A 
ATOM     27  C   UNL     1       3.736   3.871  16.901  0.00  0.00    +0.000 A 
ATOM     28  C   UNL     1       2.955   4.751  17.676  0.00  0.00    +0.000 A 
ATOM     29  C   UNL     1       1.529   4.366  17.964  0.00  0.00    +0.000 C 
BRANCH  25  30
ATOM     30  C   UNL     1       7.080   5.597  16.811  0.00  0.00    +0.000 C 
ATOM     31  O   UNL     1       7.502   6.724  16.620  0.00  0.00    +0.000 OA
BRANCH  30  32
ATOM     32  O   UNL     1       7.870   4.504  16.814  0.00  0.00    +0.000 OA
ATOM     33  H   UNL     1       8.243   4.245  17.679  0.00  0.00    +0.000 HD
ENDBRANCH  30  32
ENDBRANCH  25  30
ENDBRANCH  21  23
ENDBRANCH  18  19
ENDBRANCH   1  18
TORSDOF 8
ENDMDL
MODEL 4
REMARK VINA RESULT:      -7.7      2.898      3.974
REMARK  Name = 
REMARK  10 active torsions:
REMARK  status: ('A' for Active; 'I' for Inactive)
REMARK    1  A    between atoms: C_1  and  C_2
REMARK    2  A    between atoms: C_2  and  C_3
REMARK    3  A    between atoms: C_3  and  N_4
REMARK    4  A    between atoms: C_5  and  S_6
REMARK    5  A    between atoms: S_6  and  C_7
REMARK    6  A    between atoms: C_7  and  C_8
REMARK    7  A    between atoms: N_10  and  C_11
REMARK    8  A    between atoms: C_13  and  C_14
REMARK    9  A    between atoms: C_14  and  O_16
REMARK   10  A    between atoms: C_19  and  C_20
REMARK                            x       y       z     vdW  Elec       q    Type
REMARK                         _______ _______ _______ _____ _____    ______ ____
ROOT
ATOM      1  S   UNL     1      -0.149   9.745  21.427  0.00  0.00    +0.000 S 
ENDROOT
BRANCH   1   3
ATOM      2  N   UNL     1      -0.394  11.778  19.661  0.00  0.00    +0.000 N 
ATOM      3  C   UNL     1       0.378  11.277  20.720  0.00  0.00    +0.000 A 
ATOM      4  N   UNL     1       1.438  11.852  21.213  0.00  0.00    +0.000 NA
ATOM      5  C   UNL     1       1.767  13.038  20.640  0.00  0.00    +0.000 A 
ATOM      6  S   UNL     1       3.111  13.996  21.161  0.00  0.00    +0.000 S 
ATOM      7  C   UNL     1       2.751  15.178  20.026  0.00  0.00    +0.000 A 
ATOM      8  C   UNL     1       1.653  14.892  19.267  0.00  0.00    +0.000 A 
ATOM      9  C   UNL     1       1.097  13.643  19.596  0.00  0.00    +0.000 A 
ATOM     10  C   UNL     1      -0.036  12.971  19.020  0.00  0.00    +0.000 A 
ATOM     11  O   UNL     1      -0.621  13.436  18.046  0.00  0.00    +0.000 OA
ATOM     12  C   UNL     1       1.347  15.981  18.308  0.00  0.00    +0.000 C 
ATOM     13  C   UNL     1       2.663  16.815  18.336  0.00  0.00    +0.000 C 
ATOM     14  C   UNL     1       3.379  16.482  19.687  0.00  0.00    +0.000 C 
BRANCH   2  15
ATOM     15  C   UNL     1      -1.603  11.141  19.127  0.00  0.00    +0.000 C 
BRANCH  15  17
ATOM     16  C   UNL     1      -2.195  10.274  16.772  0.00  0.00    +0.000 C 
ATOM     17  C   UNL     1      -1.325  10.121  18.012  0.00  0.00    +0.000 C 
ENDBRANCH  15  17
ENDBRANCH   2  15
ENDBRANCH   1   3
BRANCH   1  18
ATOM     18  C   UNL     1       1.408   8.825  21.573  0.00  0.00    +0.000 C 
BRANCH  18  19
ATOM     19  C   UNL     1       1.749   8.018  20.318  0.00  0.00    +0.000 C 
ATOM     20  O   UNL     1       1.627   8.544  19.209  0.00  0.00    +0.000 OA
ATOM     21  N   UNL     1       2.223   6.728  20.528  0.00  0.00    +0.000 N 
ATOM     22  H   UNL     1       2.053   6.348  21.453  0.00  0.00    +0.000 HD
BRANCH  21  23
ATOM     23  C   UNL     1       2.619   5.819  19.512  0.00  0.00    +0.000 A 
ATOM     24  C   UNL     1       3.673   6.135  18.644  0.00  0.00    +0.000 A 
ATOM     25  C   UNL     1       3.966   5.336  17.535  0.00  0.00    +0.000 A 
ATOM     26  C   UNL     1       3.259   4.151  17.335  0.00  0.00    +0.000 A 
ATOM     27  C   UNL     1       2.275   3.770  18.248  0.00  0.00    +0.000 A 
ATOM     28  C   UNL     1       1.951   4.588  19.348  0.00  0.00    +0.000 A 
ATOM     29  C   UNL     1       0.884   4.109  20.297  0.00  0.00    +0.000 C 
BRANCH  25  30
ATOM     30  C   UNL     1       5.031   5.705  16.567  0.00  0.00    +0.000 C 
ATOM     31  O   UNL     1       5.292   5.024  15.590  0.00  0.00    +0.000 OA
BRANCH  30  32
ATOM     32  O   UNL     1       5.644   6.877  16.835  0.00  0.00    +0.000 OA
ATOM     33  H   UNL     1       6.341   7.151  16.207  0.00  0.00    +0.000 HD
ENDBRANCH  30  32
ENDBRANCH  25  30
ENDBRANCH  21  23
ENDBRANCH  18  19
ENDBRANCH   1  18
TORSDOF 8
ENDMDL
MODEL 5
REMARK VINA RESULT:      -7.6      2.198      2.899
REMARK  Name = 
REMARK  10 active torsions:
REMARK  status: ('A' for Active; 'I' for Inactive)
REMARK    1  A    between atoms: C_1  and  C_2
REMARK    2  A    between atoms: C_2  and  C_3
REMARK    3  A    between atoms: C_3  and  N_4
REMARK    4  A    between atoms: C_5  and  S_6
REMARK    5  A    between atoms: S_6  and  C_7
REMARK    6  A    between atoms: C_7  and  C_8
REMARK    7  A    between atoms: N_10  and  C_11
REMARK    8  A    between atoms: C_13  and  C_14
REMARK    9  A    between atoms: C_14  and  O_16
REMARK   10  A    between atoms: C_19  and  C_20
REMARK                            x       y       z     vdW  Elec       q    Type
REMARK                         _______ _______ _______ _____ _____    ______ ____
ROOT
ATOM      1  S   UNL     1       0.327   9.652  18.114  0.00  0.00    +0.000 S 
ENDROOT
BRANCH   1   3
ATOM      2  N   UNL     1      -2.056  10.884  18.458  0.00  0.00    +0.000 N 
ATOM      3  C   UNL     1      -0.743  10.788  18.944  0.00  0.00    +0.000 A 
ATOM      4  N   UNL     1      -0.264  11.464  19.949  0.00  0.00    +0.000 NA
ATOM      5  C   UNL     1      -1.150  12.296  20.556  0.00  0.00    +0.000 A 
ATOM      6  S   UNL     1      -0.744  13.261  21.935  0.00  0.00    +0.000 S 
ATOM      7  C   UNL     1      -2.307  13.866  22.012  0.00  0.00    +0.000 A 
ATOM      8  C   UNL     1      -3.134  13.371  21.046  0.00  0.00    +0.000 A 
ATOM      9  C   UNL     1      -2.465  12.486  20.183  0.00  0.00    +0.000 A 
ATOM     10  C   UNL     1      -2.966  11.780  19.036  0.00  0.00    +0.000 A 
ATOM     11  O   UNL     1      -4.107  11.968  18.624  0.00  0.00    +0.000 OA
ATOM     12  C   UNL     1      -4.513  13.899  21.178  0.00  0.00    +0.000 C 
ATOM     13  C   UNL     1      -4.308  15.099  22.151  0.00  0.00    +0.000 C 
ATOM     14  C   UNL     1      -2.977  14.825  22.929  0.00  0.00    +0.000 C 
BRANCH   2  15
ATOM     15  C   UNL     1      -2.599  10.100  17.344  0.00  0.00    +0.000 C 
BRANCH  15  17
ATOM     16  C   UNL     1      -2.953   9.994  14.792  0.00  0.00    +0.000 C 
ATOM     17  C   UNL     1      -2.595  10.848  16.002  0.00  0.00    +0.000 C 
ENDBRANCH  15  17
ENDBRANCH   2  15
ENDBRANCH   1   3
BRANCH   1  18
ATOM     18  C   UNL     1       1.547   9.256  19.397  0.00  0.00    +0.000 C 
BRANCH  18  19
ATOM     19  C   UNL     1       1.992   7.792  19.371  0.00  0.00    +0.000 C 
ATOM     20  O   UNL     1       1.985   7.139  20.418  0.00  0.00    +0.000 OA
ATOM     21  N   UNL     1       2.345   7.279  18.128  0.00  0.00    +0.000 N 
ATOM     22  H   UNL     1       2.529   7.971  17.409  0.00  0.00    +0.000 HD
BRANCH  21  23
ATOM     23  C   UNL     1       2.762   5.946  17.873  0.00  0.00    +0.000 A 
ATOM     24  C   UNL     1       1.912   4.867  18.152  0.00  0.00    +0.000 A 
ATOM     25  C   UNL     1       2.363   3.546  18.071  0.00  0.00    +0.000 A 
ATOM     26  C   UNL     1       3.655   3.289  17.615  0.00  0.00    +0.000 A 
ATOM     27  C   UNL     1       4.480   4.348  17.234  0.00  0.00    +0.000 A 
ATOM     28  C   UNL     1       4.044   5.683  17.347  0.00  0.00    +0.000 A 
ATOM     29  C   UNL     1       4.984   6.774  16.910  0.00  0.00    +0.000 C 
BRANCH  25  30
ATOM     30  C   UNL     1       1.493   2.400  18.441  0.00  0.00    +0.000 C 
ATOM     31  O   UNL     1       0.277   2.482  18.459  0.00  0.00    +0.000 OA
BRANCH  30  32
ATOM     32  O   UNL     1       2.159   1.257  18.702  0.00  0.00    +0.000 OA
ATOM     33  H   UNL     1       2.919   1.059  18.121  0.00  0.00    +0.000 HD
ENDBRANCH  30  32
ENDBRANCH  25  30
ENDBRANCH  21  23
ENDBRANCH  18  19
ENDBRANCH   1  18
TORSDOF 8
ENDMDL
MODEL 6
REMARK VINA RESULT:      -7.6      2.970      4.366
REMARK  Name = 
REMARK  10 active torsions:
REMARK  status: ('A' for Active; 'I' for Inactive)
REMARK    1  A    between atoms: C_1  and  C_2
REMARK    2  A    between atoms: C_2  and  C_3
REMARK    3  A    between atoms: C_3  and  N_4
REMARK    4  A    between atoms: C_5  and  S_6
REMARK    5  A    between atoms: S_6  and  C_7
REMARK    6  A    between atoms: C_7  and  C_8
REMARK    7  A    between atoms: N_10  and  C_11
REMARK    8  A    between atoms: C_13  and  C_14
REMARK    9  A    between atoms: C_14  and  O_16
REMARK   10  A    between atoms: C_19  and  C_20
REMARK                            x       y       z     vdW  Elec       q    Type
REMARK                         _______ _______ _______ _____ _____    ______ ____
ROOT
ATOM      1  S   UNL     1       0.397  10.009  18.478  0.00  0.00    +0.000 S 
ENDROOT
BRANCH   1   3
ATOM      2  N   UNL     1       0.090  12.237  19.979  0.00  0.00    +0.000 N 
ATOM      3  C   UNL     1       0.880  11.630  18.993  0.00  0.00    +0.000 A 
ATOM      4  N   UNL     1       1.930  12.165  18.437  0.00  0.00    +0.000 NA
ATOM      5  C   UNL     1       2.258  13.399  18.901  0.00  0.00    +0.000 A 
ATOM      6  S   UNL     1       3.636  14.283  18.338  0.00  0.00    +0.000 S 
ATOM      7  C   UNL     1       3.301  15.542  19.394  0.00  0.00    +0.000 A 
ATOM      8  C   UNL     1       2.196  15.331  20.166  0.00  0.00    +0.000 A 
ATOM      9  C   UNL     1       1.570  14.108  19.866  0.00  0.00    +0.000 A 
ATOM     10  C   UNL     1       0.379  13.532  20.428  0.00  0.00    +0.000 A 
ATOM     11  O   UNL     1      -0.303  14.153  21.237  0.00  0.00    +0.000 OA
ATOM     12  C   UNL     1       1.962  16.448  21.112  0.00  0.00    +0.000 C 
ATOM     13  C   UNL     1       2.886  17.561  20.532  0.00  0.00    +0.000 C 
ATOM     14  C   UNL     1       3.974  16.839  19.669  0.00  0.00    +0.000 C 
BRANCH   2  15
ATOM     15  C   UNL     1      -1.076  11.619  20.621  0.00  0.00    +0.000 C 
BRANCH  15  17
ATOM     16  C   UNL     1      -1.448  11.354  23.159  0.00  0.00    +0.000 C 
ATOM     17  C   UNL     1      -0.739  10.851  21.909  0.00  0.00    +0.000 C 
ENDBRANCH  15  17
ENDBRANCH   2  15
ENDBRANCH   1   3
BRANCH   1  18
ATOM     18  C   UNL     1       1.612   8.954  19.318  0.00  0.00    +0.000 C 
BRANCH  18  19
ATOM     19  C   UNL     1       2.392   8.055  18.358  0.00  0.00    +0.000 C 
ATOM     20  O   UNL     1       2.618   8.447  17.210  0.00  0.00    +0.000 OA
ATOM     21  N   UNL     1       2.838   6.843  18.876  0.00  0.00    +0.000 N 
ATOM     22  H   UNL     1       2.390   6.549  19.737  0.00  0.00    +0.000 HD
BRANCH  21  23
ATOM     23  C   UNL     1       3.597   5.873  18.170  0.00  0.00    +0.000 A 
ATOM     24  C   UNL     1       4.958   6.083  17.912  0.00  0.00    +0.000 A 
ATOM     25  C   UNL     1       5.680   5.226  17.075  0.00  0.00    +0.000 A 
ATOM     26  C   UNL     1       5.061   4.088  16.559  0.00  0.00    +0.000 A 
ATOM     27  C   UNL     1       3.735   3.810  16.890  0.00  0.00    +0.000 A 
ATOM     28  C   UNL     1       2.992   4.687  17.704  0.00  0.00    +0.000 A 
ATOM     29  C   UNL     1       1.568   4.319  18.027  0.00  0.00    +0.000 C 
BRANCH  25  30
ATOM     30  C   UNL     1       7.102   5.484  16.734  0.00  0.00    +0.000 C 
ATOM     31  O   UNL     1       7.518   6.598  16.465  0.00  0.00    +0.000 OA
BRANCH  30  32
ATOM     32  O   UNL     1       7.896   4.396  16.797  0.00  0.00    +0.000 OA
ATOM     33  H   UNL     1       7.868   3.797  16.025  0.00  0.00    +0.000 HD
ENDBRANCH  30  32
ENDBRANCH  25  30
ENDBRANCH  21  23
ENDBRANCH  18  19
ENDBRANCH   1  18
TORSDOF 8
ENDMDL
MODEL 7
REMARK VINA RESULT:      -7.6      2.093      3.210
REMARK  Name = 
REMARK  10 active torsions:
REMARK  status: ('A' for Active; 'I' for Inactive)
REMARK    1  A    between atoms: C_1  and  C_2
REMARK    2  A    between atoms: C_2  and  C_3
REMARK    3  A    between atoms: C_3  and  N_4
REMARK    4  A    between atoms: C_5  and  S_6
REMARK    5  A    between atoms: S_6  and  C_7
REMARK    6  A    between atoms: C_7  and  C_8
REMARK    7  A    between atoms: N_10  and  C_11
REMARK    8  A    between atoms: C_13  and  C_14
REMARK    9  A    between atoms: C_14  and  O_16
REMARK   10  A    between atoms: C_19  and  C_20
REMARK                            x       y       z     vdW  Elec       q    Type
REMARK                         _______ _______ _______ _____ _____    ______ ____
ROOT
ATOM      1  S   UNL     1       1.350   9.554  18.449  0.00  0.00    +0.000 S 
ENDROOT
BRANCH   1   3
ATOM      2  N   UNL     1      -0.463  11.076  19.756  0.00  0.00    +0.000 N 
ATOM      3  C   UNL     1      -0.250  10.285  18.617  0.00  0.00    +0.000 A 
ATOM      4  N   UNL     1      -1.133  10.056  17.687  0.00  0.00    +0.000 NA
ATOM      5  C   UNL     1      -2.330  10.673  17.867  0.00  0.00    +0.000 A 
ATOM      6  S   UNL     1      -3.636  10.544  16.739  0.00  0.00    +0.000 S 
ATOM      7  C   UNL     1      -4.587  11.563  17.673  0.00  0.00    +0.000 A 
ATOM      8  C   UNL     1      -3.965  12.009  18.803  0.00  0.00    +0.000 A 
ATOM      9  C   UNL     1      -2.671  11.475  18.937  0.00  0.00    +0.000 A 
ATOM     10  C   UNL     1      -1.710  11.672  19.987  0.00  0.00    +0.000 A 
ATOM     11  O   UNL     1      -1.992  12.320  20.991  0.00  0.00    +0.000 OA
ATOM     12  C   UNL     1      -4.824  12.939  19.574  0.00  0.00    +0.000 C 
ATOM     13  C   UNL     1      -6.223  12.693  18.933  0.00  0.00    +0.000 C 
ATOM     14  C   UNL     1      -5.967  12.089  17.512  0.00  0.00    +0.000 C 
BRANCH   2  15
ATOM     15  C   UNL     1       0.543  11.353  20.787  0.00  0.00    +0.000 C 
BRANCH  15  17
ATOM     16  C   UNL     1       1.774  13.113  19.359  0.00  0.00    +0.000 C 
ATOM     17  C   UNL     1       1.144  12.765  20.702  0.00  0.00    +0.000 C 
ENDBRANCH  15  17
ENDBRANCH   2  15
ENDBRANCH   1   3
BRANCH   1  18
ATOM     18  C   UNL     1       1.392   8.380  19.833  0.00  0.00    +0.000 C 
BRANCH  18  19
ATOM     19  C   UNL     1       2.289   7.170  19.567  0.00  0.00    +0.000 C 
ATOM     20  O   UNL     1       2.529   6.383  20.486  0.00  0.00    +0.000 OA
ATOM     21  N   UNL     1       2.748   7.019  18.263  0.00  0.00    +0.000 N 
ATOM     22  H   UNL     1       2.672   7.845  17.679  0.00  0.00    +0.000 HD
BRANCH  21  23
ATOM     23  C   UNL     1       3.568   5.960  17.794  0.00  0.00    +0.000 A 
ATOM     24  C   UNL     1       4.941   6.154  17.598  0.00  0.00    +0.000 A 
ATOM     25  C   UNL     1       5.732   5.181  16.978  0.00  0.00    +0.000 A 
ATOM     26  C   UNL     1       5.166   3.956  16.631  0.00  0.00    +0.000 A 
ATOM     27  C   UNL     1       3.823   3.707  16.914  0.00  0.00    +0.000 A 
ATOM     28  C   UNL     1       3.012   4.695  17.506  0.00  0.00    +0.000 A 
ATOM     29  C   UNL     1       1.574   4.355  17.791  0.00  0.00    +0.000 C 
BRANCH  25  30
ATOM     30  C   UNL     1       7.172   5.411  16.695  0.00  0.00    +0.000 C 
ATOM     31  O   UNL     1       7.610   6.503  16.375  0.00  0.00    +0.000 OA
BRANCH  30  32
ATOM     32  O   UNL     1       7.954   4.326  16.871  0.00  0.00    +0.000 OA
ATOM     33  H   UNL     1       7.489   3.471  16.957  0.00  0.00    +0.000 HD
ENDBRANCH  30  32
ENDBRANCH  25  30
ENDBRANCH  21  23
ENDBRANCH  18  19
ENDBRANCH   1  18
TORSDOF 8
ENDMDL
MODEL 8
REMARK VINA RESULT:      -7.6      1.151      1.228
REMARK  Name = 
REMARK  10 active torsions:
REMARK  status: ('A' for Active; 'I' for Inactive)
REMARK    1  A    between atoms: C_1  and  C_2
REMARK    2  A    between atoms: C_2  and  C_3
REMARK    3  A    between atoms: C_3  and  N_4
REMARK    4  A    between atoms: C_5  and  S_6
REMARK    5  A    between atoms: S_6  and  C_7
REMARK    6  A    between atoms: C_7  and  C_8
REMARK    7  A    between atoms: N_10  and  C_11
REMARK    8  A    between atoms: C_13  and  C_14
REMARK    9  A    between atoms: C_14  and  O_16
REMARK   10  A    between atoms: C_19  and  C_20
REMARK                            x       y       z     vdW  Elec       q    Type
REMARK                         _______ _______ _______ _____ _____    ______ ____
ROOT
ATOM      1  S   UNL     1       0.422  10.124  18.471  0.00  0.00    +0.000 S 
ENDROOT
BRANCH   1   3
ATOM      2  N   UNL     1      -1.922  11.419  18.843  0.00  0.00    +0.000 N 
ATOM      3  C   UNL     1      -0.783  10.919  19.491  0.00  0.00    +0.000 A 
ATOM      4  N   UNL     1      -0.554  10.995  20.771  0.00  0.00    +0.000 NA
ATOM      5  C   UNL     1      -1.535  11.594  21.495  0.00  0.00    +0.000 A 
ATOM      6  S   UNL     1      -1.462  11.769  23.216  0.00  0.00    +0.000 S 
ATOM      7  C   UNL     1      -2.969  12.506  23.237  0.00  0.00    +0.000 A 
ATOM      8  C   UNL     1      -3.538  12.625  22.002  0.00  0.00    +0.000 A 
ATOM      9  C   UNL     1      -2.702  12.127  20.987  0.00  0.00    +0.000 A 
ATOM     10  C   UNL     1      -2.917  12.090  19.566  0.00  0.00    +0.000 A 
ATOM     11  O   UNL     1      -3.907  12.612  19.062  0.00  0.00    +0.000 OA
ATOM     12  C   UNL     1      -4.885  13.241  22.072  0.00  0.00    +0.000 C 
ATOM     13  C   UNL     1      -4.893  13.835  23.513  0.00  0.00    +0.000 C 
ATOM     14  C   UNL     1      -3.817  13.046  24.332  0.00  0.00    +0.000 C 
BRANCH   2  15
ATOM     15  C   UNL     1      -2.190  11.306  17.405  0.00  0.00    +0.000 C 
BRANCH  15  17
ATOM     16  C   UNL     1      -3.004   9.760  15.509  0.00  0.00    +0.000 C 
ATOM     17  C   UNL     1      -2.910  10.009  17.009  0.00  0.00    +0.000 C 
ENDBRANCH  15  17
ENDBRANCH   2  15
ENDBRANCH   1   3
BRANCH   1  18
ATOM     18  C   UNL     1       1.378   9.160  19.675  0.00  0.00    +0.000 C 
BRANCH  18  19
ATOM     19  C   UNL     1       2.063   7.939  19.058  0.00  0.00    +0.000 C 
ATOM     20  O   UNL     1       2.307   7.928  17.849  0.00  0.00    +0.000 OA
ATOM     21  N   UNL     1       2.408   6.918  19.938  0.00  0.00    +0.000 N 
ATOM     22  H   UNL     1       1.948   6.951  20.841  0.00  0.00    +0.000 HD
BRANCH  21  23
ATOM     23  C   UNL     1       3.070   5.713  19.584  0.00  0.00    +0.000 A 
ATOM     24  C   UNL     1       4.322   5.744  18.958  0.00  0.00    +0.000 A 
ATOM     25  C   UNL     1       4.911   4.582  18.450  0.00  0.00    +0.000 A 
ATOM     26  C   UNL     1       4.285   3.352  18.649  0.00  0.00    +0.000 A 
ATOM     27  C   UNL     1       3.087   3.291  19.361  0.00  0.00    +0.000 A 
ATOM     28  C   UNL     1       2.471   4.462  19.845  0.00  0.00    +0.000 A 
ATOM     29  C   UNL     1       1.184   4.320  20.612  0.00  0.00    +0.000 C 
BRANCH  25  30
ATOM     30  C   UNL     1       6.202   4.618  17.716  0.00  0.00    +0.000 C 
ATOM     31  O   UNL     1       6.290   5.014  16.567  0.00  0.00    +0.000 OA
BRANCH  30  32
ATOM     32  O   UNL     1       7.267   4.224  18.444  0.00  0.00    +0.000 OA
ATOM     33  H   UNL     1       7.660   3.364  18.201  0.00  0.00    +0.000 HD
ENDBRANCH  30  32
ENDBRANCH  25  30
ENDBRANCH  21  23
ENDBRANCH  18  19
ENDBRANCH   1  18
TORSDOF 8
ENDMDL
MODEL 9
REMARK VINA RESULT:      -7.5      2.588      4.205
REMARK  Name = 
REMARK  10 active torsions:
REMARK  status: ('A' for Active; 'I' for Inactive)
REMARK    1  A    between atoms: C_1  and  C_2
REMARK    2  A    between atoms: C_2  and  C_3
REMARK    3  A    between atoms: C_3  and  N_4
REMARK    4  A    between atoms: C_5  and  S_6
REMARK    5  A    between atoms: S_6  and  C_7
REMARK    6  A    between atoms: C_7  and  C_8
REMARK    7  A    between atoms: N_10  and  C_11
REMARK    8  A    between atoms: C_13  and  C_14
REMARK    9  A    between atoms: C_14  and  O_16
REMARK   10  A    between atoms: C_19  and  C_20
REMARK                            x       y       z     vdW  Elec       q    Type
REMARK                         _______ _______ _______ _____ _____    ______ ____
ROOT
ATOM      1  S   UNL     1       1.019  10.594  19.820  0.00  0.00    +0.000 S 
ENDROOT
BRANCH   1   3
ATOM      2  N   UNL     1      -1.285  11.716  20.682  0.00  0.00    +0.000 N 
ATOM      3  C   UNL     1      -0.664  11.086  19.594  0.00  0.00    +0.000 A 
ATOM      4  N   UNL     1      -1.228  10.842  18.445  0.00  0.00    +0.000 NA
ATOM      5  C   UNL     1      -2.511  11.273  18.333  0.00  0.00    +0.000 A 
ATOM      6  S   UNL     1      -3.443  11.093  16.885  0.00  0.00    +0.000 S 
ATOM      7  C   UNL     1      -4.750  11.873  17.591  0.00  0.00    +0.000 A 
ATOM      8  C   UNL     1      -4.521  12.275  18.875  0.00  0.00    +0.000 A 
ATOM      9  C   UNL     1      -3.239  11.905  19.321  0.00  0.00    +0.000 A 
ATOM     10  C   UNL     1      -2.627  12.115  20.604  0.00  0.00    +0.000 A 
ATOM     11  O   UNL     1      -3.257  12.610  21.534  0.00  0.00    +0.000 OA
ATOM     12  C   UNL     1      -5.685  12.996  19.443  0.00  0.00    +0.000 C 
ATOM     13  C   UNL     1      -6.813  12.637  18.430  0.00  0.00    +0.000 C 
ATOM     14  C   UNL     1      -6.106  12.227  17.095  0.00  0.00    +0.000 C 
BRANCH   2  15
ATOM     15  C   UNL     1      -0.638  12.013  21.964  0.00  0.00    +0.000 C 
BRANCH  15  17
ATOM     16  C   UNL     1      -0.360   9.730  23.130  0.00  0.00    +0.000 C 
ATOM     17  C   UNL     1      -1.067  11.079  23.105  0.00  0.00    +0.000 C 
ENDBRANCH  15  17
ENDBRANCH   2  15
ENDBRANCH   1   3
BRANCH   1  18
ATOM     18  C   UNL     1       1.311   9.525  18.383  0.00  0.00    +0.000 C 
BRANCH  18  19
ATOM     19  C   UNL     1       1.921   8.172  18.754  0.00  0.00    +0.000 C 
ATOM     20  O   UNL     1       2.031   7.864  19.943  0.00  0.00    +0.000 OA
ATOM     21  N   UNL     1       2.280   7.349  17.692  0.00  0.00    +0.000 N 
ATOM     22  H   UNL     1       2.354   7.810  16.792  0.00  0.00    +0.000 HD
BRANCH  21  23
ATOM     23  C   UNL     1       2.838   6.048  17.809  0.00  0.00    +0.000 A 
ATOM     24  C   UNL     1       2.021   4.944  18.083  0.00  0.00    +0.000 A 
ATOM     25  C   UNL     1       2.567   3.689  18.370  0.00  0.00    +0.000 A 
ATOM     26  C   UNL     1       3.947   3.506  18.294  0.00  0.00    +0.000 A 
ATOM     27  C   UNL     1       4.767   4.572  17.922  0.00  0.00    +0.000 A 
ATOM     28  C   UNL     1       4.227   5.847  17.665  0.00  0.00    +0.000 A 
ATOM     29  C   UNL     1       5.171   6.948  17.261  0.00  0.00    +0.000 C 
BRANCH  25  30
ATOM     30  C   UNL     1       1.711   2.531  18.738  0.00  0.00    +0.000 C 
ATOM     31  O   UNL     1       0.560   2.663  19.115  0.00  0.00    +0.000 OA
BRANCH  30  32
ATOM     32  O   UNL     1       2.299   1.329  18.570  0.00  0.00    +0.000 OA
ATOM     33  H   UNL     1       3.153   1.330  18.096  0.00  0.00    +0.000 HD
ENDBRANCH  30  32
ENDBRANCH  25  30
ENDBRANCH  21  23
ENDBRANCH  18  19
ENDBRANCH   1  18
TORSDOF 8
ENDMDL
