MODEL 1
REMARK VINA RESULT:      -9.1      0.000      0.000
REMARK  Name = 
REMARK  7 active torsions:
REMARK  status: ('A' for Active; 'I' for Inactive)
REMARK    1  A    between atoms: C_1  and  C_2
REMARK    2  A    between atoms: C_6  and  C_7
REMARK    3  A    between atoms: C_13  and  C_14
REMARK    4  A    between atoms: C_13  and  C_15
REMARK    5  A    between atoms: C_18  and  C_19
REMARK    6  A    between atoms: C_27  and  C_28
REMARK    7  A    between atoms: C_28  and  N_29
REMARK                            x       y       z     vdW  Elec       q    Type
REMARK                         _______ _______ _______ _____ _____    ______ ____
ROOT
ATOM      1  C   UNL     1       2.340   2.681  21.652  0.00  0.00    +0.000 C 
ATOM      2  C   UNL     1       2.625   3.818  20.692  0.00  0.00    +0.000 A 
ATOM      3  N   UNL     1       1.907   4.882  20.868  0.00  0.00    +0.000 NA
ATOM      4  C   UNL     1       2.121   5.920  20.024  0.00  0.00    +0.000 A 
ATOM      5  N   UNL     1       1.541   7.091  20.041  0.00  0.00    +0.000 NA
ATOM      6  C   UNL     1       2.090   7.848  19.031  0.00  0.00    +0.000 A 
ATOM      7  C   UNL     1       3.017   7.071  18.355  0.00  0.00    +0.000 A 
ATOM      8  N   UNL     1       3.050   5.849  19.003  0.00  0.00    +0.000 N 
ATOM      9  C   UNL     1       3.835   4.705  18.794  0.00  0.00    +0.000 A 
ATOM     10  C   UNL     1       3.687   3.639  19.624  0.00  0.00    +0.000 A 
ENDROOT
BRANCH   6  11
ATOM     11  C   UNL     1       1.687   9.244  18.742  0.00  0.00    +0.000 C 
ATOM     12  O   UNL     1       1.890   9.732  17.628  0.00  0.00    +0.000 OA
ATOM     13  N   UNL     1       1.071   9.976  19.762  0.00  0.00    +0.000 N 
ATOM     14  C   UNL     1       1.036   9.588  21.147  0.00  0.00    +0.000 C 
ATOM     15  O   UNL     1       0.119  10.459  21.805  0.00  0.00    +0.000 OA
ATOM     16  C   UNL     1      -0.001  11.644  21.020  0.00  0.00    +0.000 C 
ATOM     17  C   UNL     1       0.540  11.330  19.615  0.00  0.00    +0.000 C 
ATOM     18  C   UNL     1       1.609  12.373  19.265  0.00  0.00    +0.000 C 
ATOM     19  C   UNL     1      -0.603  11.394  18.593  0.00  0.00    +0.000 C 
ENDBRANCH   6  11
BRANCH   9  20
ATOM     20  C   UNL     1       4.808   4.675  17.682  0.00  0.00    +0.000 A 
ATOM     21  C   UNL     1       4.356   4.252  16.420  0.00  0.00    +0.000 A 
ATOM     22  C   UNL     1       5.214   4.273  15.320  0.00  0.00    +0.000 A 
ATOM     23  C   UNL     1       6.528   4.709  15.475  0.00  0.00    +0.000 A 
ATOM     24 CL   UNL     1       7.574   4.764  14.112  0.00  0.00    +0.000 Cl
ATOM     25  C   UNL     1       7.001   5.106  16.724  0.00  0.00    +0.000 A 
ATOM     26  C   UNL     1       6.144   5.087  17.826  0.00  0.00    +0.000 A 
ATOM     27 CL   UNL     1       6.778   5.577  19.358  0.00  0.00    +0.000 Cl
ENDBRANCH   9  20
BRANCH  10  28
ATOM     28  C   UNL     1       4.535   2.396  19.626  0.00  0.00    +0.000 C 
BRANCH  28  29
ATOM     29  N   UNL     1       4.015   1.372  18.728  0.00  0.00    +0.000 NA
ATOM     30  H   UNL     1       3.277   1.764  18.144  0.00  0.00    +0.000 HD
ATOM     31  H   UNL     1       3.560   0.648  19.284  0.00  0.00    +0.000 HD
ENDBRANCH  28  29
ENDBRANCH  10  28
TORSDOF 4
ENDMDL
MODEL 2
REMARK VINA RESULT:      -8.2      1.156      1.462
REMARK  Name = 
REMARK  7 active torsions:
REMARK  status: ('A' for Active; 'I' for Inactive)
REMARK    1  A    between atoms: C_1  and  C_2
REMARK    2  A    between atoms: C_6  and  C_7
REMARK    3  A    between atoms: C_13  and  C_14
REMARK    4  A    between atoms: C_13  and  C_15
REMARK    5  A    between atoms: C_18  and  C_19
REMARK    6  A    between atoms: C_27  and  C_28
REMARK    7  A    between atoms: C_28  and  N_29
REMARK                            x       y       z     vdW  Elec       q    Type
REMARK                         _______ _______ _______ _____ _____    ______ ____
ROOT
ATOM      1  C   UNL     1       2.359   2.504  21.822  0.00  0.00    +0.000 C 
ATOM      2  C   UNL     1       2.564   3.706  20.923  0.00  0.00    +0.000 A 
ATOM      3  N   UNL     1       1.825   4.735  21.200  0.00  0.00    +0.000 NA
ATOM      4  C   UNL     1       1.968   5.828  20.414  0.00  0.00    +0.000 A 
ATOM      5  N   UNL     1       1.356   6.977  20.532  0.00  0.00    +0.000 NA
ATOM      6  C   UNL     1       1.833   7.812  19.547  0.00  0.00    +0.000 A 
ATOM      7  C   UNL     1       2.749   7.108  18.780  0.00  0.00    +0.000 A 
ATOM      8  N   UNL     1       2.848   5.851  19.348  0.00  0.00    +0.000 N 
ATOM      9  C   UNL     1       3.654   4.746  19.030  0.00  0.00    +0.000 A 
ATOM     10  C   UNL     1       3.577   3.627  19.798  0.00  0.00    +0.000 A 
ENDROOT
BRANCH   6  11
ATOM     11  C   UNL     1       1.377   9.210  19.366  0.00  0.00    +0.000 C 
ATOM     12  O   UNL     1       1.430   9.743  18.255  0.00  0.00    +0.000 OA
ATOM     13  N   UNL     1       0.885   9.892  20.483  0.00  0.00    +0.000 N 
ATOM     14  C   UNL     1       1.032   9.453  21.846  0.00  0.00    +0.000 C 
ATOM     15  O   UNL     1       0.194  10.282  22.647  0.00  0.00    +0.000 OA
ATOM     16  C   UNL     1      -0.042  11.492  21.931  0.00  0.00    +0.000 C 
ATOM     17  C   UNL     1       0.321  11.240  20.457  0.00  0.00    +0.000 C 
ATOM     18  C   UNL     1       1.322  12.316  20.017  0.00  0.00    +0.000 C 
ATOM     19  C   UNL     1      -0.944  11.320  19.592  0.00  0.00    +0.000 C 
ENDBRANCH   6  11
BRANCH   9  20
ATOM     20  C   UNL     1       4.572   4.816  17.875  0.00  0.00    +0.000 A 
ATOM     21  C   UNL     1       5.812   5.451  18.054  0.00  0.00    +0.000 A 
ATOM     22  C   UNL     1       6.747   5.482  17.017  0.00  0.00    +0.000 A 
ATOM     23  C   UNL     1       6.444   4.884  15.796  0.00  0.00    +0.000 A 
ATOM     24 CL   UNL     1       7.608   4.896  14.530  0.00  0.00    +0.000 Cl
ATOM     25  C   UNL     1       5.208   4.272  15.592  0.00  0.00    +0.000 A 
ATOM     26  C   UNL     1       4.273   4.240  16.627  0.00  0.00    +0.000 A 
ATOM     27 CL   UNL     1       2.750   3.481  16.325  0.00  0.00    +0.000 Cl
ENDBRANCH   9  20
BRANCH  10  28
ATOM     28  C   UNL     1       4.459   2.414  19.681  0.00  0.00    +0.000 C 
BRANCH  28  29
ATOM     29  N   UNL     1       3.905   1.413  18.779  0.00  0.00    +0.000 NA
ATOM     30  H   UNL     1       3.127   0.932  19.229  0.00  0.00    +0.000 HD
ATOM     31  H   UNL     1       4.608   0.691  18.617  0.00  0.00    +0.000 HD
ENDBRANCH  28  29
ENDBRANCH  10  28
TORSDOF 4
ENDMDL
MODEL 3
REMARK VINA RESULT:      -7.4      2.591      4.748
REMARK  Name = 
REMARK  7 active torsions:
REMARK  status: ('A' for Active; 'I' for Inactive)
REMARK    1  A    between atoms: C_1  and  C_2
REMARK    2  A    between atoms: C_6  and  C_7
REMARK    3  A    between atoms: C_13  and  C_14
REMARK    4  A    between atoms: C_13  and  C_15
REMARK    5  A    between atoms: C_18  and  C_19
REMARK    6  A    between atoms: C_27  and  C_28
REMARK    7  A    between atoms: C_28  and  N_29
REMARK                            x       y       z     vdW  Elec       q    Type
REMARK                         _______ _______ _______ _____ _____    ______ ____
ROOT
ATOM      1  C   UNL     1       5.630   6.226  15.533  0.00  0.00    +0.000 C 
ATOM      2  C   UNL     1       4.558   6.534  16.558  0.00  0.00    +0.000 A 
ATOM      3  N   UNL     1       4.147   7.763  16.575  0.00  0.00    +0.000 NA
ATOM      4  C   UNL     1       3.196   8.084  17.484  0.00  0.00    +0.000 A 
ATOM      5  N   UNL     1       2.617   9.244  17.652  0.00  0.00    +0.000 NA
ATOM      6  C   UNL     1       1.686   9.109  18.657  0.00  0.00    +0.000 A 
ATOM      7  C   UNL     1       1.744   7.809  19.137  0.00  0.00    +0.000 A 
ATOM      8  N   UNL     1       2.692   7.153  18.373  0.00  0.00    +0.000 N 
ATOM      9  C   UNL     1       3.127   5.818  18.373  0.00  0.00    +0.000 A 
ATOM     10  C   UNL     1       4.060   5.426  17.466  0.00  0.00    +0.000 A 
ENDROOT
BRANCH   6  11
ATOM     11  C   UNL     1       0.822  10.216  19.128  0.00  0.00    +0.000 C 
ATOM     12  O   UNL     1       1.141  10.877  20.119  0.00  0.00    +0.000 OA
ATOM     13  N   UNL     1      -0.349  10.487  18.414  0.00  0.00    +0.000 N 
ATOM     14  C   UNL     1      -0.929   9.616  17.425  0.00  0.00    +0.000 C 
ATOM     15  O   UNL     1      -1.958  10.353  16.768  0.00  0.00    +0.000 OA
ATOM     16  C   UNL     1      -2.363  11.410  17.635  0.00  0.00    +0.000 C 
ATOM     17  C   UNL     1      -1.263  11.592  18.695  0.00  0.00    +0.000 C 
ATOM     18  C   UNL     1      -1.913  11.513  20.082  0.00  0.00    +0.000 C 
ATOM     19  C   UNL     1      -0.589  12.959  18.513  0.00  0.00    +0.000 C 
ENDBRANCH   6  11
BRANCH   9  20
ATOM     20  C   UNL     1       2.565   4.863  19.350  0.00  0.00    +0.000 A 
ATOM     21  C   UNL     1       3.082   4.875  20.657  0.00  0.00    +0.000 A 
ATOM     22  C   UNL     1       2.539   4.044  21.638  0.00  0.00    +0.000 A 
ATOM     23  C   UNL     1       1.482   3.194  21.318  0.00  0.00    +0.000 A 
ATOM     24 CL   UNL     1       0.794   2.194  22.535  0.00  0.00    +0.000 Cl
ATOM     25  C   UNL     1       0.975   3.150  20.020  0.00  0.00    +0.000 A 
ATOM     26  C   UNL     1       1.516   3.980  19.038  0.00  0.00    +0.000 A 
ATOM     27 CL   UNL     1       0.863   3.883  17.440  0.00  0.00    +0.000 Cl
ENDBRANCH   9  20
BRANCH  10  28
ATOM     28  C   UNL     1       4.534   4.016  17.241  0.00  0.00    +0.000 C 
BRANCH  28  29
ATOM     29  N   UNL     1       5.631   3.653  18.129  0.00  0.00    +0.000 NA
ATOM     30  H   UNL     1       5.721   2.638  18.174  0.00  0.00    +0.000 HD
ATOM     31  H   UNL     1       5.393   3.942  19.079  0.00  0.00    +0.000 HD
ENDBRANCH  28  29
ENDBRANCH  10  28
TORSDOF 4
ENDMDL
MODEL 4
REMARK VINA RESULT:      -7.2      8.035     10.337
REMARK  Name = 
REMARK  7 active torsions:
REMARK  status: ('A' for Active; 'I' for Inactive)
REMARK    1  A    between atoms: C_1  and  C_2
REMARK    2  A    between atoms: C_6  and  C_7
REMARK    3  A    between atoms: C_13  and  C_14
REMARK    4  A    between atoms: C_13  and  C_15
REMARK    5  A    between atoms: C_18  and  C_19
REMARK    6  A    between atoms: C_27  and  C_28
REMARK    7  A    between atoms: C_28  and  N_29
REMARK                            x       y       z     vdW  Elec       q    Type
REMARK                         _______ _______ _______ _____ _____    ______ ____
ROOT
ATOM      1  C   UNL     1      11.289  17.619  17.389  0.00  0.00    +0.000 C 
ATOM      2  C   UNL     1      10.101  16.841  17.918  0.00  0.00    +0.000 A 
ATOM      3  N   UNL     1       9.096  17.563  18.304  0.00  0.00    +0.000 NA
ATOM      4  C   UNL     1       8.017  16.908  18.794  0.00  0.00    +0.000 A 
ATOM      5  N   UNL     1       6.890  17.428  19.203  0.00  0.00    +0.000 NA
ATOM      6  C   UNL     1       6.061  16.396  19.580  0.00  0.00    +0.000 A 
ATOM      7  C   UNL     1       6.747  15.202  19.421  0.00  0.00    +0.000 A 
ATOM      8  N   UNL     1       7.986  15.530  18.900  0.00  0.00    +0.000 N 
ATOM      9  C   UNL     1       9.065  14.731  18.491  0.00  0.00    +0.000 A 
ATOM     10  C   UNL     1      10.168  15.326  17.965  0.00  0.00    +0.000 A 
ENDROOT
BRANCH   6  11
ATOM     11  C   UNL     1       4.686  16.595  20.096  0.00  0.00    +0.000 C 
ATOM     12  O   UNL     1       4.460  16.528  21.306  0.00  0.00    +0.000 OA
ATOM     13  N   UNL     1       3.670  16.866  19.175  0.00  0.00    +0.000 N 
ATOM     14  C   UNL     1       3.786  16.703  17.749  0.00  0.00    +0.000 C 
ATOM     15  O   UNL     1       2.638  17.309  17.161  0.00  0.00    +0.000 OA
ATOM     16  C   UNL     1       1.615  17.367  18.153  0.00  0.00    +0.000 C 
ATOM     17  C   UNL     1       2.284  17.170  19.525  0.00  0.00    +0.000 C 
ATOM     18  C   UNL     1       1.569  16.021  20.248  0.00  0.00    +0.000 C 
ATOM     19  C   UNL     1       2.165  18.458  20.349  0.00  0.00    +0.000 C 
ENDBRANCH   6  11
BRANCH   9  20
ATOM     20  C   UNL     1       8.987  13.262  18.634  0.00  0.00    +0.000 A 
ATOM     21  C   UNL     1       8.363  12.531  17.610  0.00  0.00    +0.000 A 
ATOM     22  C   UNL     1       8.326  11.137  17.659  0.00  0.00    +0.000 A 
ATOM     23  C   UNL     1       8.906  10.467  18.734  0.00  0.00    +0.000 A 
ATOM     24 CL   UNL     1       8.887   8.749  18.778  0.00  0.00    +0.000 Cl
ATOM     25  C   UNL     1       9.507  11.178  19.772  0.00  0.00    +0.000 A 
ATOM     26  C   UNL     1       9.545  12.572  19.724  0.00  0.00    +0.000 A 
ATOM     27 CL   UNL     1      10.290  13.411  21.039  0.00  0.00    +0.000 Cl
ENDBRANCH   9  20
BRANCH  10  28
ATOM     28  C   UNL     1      11.348  14.619  17.357  0.00  0.00    +0.000 C 
BRANCH  28  29
ATOM     29  N   UNL     1      11.045  14.070  16.041  0.00  0.00    +0.000 NA
ATOM     30  H   UNL     1      11.814  14.260  15.400  0.00  0.00    +0.000 HD
ATOM     31  H   UNL     1      10.244  14.570  15.653  0.00  0.00    +0.000 HD
ENDBRANCH  28  29
ENDBRANCH  10  28
TORSDOF 4
ENDMDL
MODEL 5
REMARK VINA RESULT:      -6.8      2.543      4.671
REMARK  Name = 
REMARK  7 active torsions:
REMARK  status: ('A' for Active; 'I' for Inactive)
REMARK    1  A    between atoms: C_1  and  C_2
REMARK    2  A    between atoms: C_6  and  C_7
REMARK    3  A    between atoms: C_13  and  C_14
REMARK    4  A    between atoms: C_13  and  C_15
REMARK    5  A    between atoms: C_18  and  C_19
REMARK    6  A    between atoms: C_27  and  C_28
REMARK    7  A    between atoms: C_28  and  N_29
REMARK                            x       y       z     vdW  Elec       q    Type
REMARK                         _______ _______ _______ _____ _____    ______ ____
ROOT
ATOM      1  C   UNL     1       5.798   6.168  15.634  0.00  0.00    +0.000 C 
ATOM      2  C   UNL     1       4.677   6.473  16.606  0.00  0.00    +0.000 A 
ATOM      3  N   UNL     1       4.235   7.691  16.575  0.00  0.00    +0.000 NA
ATOM      4  C   UNL     1       3.240   8.010  17.437  0.00  0.00    +0.000 A 
ATOM      5  N   UNL     1       2.625   9.158  17.551  0.00  0.00    +0.000 NA
ATOM      6  C   UNL     1       1.658   9.024  18.520  0.00  0.00    +0.000 A 
ATOM      7  C   UNL     1       1.727   7.738  19.035  0.00  0.00    +0.000 A 
ATOM      8  N   UNL     1       2.722   7.088  18.327  0.00  0.00    +0.000 N 
ATOM      9  C   UNL     1       3.189   5.766  18.379  0.00  0.00    +0.000 A 
ATOM     10  C   UNL     1       4.169   5.375  17.521  0.00  0.00    +0.000 A 
ENDROOT
BRANCH   6  11
ATOM     11  C   UNL     1       0.747  10.120  18.927  0.00  0.00    +0.000 C 
ATOM     12  O   UNL     1      -0.383   9.865  19.349  0.00  0.00    +0.000 OA
ATOM     13  N   UNL     1       1.212  11.434  18.824  0.00  0.00    +0.000 N 
ATOM     14  C   UNL     1       2.393  11.835  18.106  0.00  0.00    +0.000 C 
ATOM     15  O   UNL     1       2.650  13.196  18.445  0.00  0.00    +0.000 OA
ATOM     16  C   UNL     1       1.430  13.772  18.906  0.00  0.00    +0.000 C 
ATOM     17  C   UNL     1       0.475  12.618  19.261  0.00  0.00    +0.000 C 
ATOM     18  C   UNL     1      -0.842  12.833  18.504  0.00  0.00    +0.000 C 
ATOM     19  C   UNL     1       0.211  12.610  20.772  0.00  0.00    +0.000 C 
ENDBRANCH   6  11
BRANCH   9  20
ATOM     20  C   UNL     1       2.611   4.820  19.356  0.00  0.00    +0.000 A 
ATOM     21  C   UNL     1       3.122   4.829  20.664  0.00  0.00    +0.000 A 
ATOM     22  C   UNL     1       2.565   4.007  21.646  0.00  0.00    +0.000 A 
ATOM     23  C   UNL     1       1.499   3.170  21.323  0.00  0.00    +0.000 A 
ATOM     24 CL   UNL     1       0.793   2.182  22.540  0.00  0.00    +0.000 Cl
ATOM     25  C   UNL     1       0.996   3.130  20.024  0.00  0.00    +0.000 A 
ATOM     26  C   UNL     1       1.552   3.950  19.041  0.00  0.00    +0.000 A 
ATOM     27 CL   UNL     1       0.905   3.857  17.441  0.00  0.00    +0.000 Cl
ENDBRANCH   9  20
BRANCH  10  28
ATOM     28  C   UNL     1       4.686   3.973  17.351  0.00  0.00    +0.000 C 
BRANCH  28  29
ATOM     29  N   UNL     1       5.765   3.665  18.282  0.00  0.00    +0.000 NA
ATOM     30  H   UNL     1       5.381   3.275  19.142  0.00  0.00    +0.000 HD
ATOM     31  H   UNL     1       6.215   4.537  18.562  0.00  0.00    +0.000 HD
ENDBRANCH  28  29
ENDBRANCH  10  28
TORSDOF 4
ENDMDL
MODEL 6
REMARK VINA RESULT:      -6.7      5.930      8.889
REMARK  Name = 
REMARK  7 active torsions:
REMARK  status: ('A' for Active; 'I' for Inactive)
REMARK    1  A    between atoms: C_1  and  C_2
REMARK    2  A    between atoms: C_6  and  C_7
REMARK    3  A    between atoms: C_13  and  C_14
REMARK    4  A    between atoms: C_13  and  C_15
REMARK    5  A    between atoms: C_18  and  C_19
REMARK    6  A    between atoms: C_27  and  C_28
REMARK    7  A    between atoms: C_28  and  N_29
REMARK                            x       y       z     vdW  Elec       q    Type
REMARK                         _______ _______ _______ _____ _____    ______ ____
ROOT
ATOM      1  C   UNL     1       1.423  15.939  22.251  0.00  0.00    +0.000 C 
ATOM      2  C   UNL     1       0.510  14.881  21.666  0.00  0.00    +0.000 A 
ATOM      3  N   UNL     1      -0.755  15.158  21.707  0.00  0.00    +0.000 NA
ATOM      4  C   UNL     1      -1.607  14.233  21.205  0.00  0.00    +0.000 A 
ATOM      5  N   UNL     1      -2.908  14.318  21.112  0.00  0.00    +0.000 NA
ATOM      6  C   UNL     1      -3.364  13.172  20.503  0.00  0.00    +0.000 A 
ATOM      7  C   UNL     1      -2.279  12.345  20.255  0.00  0.00    +0.000 A 
ATOM      8  N   UNL     1      -1.158  13.033  20.684  0.00  0.00    +0.000 N 
ATOM      9  C   UNL     1       0.207  12.713  20.633  0.00  0.00    +0.000 A 
ATOM     10  C   UNL     1       1.116  13.611  21.098  0.00  0.00    +0.000 A 
ENDROOT
BRANCH   6  11
ATOM     11  C   UNL     1      -4.794  12.907  20.219  0.00  0.00    +0.000 C 
ATOM     12  O   UNL     1      -5.208  12.907  19.058  0.00  0.00    +0.000 OA
ATOM     13  N   UNL     1      -5.644  12.654  21.300  0.00  0.00    +0.000 N 
ATOM     14  C   UNL     1      -5.313  12.893  22.680  0.00  0.00    +0.000 C 
ATOM     15  O   UNL     1      -6.333  12.285  23.469  0.00  0.00    +0.000 OA
ATOM     16  C   UNL     1      -7.495  12.147  22.654  0.00  0.00    +0.000 C 
ATOM     17  C   UNL     1      -7.055  12.294  21.186  0.00  0.00    +0.000 C 
ATOM     18  C   UNL     1      -7.915  13.383  20.533  0.00  0.00    +0.000 C 
ATOM     19  C   UNL     1      -7.255  10.962  20.450  0.00  0.00    +0.000 C 
ENDBRANCH   6  11
BRANCH   9  20
ATOM     20  C   UNL     1       0.637  11.413  20.077  0.00  0.00    +0.000 A 
ATOM     21  C   UNL     1       1.077  11.379  18.743  0.00  0.00    +0.000 A 
ATOM     22  C   UNL     1       1.561  10.193  18.190  0.00  0.00    +0.000 A 
ATOM     23  C   UNL     1       1.602   9.035  18.963  0.00  0.00    +0.000 A 
ATOM     24 CL   UNL     1       2.228   7.583  18.289  0.00  0.00    +0.000 Cl
ATOM     25  C   UNL     1       1.145   9.045  20.280  0.00  0.00    +0.000 A 
ATOM     26  C   UNL     1       0.661  10.230  20.835  0.00  0.00    +0.000 A 
ATOM     27 CL   UNL     1       0.094  10.191  22.467  0.00  0.00    +0.000 Cl
ENDBRANCH   9  20
BRANCH  10  28
ATOM     28  C   UNL     1       2.612  13.487  20.995  0.00  0.00    +0.000 C 
BRANCH  28  29
ATOM     29  N   UNL     1       3.135  14.107  19.784  0.00  0.00    +0.000 NA
ATOM     30  H   UNL     1       2.612  13.780  18.972  0.00  0.00    +0.000 HD
ATOM     31  H   UNL     1       4.091  13.781  19.635  0.00  0.00    +0.000 HD
ENDBRANCH  28  29
ENDBRANCH  10  28
TORSDOF 4
ENDMDL
MODEL 7
REMARK VINA RESULT:      -6.7      1.417      2.312
REMARK  Name = 
REMARK  7 active torsions:
REMARK  status: ('A' for Active; 'I' for Inactive)
REMARK    1  A    between atoms: C_1  and  C_2
REMARK    2  A    between atoms: C_6  and  C_7
REMARK    3  A    between atoms: C_13  and  C_14
REMARK    4  A    between atoms: C_13  and  C_15
REMARK    5  A    between atoms: C_18  and  C_19
REMARK    6  A    between atoms: C_27  and  C_28
REMARK    7  A    between atoms: C_28  and  N_29
REMARK                            x       y       z     vdW  Elec       q    Type
REMARK                         _______ _______ _______ _____ _____    ______ ____
ROOT
ATOM      1  C   UNL     1       2.584   1.622  21.899  0.00  0.00    +0.000 C 
ATOM      2  C   UNL     1       2.680   2.935  21.149  0.00  0.00    +0.000 A 
ATOM      3  N   UNL     1       1.880   3.867  21.562  0.00  0.00    +0.000 NA
ATOM      4  C   UNL     1       1.925   5.054  20.912  0.00  0.00    +0.000 A 
ATOM      5  N   UNL     1       1.238   6.133  21.180  0.00  0.00    +0.000 NA
ATOM      6  C   UNL     1       1.629   7.112  20.295  0.00  0.00    +0.000 A 
ATOM      7  C   UNL     1       2.570   6.573  19.432  0.00  0.00    +0.000 A 
ATOM      8  N   UNL     1       2.772   5.267  19.841  0.00  0.00    +0.000 N 
ATOM      9  C   UNL     1       3.644   4.270  19.376  0.00  0.00    +0.000 A 
ATOM     10  C   UNL     1       3.666   3.065  20.004  0.00  0.00    +0.000 A 
ENDROOT
BRANCH   6  11
ATOM     11  C   UNL     1       1.072   8.485  20.294  0.00  0.00    +0.000 C 
ATOM     12  O   UNL     1       0.286   8.839  21.176  0.00  0.00    +0.000 OA
ATOM     13  N   UNL     1       1.469   9.355  19.274  0.00  0.00    +0.000 N 
ATOM     14  C   UNL     1       2.158   8.958  18.075  0.00  0.00    +0.000 C 
ATOM     15  O   UNL     1       2.592  10.150  17.424  0.00  0.00    +0.000 OA
ATOM     16  C   UNL     1       1.775  11.224  17.884  0.00  0.00    +0.000 C 
ATOM     17  C   UNL     1       1.080  10.761  19.177  0.00  0.00    +0.000 C 
ATOM     18  C   UNL     1      -0.431  10.968  19.011  0.00  0.00    +0.000 C 
ATOM     19  C   UNL     1       1.591  11.586  20.364  0.00  0.00    +0.000 C 
ENDBRANCH   6  11
BRANCH   9  20
ATOM     20  C   UNL     1       4.524   4.544  18.221  0.00  0.00    +0.000 A 
ATOM     21  C   UNL     1       5.760   5.165  18.465  0.00  0.00    +0.000 A 
ATOM     22  C   UNL     1       6.660   5.381  17.420  0.00  0.00    +0.000 A 
ATOM     23  C   UNL     1       6.326   4.984  16.126  0.00  0.00    +0.000 A 
ATOM     24 CL   UNL     1       7.448   5.223  14.846  0.00  0.00    +0.000 Cl
ATOM     25  C   UNL     1       5.093   4.391  15.862  0.00  0.00    +0.000 A 
ATOM     26  C   UNL     1       4.192   4.174  16.906  0.00  0.00    +0.000 A 
ATOM     27 CL   UNL     1       2.670   3.446  16.529  0.00  0.00    +0.000 Cl
ENDBRANCH   9  20
BRANCH  10  28
ATOM     28  C   UNL     1       4.627   1.942  19.724  0.00  0.00    +0.000 C 
BRANCH  28  29
ATOM     29  N   UNL     1       4.136   1.039  18.690  0.00  0.00    +0.000 NA
ATOM     30  H   UNL     1       3.117   1.024  18.698  0.00  0.00    +0.000 HD
ATOM     31  H   UNL     1       4.419   0.087  18.924  0.00  0.00    +0.000 HD
ENDBRANCH  28  29
ENDBRANCH  10  28
TORSDOF 4
ENDMDL
MODEL 8
REMARK VINA RESULT:      -6.7      4.689      7.561
REMARK  Name = 
REMARK  7 active torsions:
REMARK  status: ('A' for Active; 'I' for Inactive)
REMARK    1  A    between atoms: C_1  and  C_2
REMARK    2  A    between atoms: C_6  and  C_7
REMARK    3  A    between atoms: C_13  and  C_14
REMARK    4  A    between atoms: C_13  and  C_15
REMARK    5  A    between atoms: C_18  and  C_19
REMARK    6  A    between atoms: C_27  and  C_28
REMARK    7  A    between atoms: C_28  and  N_29
REMARK                            x       y       z     vdW  Elec       q    Type
REMARK                         _______ _______ _______ _____ _____    ______ ____
ROOT
ATOM      1  C   UNL     1      -3.604  12.330  19.161  0.00  0.00    +0.000 C 
ATOM      2  C   UNL     1      -2.117  12.241  19.439  0.00  0.00    +0.000 A 
ATOM      3  N   UNL     1      -1.574  13.327  19.894  0.00  0.00    +0.000 NA
ATOM      4  C   UNL     1      -0.244  13.295  20.145  0.00  0.00    +0.000 A 
ATOM      5  N   UNL     1       0.495  14.254  20.637  0.00  0.00    +0.000 NA
ATOM      6  C   UNL     1       1.779  13.774  20.764  0.00  0.00    +0.000 A 
ATOM      7  C   UNL     1       1.810  12.473  20.286  0.00  0.00    +0.000 A 
ATOM      8  N   UNL     1       0.515  12.163  19.913  0.00  0.00    +0.000 N 
ATOM      9  C   UNL     1      -0.053  10.979  19.417  0.00  0.00    +0.000 A 
ATOM     10  C   UNL     1      -1.389  10.938  19.170  0.00  0.00    +0.000 A 
ENDROOT
BRANCH   6  11
ATOM     11  C   UNL     1       2.905  14.578  21.296  0.00  0.00    +0.000 C 
ATOM     12  O   UNL     1       3.155  14.575  22.504  0.00  0.00    +0.000 OA
ATOM     13  N   UNL     1       3.667  15.322  20.391  0.00  0.00    +0.000 N 
ATOM     14  C   UNL     1       3.294  15.593  19.028  0.00  0.00    +0.000 C 
ATOM     15  O   UNL     1       4.433  16.161  18.385  0.00  0.00    +0.000 OA
ATOM     16  C   UNL     1       5.279  16.709  19.393  0.00  0.00    +0.000 C 
ATOM     17  C   UNL     1       4.857  16.095  20.740  0.00  0.00    +0.000 C 
ATOM     18  C   UNL     1       4.578  17.239  21.724  0.00  0.00    +0.000 C 
ATOM     19  C   UNL     1       5.986  15.208  21.281  0.00  0.00    +0.000 C 
ENDBRANCH   6  11
BRANCH   9  20
ATOM     20  C   UNL     1       0.803   9.799  19.175  0.00  0.00    +0.000 A 
ATOM     21  C   UNL     1       1.389   9.658  17.906  0.00  0.00    +0.000 A 
ATOM     22  C   UNL     1       2.264   8.602  17.646  0.00  0.00    +0.000 A 
ATOM     23  C   UNL     1       2.551   7.678  18.649  0.00  0.00    +0.000 A 
ATOM     24 CL   UNL     1       3.652   6.396  18.336  0.00  0.00    +0.000 Cl
ATOM     25  C   UNL     1       1.957   7.788  19.905  0.00  0.00    +0.000 A 
ATOM     26  C   UNL     1       1.084   8.844  20.168  0.00  0.00    +0.000 A 
ATOM     27 CL   UNL     1       0.362   8.933  21.736  0.00  0.00    +0.000 Cl
ENDBRANCH   9  20
BRANCH  10  28
ATOM     28  C   UNL     1      -2.175   9.721  18.769  0.00  0.00    +0.000 C 
BRANCH  28  29
ATOM     29  N   UNL     1      -2.400   9.657  17.330  0.00  0.00    +0.000 NA
ATOM     30  H   UNL     1      -2.017   8.788  16.957  0.00  0.00    +0.000 HD
ATOM     31  H   UNL     1      -1.863  10.400  16.881  0.00  0.00    +0.000 HD
ENDBRANCH  28  29
ENDBRANCH  10  28
TORSDOF 4
ENDMDL
MODEL 9
REMARK VINA RESULT:      -6.7      7.982     10.366
REMARK  Name = 
REMARK  7 active torsions:
REMARK  status: ('A' for Active; 'I' for Inactive)
REMARK    1  A    between atoms: C_1  and  C_2
REMARK    2  A    between atoms: C_6  and  C_7
REMARK    3  A    between atoms: C_13  and  C_14
REMARK    4  A    between atoms: C_13  and  C_15
REMARK    5  A    between atoms: C_18  and  C_19
REMARK    6  A    between atoms: C_27  and  C_28
REMARK    7  A    between atoms: C_28  and  N_29
REMARK                            x       y       z     vdW  Elec       q    Type
REMARK                         _______ _______ _______ _____ _____    ______ ____
ROOT
ATOM      1  C   UNL     1      11.020  18.382  18.468  0.00  0.00    +0.000 C 
ATOM      2  C   UNL     1       9.815  17.481  18.643  0.00  0.00    +0.000 A 
ATOM      3  N   UNL     1       8.681  18.095  18.771  0.00  0.00    +0.000 NA
ATOM      4  C   UNL     1       7.578  17.328  18.941  0.00  0.00    +0.000 A 
ATOM      5  N   UNL     1       6.339  17.731  19.054  0.00  0.00    +0.000 NA
ATOM      6  C   UNL     1       5.542  16.615  19.168  0.00  0.00    +0.000 A 
ATOM      7  C   UNL     1       6.355  15.492  19.162  0.00  0.00    +0.000 A 
ATOM      8  N   UNL     1       7.650  15.948  18.995  0.00  0.00    +0.000 N 
ATOM      9  C   UNL     1       8.868  15.265  18.861  0.00  0.00    +0.000 A 
ATOM     10  C   UNL     1      10.009  15.977  18.662  0.00  0.00    +0.000 A 
ENDROOT
BRANCH   6  11
ATOM     11  C   UNL     1       4.068  16.672  19.310  0.00  0.00    +0.000 C 
ATOM     12  O   UNL     1       3.383  17.240  18.456  0.00  0.00    +0.000 OA
ATOM     13  N   UNL     1       3.490  16.061  20.426  0.00  0.00    +0.000 N 
ATOM     14  C   UNL     1       4.214  15.617  21.589  0.00  0.00    +0.000 C 
ATOM     15  O   UNL     1       3.312  14.842  22.375  0.00  0.00    +0.000 OA
ATOM     16  C   UNL     1       1.983  15.218  22.019  0.00  0.00    +0.000 C 
ATOM     17  C   UNL     1       2.053  15.955  20.670  0.00  0.00    +0.000 C 
ATOM     18  C   UNL     1       1.355  17.313  20.826  0.00  0.00    +0.000 C 
ATOM     19  C   UNL     1       1.343  15.127  19.590  0.00  0.00    +0.000 C 
ENDBRANCH   6  11
BRANCH   9  20
ATOM     20  C   UNL     1       8.895  13.789  18.937  0.00  0.00    +0.000 A 
ATOM     21  C   UNL     1       8.559  13.064  17.782  0.00  0.00    +0.000 A 
ATOM     22  C   UNL     1       8.637  11.670  17.776  0.00  0.00    +0.000 A 
ATOM     23  C   UNL     1       9.044  10.995  18.925  0.00  0.00    +0.000 A 
ATOM     24 CL   UNL     1       9.170   9.281  18.907  0.00  0.00    +0.000 Cl
ATOM     25  C   UNL     1       9.356  11.698  20.088  0.00  0.00    +0.000 A 
ATOM     26  C   UNL     1       9.279  13.091  20.095  0.00  0.00    +0.000 A 
ATOM     27 CL   UNL     1       9.663  13.920  21.563  0.00  0.00    +0.000 Cl
ENDBRANCH   9  20
BRANCH  10  28
ATOM     28  C   UNL     1      11.367  15.403  18.366  0.00  0.00    +0.000 C 
BRANCH  28  29
ATOM     29  N   UNL     1      11.576  15.185  16.939  0.00  0.00    +0.000 NA
ATOM     30  H   UNL     1      11.275  16.006  16.415  0.00  0.00    +0.000 HD
ATOM     31  H   UNL     1      10.963  14.430  16.630  0.00  0.00    +0.000 HD
ENDBRANCH  28  29
ENDBRANCH  10  28
TORSDOF 4
ENDMDL
