MODEL 1
REMARK VINA RESULT:      -6.9      0.000      0.000
REMARK  Name = 
REMARK  6 active torsions:
REMARK  status: ('A' for Active; 'I' for Inactive)
REMARK    1  A    between atoms: C_5  and  C_6
REMARK    2  A    between atoms: C_6  and  N_7
REMARK    3  A    between atoms: N_7  and  C_8
REMARK    4  A    between atoms: C_8  and  C_9
REMARK    5  A    between atoms: C_9  and  C_10
REMARK    6  A    between atoms: C_12  and  C_13
REMARK                            x       y       z     vdW  Elec       q    Type
REMARK                         _______ _______ _______ _____ _____    ______ ____
ROOT
ATOM      1  C   UNL     1       4.152   2.372  19.470  0.00  0.00    +0.000 C 
ENDROOT
BRANCH   1   2
ATOM      2  N   UNL     1       5.271   3.312  19.348  0.00  0.00    +0.000 NA
ATOM      3  H   UNL     1       5.134   4.091  19.993  0.00  0.00    +0.000 HD
BRANCH   2   4
ATOM      4  C   UNL     1       5.374   3.843  17.988  0.00  0.00    +0.000 C 
BRANCH   4   9
ATOM      5 CL   UNL     1       8.449   9.040  17.939  0.00  0.00    +0.000 Cl
ATOM      6  C   UNL     1       7.580   7.554  17.944  0.00  0.00    +0.000 A 
ATOM      7  C   UNL     1       6.488   7.388  17.098  0.00  0.00    +0.000 A 
ATOM      8  C   UNL     1       5.780   6.184  17.107  0.00  0.00    +0.000 A 
ATOM      9  C   UNL     1       6.161   5.136  17.961  0.00  0.00    +0.000 A 
ATOM     10  C   UNL     1       7.265   5.320  18.808  0.00  0.00    +0.000 A 
ATOM     11  C   UNL     1       7.973   6.527  18.799  0.00  0.00    +0.000 A 
ENDBRANCH   4   9
ENDBRANCH   2   4
ENDBRANCH   1   2
BRANCH   1  12
ATOM     12  C   UNL     1       3.518   2.126  18.093  0.00  0.00    +0.000 C 
BRANCH  12  13
ATOM     13  C   UNL     1       2.029   2.304  18.119  0.00  0.00    +0.000 C 
ATOM     14  C   UNL     1       1.315   2.347  19.431  0.00  0.00    +0.000 C 
ATOM     15  C   UNL     1       1.277   3.563  18.525  0.00  0.00    +0.000 C 
BRANCH  15  16
ATOM     16  C   UNL     1       1.894   4.850  19.038  0.00  0.00    +0.000 A 
ATOM     17  C   UNL     1       2.056   5.276  20.335  0.00  0.00    +0.000 A 
ATOM     18  N   UNL     1       2.591   6.533  20.232  0.00  0.00    +0.000 N 
ATOM     19  C   UNL     1       2.718   6.819  18.904  0.00  0.00    +0.000 A 
ATOM     20  N   UNL     1       2.310   5.820  18.158  0.00  0.00    +0.000 NA
ATOM     21  H   UNL     1       2.825   7.152  20.996  0.00  0.00    +0.000 HD
ENDBRANCH  15  16
ENDBRANCH  12  13
ENDBRANCH   1  12
TORSDOF 6
ENDMDL
MODEL 2
REMARK VINA RESULT:      -6.7      1.209      1.848
REMARK  Name = 
REMARK  6 active torsions:
REMARK  status: ('A' for Active; 'I' for Inactive)
REMARK    1  A    between atoms: C_5  and  C_6
REMARK    2  A    between atoms: C_6  and  N_7
REMARK    3  A    between atoms: N_7  and  C_8
REMARK    4  A    between atoms: C_8  and  C_9
REMARK    5  A    between atoms: C_9  and  C_10
REMARK    6  A    between atoms: C_12  and  C_13
REMARK                            x       y       z     vdW  Elec       q    Type
REMARK                         _______ _______ _______ _____ _____    ______ ____
ROOT
ATOM      1  C   UNL     1       3.375   1.690  18.454  0.00  0.00    +0.000 C 
ENDROOT
BRANCH   1   2
ATOM      2  N   UNL     1       4.449   2.311  17.673  0.00  0.00    +0.000 NA
ATOM      3  H   UNL     1       5.231   2.536  18.288  0.00  0.00    +0.000 HD
BRANCH   2   4
ATOM      4  C   UNL     1       3.993   3.541  17.025  0.00  0.00    +0.000 C 
BRANCH   4   9
ATOM      5 CL   UNL     1       7.984   8.004  17.805  0.00  0.00    +0.000 Cl
ATOM      6  C   UNL     1       6.839   6.736  17.591  0.00  0.00    +0.000 A 
ATOM      7  C   UNL     1       6.980   5.550  18.305  0.00  0.00    +0.000 A 
ATOM      8  C   UNL     1       6.054   4.520  18.127  0.00  0.00    +0.000 A 
ATOM      9  C   UNL     1       4.978   4.670  17.235  0.00  0.00    +0.000 A 
ATOM     10  C   UNL     1       4.852   5.873  16.524  0.00  0.00    +0.000 A 
ATOM     11  C   UNL     1       5.781   6.905  16.702  0.00  0.00    +0.000 A 
ENDBRANCH   4   9
ENDBRANCH   2   4
ENDBRANCH   1   2
BRANCH   1  12
ATOM     12  C   UNL     1       3.189   2.435  19.783  0.00  0.00    +0.000 C 
BRANCH  12  13
ATOM     13  C   UNL     1       1.741   2.591  20.144  0.00  0.00    +0.000 C 
ATOM     14  C   UNL     1       1.371   3.074  21.509  0.00  0.00    +0.000 C 
ATOM     15  C   UNL     1       0.985   3.902  20.298  0.00  0.00    +0.000 C 
BRANCH  15  16
ATOM     16  C   UNL     1       1.571   5.296  20.175  0.00  0.00    +0.000 A 
ATOM     17  C   UNL     1       1.536   6.333  21.078  0.00  0.00    +0.000 A 
ATOM     18  N   UNL     1       2.141   7.381  20.438  0.00  0.00    +0.000 N 
ATOM     19  C   UNL     1       2.503   6.952  19.194  0.00  0.00    +0.000 A 
ATOM     20  N   UNL     1       2.175   5.695  19.008  0.00  0.00    +0.000 NA
ATOM     21  H   UNL     1       2.276   8.314  20.804  0.00  0.00    +0.000 HD
ENDBRANCH  15  16
ENDBRANCH  12  13
ENDBRANCH   1  12
TORSDOF 6
ENDMDL
MODEL 3
REMARK VINA RESULT:      -6.7      3.200      4.168
REMARK  Name = 
REMARK  6 active torsions:
REMARK  status: ('A' for Active; 'I' for Inactive)
REMARK    1  A    between atoms: C_5  and  C_6
REMARK    2  A    between atoms: C_6  and  N_7
REMARK    3  A    between atoms: N_7  and  C_8
REMARK    4  A    between atoms: C_8  and  C_9
REMARK    5  A    between atoms: C_9  and  C_10
REMARK    6  A    between atoms: C_12  and  C_13
REMARK                            x       y       z     vdW  Elec       q    Type
REMARK                         _______ _______ _______ _____ _____    ______ ____
ROOT
ATOM      1  C   UNL     1       6.492   5.022  19.337  0.00  0.00    +0.000 C 
ENDROOT
BRANCH   1   2
ATOM      2  N   UNL     1       7.218   4.507  18.172  0.00  0.00    +0.000 NA
ATOM      3  H   UNL     1       8.171   4.263  18.444  0.00  0.00    +0.000 HD
BRANCH   2   4
ATOM      4  C   UNL     1       7.276   5.500  17.099  0.00  0.00    +0.000 C 
BRANCH   4   9
ATOM      5 CL   UNL     1       5.458   3.104  11.863  0.00  0.00    +0.000 Cl
ATOM      6  C   UNL     1       5.969   3.797  13.354  0.00  0.00    +0.000 A 
ATOM      7  C   UNL     1       7.085   4.627  13.384  0.00  0.00    +0.000 A 
ATOM      8  C   UNL     1       7.503   5.184  14.596  0.00  0.00    +0.000 A 
ATOM      9  C   UNL     1       6.804   4.917  15.785  0.00  0.00    +0.000 A 
ATOM     10  C   UNL     1       5.680   4.078  15.736  0.00  0.00    +0.000 A 
ATOM     11  C   UNL     1       5.264   3.519  14.522  0.00  0.00    +0.000 A 
ENDBRANCH   4   9
ENDBRANCH   2   4
ENDBRANCH   1   2
BRANCH   1  12
ATOM     12  C   UNL     1       5.020   4.592  19.274  0.00  0.00    +0.000 C 
BRANCH  12  13
ATOM     13  C   UNL     1       4.099   5.761  19.081  0.00  0.00    +0.000 C 
ATOM     14  C   UNL     1       3.292   5.865  17.828  0.00  0.00    +0.000 C 
ATOM     15  C   UNL     1       2.580   5.738  19.161  0.00  0.00    +0.000 C 
BRANCH  15  16
ATOM     16  C   UNL     1       1.713   4.515  19.389  0.00  0.00    +0.000 A 
ATOM     17  C   UNL     1       1.085   4.101  20.541  0.00  0.00    +0.000 A 
ATOM     18  N   UNL     1       0.504   2.904  20.218  0.00  0.00    +0.000 N 
ATOM     19  C   UNL     1       0.805   2.638  18.913  0.00  0.00    +0.000 A 
ATOM     20  N   UNL     1       1.529   3.596  18.385  0.00  0.00    +0.000 NA
ATOM     21  H   UNL     1      -0.030   2.307  20.835  0.00  0.00    +0.000 HD
ENDBRANCH  15  16
ENDBRANCH  12  13
ENDBRANCH   1  12
TORSDOF 6
ENDMDL
MODEL 4
REMARK VINA RESULT:      -6.7      2.984      5.501
REMARK  Name = 
REMARK  6 active torsions:
REMARK  status: ('A' for Active; 'I' for Inactive)
REMARK    1  A    between atoms: C_5  and  C_6
REMARK    2  A    between atoms: C_6  and  N_7
REMARK    3  A    between atoms: N_7  and  C_8
REMARK    4  A    between atoms: C_8  and  C_9
REMARK    5  A    between atoms: C_9  and  C_10
REMARK    6  A    between atoms: C_12  and  C_13
REMARK                            x       y       z     vdW  Elec       q    Type
REMARK                         _______ _______ _______ _____ _____    ______ ____
ROOT
ATOM      1  C   UNL     1       4.052   4.292  18.510  0.00  0.00    +0.000 C 
ENDROOT
BRANCH   1   2
ATOM      2  N   UNL     1       4.067   5.485  19.362  0.00  0.00    +0.000 NA
ATOM      3  H   UNL     1       4.778   5.378  20.086  0.00  0.00    +0.000 HD
BRANCH   2   4
ATOM      4  C   UNL     1       2.770   5.696  20.005  0.00  0.00    +0.000 C 
BRANCH   4   9
ATOM      5 CL   UNL     1       0.588  11.172  18.692  0.00  0.00    +0.000 Cl
ATOM      6  C   UNL     1       1.200   9.606  19.063  0.00  0.00    +0.000 A 
ATOM      7  C   UNL     1       1.033   9.083  20.342  0.00  0.00    +0.000 A 
ATOM      8  C   UNL     1       1.535   7.814  20.644  0.00  0.00    +0.000 A 
ATOM      9  C   UNL     1       2.204   7.058  19.666  0.00  0.00    +0.000 A 
ATOM     10  C   UNL     1       2.362   7.601  18.382  0.00  0.00    +0.000 A 
ATOM     11  C   UNL     1       1.861   8.873  18.081  0.00  0.00    +0.000 A 
ENDBRANCH   4   9
ENDBRANCH   2   4
ENDBRANCH   1   2
BRANCH   1  12
ATOM     12  C   UNL     1       4.177   4.696  17.034  0.00  0.00    +0.000 C 
BRANCH  12  13
ATOM     13  C   UNL     1       5.340   4.026  16.363  0.00  0.00    +0.000 C 
ATOM     14  C   UNL     1       6.038   4.715  15.236  0.00  0.00    +0.000 C 
ATOM     15  C   UNL     1       6.806   4.406  16.506  0.00  0.00    +0.000 C 
BRANCH  15  16
ATOM     16  C   UNL     1       7.358   5.571  17.305  0.00  0.00    +0.000 A 
ATOM     17  C   UNL     1       7.757   5.607  18.620  0.00  0.00    +0.000 A 
ATOM     18  N   UNL     1       8.093   6.915  18.853  0.00  0.00    +0.000 N 
ATOM     19  C   UNL     1       7.878   7.608  17.697  0.00  0.00    +0.000 A 
ATOM     20  N   UNL     1       7.439   6.822  16.743  0.00  0.00    +0.000 NA
ATOM     21  H   UNL     1       8.417   7.307  19.726  0.00  0.00    +0.000 HD
ENDBRANCH  15  16
ENDBRANCH  12  13
ENDBRANCH   1  12
TORSDOF 6
ENDMDL
MODEL 5
REMARK VINA RESULT:      -6.6      2.660      4.889
REMARK  Name = 
REMARK  6 active torsions:
REMARK  status: ('A' for Active; 'I' for Inactive)
REMARK    1  A    between atoms: C_5  and  C_6
REMARK    2  A    between atoms: C_6  and  N_7
REMARK    3  A    between atoms: N_7  and  C_8
REMARK    4  A    between atoms: C_8  and  C_9
REMARK    5  A    between atoms: C_9  and  C_10
REMARK    6  A    between atoms: C_12  and  C_13
REMARK                            x       y       z     vdW  Elec       q    Type
REMARK                         _______ _______ _______ _____ _____    ______ ____
ROOT
ATOM      1  C   UNL     1       2.065   4.321  21.151  0.00  0.00    +0.000 C 
ENDROOT
BRANCH   1   2
ATOM      2  N   UNL     1       2.287   5.766  21.044  0.00  0.00    +0.000 NA
ATOM      3  H   UNL     1       1.480   6.264  21.419  0.00  0.00    +0.000 HD
BRANCH   2   4
ATOM      4  C   UNL     1       2.483   6.172  19.651  0.00  0.00    +0.000 C 
BRANCH   4   9
ATOM      5 CL   UNL     1       0.573  11.829  18.748  0.00  0.00    +0.000 Cl
ATOM      6  C   UNL     1       1.107  10.212  19.002  0.00  0.00    +0.000 A 
ATOM      7  C   UNL     1       0.957   9.623  20.254  0.00  0.00    +0.000 A 
ATOM      8  C   UNL     1       1.396   8.313  20.461  0.00  0.00    +0.000 A 
ATOM      9  C   UNL     1       1.984   7.581  19.415  0.00  0.00    +0.000 A 
ATOM     10  C   UNL     1       2.127   8.191  18.159  0.00  0.00    +0.000 A 
ATOM     11  C   UNL     1       1.688   9.504  17.954  0.00  0.00    +0.000 A 
ENDBRANCH   4   9
ENDBRANCH   2   4
ENDBRANCH   1   2
BRANCH   1  12
ATOM     12  C   UNL     1       1.442   3.785  19.854  0.00  0.00    +0.000 C 
BRANCH  12  13
ATOM     13  C   UNL     1       2.041   2.473  19.442  0.00  0.00    +0.000 C 
ATOM     14  C   UNL     1       2.101   2.114  17.993  0.00  0.00    +0.000 C 
ATOM     15  C   UNL     1       3.392   2.267  18.774  0.00  0.00    +0.000 C 
BRANCH  15  16
ATOM     16  C   UNL     1       4.356   3.356  18.346  0.00  0.00    +0.000 A 
ATOM     17  C   UNL     1       4.527   3.923  17.105  0.00  0.00    +0.000 A 
ATOM     18  N   UNL     1       5.574   4.794  17.253  0.00  0.00    +0.000 N 
ATOM     19  C   UNL     1       5.997   4.714  18.548  0.00  0.00    +0.000 A 
ATOM     20  N   UNL     1       5.277   3.858  19.234  0.00  0.00    +0.000 NA
ATOM     21  H   UNL     1       5.983   5.373  16.532  0.00  0.00    +0.000 HD
ENDBRANCH  15  16
ENDBRANCH  12  13
ENDBRANCH   1  12
TORSDOF 6
ENDMDL
MODEL 6
REMARK VINA RESULT:      -6.5      1.868      3.495
REMARK  Name = 
REMARK  6 active torsions:
REMARK  status: ('A' for Active; 'I' for Inactive)
REMARK    1  A    between atoms: C_5  and  C_6
REMARK    2  A    between atoms: C_6  and  N_7
REMARK    3  A    between atoms: N_7  and  C_8
REMARK    4  A    between atoms: C_8  and  C_9
REMARK    5  A    between atoms: C_9  and  C_10
REMARK    6  A    between atoms: C_12  and  C_13
REMARK                            x       y       z     vdW  Elec       q    Type
REMARK                         _______ _______ _______ _____ _____    ______ ____
ROOT
ATOM      1  C   UNL     1       1.489   5.976  20.889  0.00  0.00    +0.000 C 
ENDROOT
BRANCH   1   2
ATOM      2  N   UNL     1       2.414   6.938  20.281  0.00  0.00    +0.000 NA
ATOM      3  H   UNL     1       2.093   7.887  20.470  0.00  0.00    +0.000 HD
BRANCH   2   4
ATOM      4  C   UNL     1       2.498   6.751  18.832  0.00  0.00    +0.000 C 
BRANCH   4   9
ATOM      5 CL   UNL     1       7.853   4.457  17.242  0.00  0.00    +0.000 Cl
ATOM      6  C   UNL     1       6.321   5.101  17.692  0.00  0.00    +0.000 A 
ATOM      7  C   UNL     1       5.535   5.745  16.742  0.00  0.00    +0.000 A 
ATOM      8  C   UNL     1       4.294   6.273  17.110  0.00  0.00    +0.000 A 
ATOM      9  C   UNL     1       3.830   6.155  18.431  0.00  0.00    +0.000 A 
ATOM     10  C   UNL     1       4.636   5.501  19.376  0.00  0.00    +0.000 A 
ATOM     11  C   UNL     1       5.879   4.975  19.007  0.00  0.00    +0.000 A 
ENDBRANCH   4   9
ENDBRANCH   2   4
ENDBRANCH   1   2
BRANCH   1  12
ATOM     12  C   UNL     1       2.219   4.659  21.189  0.00  0.00    +0.000 C 
BRANCH  12  13
ATOM     13  C   UNL     1       1.324   3.467  21.016  0.00  0.00    +0.000 C 
ATOM     14  C   UNL     1       0.337   3.444  19.895  0.00  0.00    +0.000 C 
ATOM     15  C   UNL     1       1.438   2.401  19.937  0.00  0.00    +0.000 C 
BRANCH  15  16
ATOM     16  C   UNL     1       2.440   2.380  18.799  0.00  0.00    +0.000 A 
ATOM     17  C   UNL     1       3.731   1.908  18.791  0.00  0.00    +0.000 A 
ATOM     18  N   UNL     1       4.209   2.202  17.542  0.00  0.00    +0.000 N 
ATOM     19  C   UNL     1       3.213   2.838  16.858  0.00  0.00    +0.000 A 
ATOM     20  N   UNL     1       2.131   2.955  17.590  0.00  0.00    +0.000 NA
ATOM     21  H   UNL     1       5.138   2.010  17.191  0.00  0.00    +0.000 HD
ENDBRANCH  15  16
ENDBRANCH  12  13
ENDBRANCH   1  12
TORSDOF 6
ENDMDL
MODEL 7
REMARK VINA RESULT:      -6.5      0.891      1.107
REMARK  Name = 
REMARK  6 active torsions:
REMARK  status: ('A' for Active; 'I' for Inactive)
REMARK    1  A    between atoms: C_5  and  C_6
REMARK    2  A    between atoms: C_6  and  N_7
REMARK    3  A    between atoms: N_7  and  C_8
REMARK    4  A    between atoms: C_8  and  C_9
REMARK    5  A    between atoms: C_9  and  C_10
REMARK    6  A    between atoms: C_12  and  C_13
REMARK                            x       y       z     vdW  Elec       q    Type
REMARK                         _______ _______ _______ _____ _____    ______ ____
ROOT
ATOM      1  C   UNL     1       3.877   2.382  18.750  0.00  0.00    +0.000 C 
ENDROOT
BRANCH   1   2
ATOM      2  N   UNL     1       5.123   3.148  18.655  0.00  0.00    +0.000 NA
ATOM      3  H   UNL     1       5.185   3.799  19.438  0.00  0.00    +0.000 HD
BRANCH   2   4
ATOM      4  C   UNL     1       5.187   3.909  17.406  0.00  0.00    +0.000 C 
BRANCH   4   9
ATOM      5 CL   UNL     1       8.423   8.955  18.129  0.00  0.00    +0.000 Cl
ATOM      6  C   UNL     1       7.508   7.513  17.913  0.00  0.00    +0.000 A 
ATOM      7  C   UNL     1       6.383   7.524  17.095  0.00  0.00    +0.000 A 
ATOM      8  C   UNL     1       5.636   6.355  16.926  0.00  0.00    +0.000 A 
ATOM      9  C   UNL     1       6.014   5.165  17.571  0.00  0.00    +0.000 A 
ATOM     10  C   UNL     1       7.151   5.173  18.392  0.00  0.00    +0.000 A 
ATOM     11  C   UNL     1       7.897   6.345  18.563  0.00  0.00    +0.000 A 
ENDBRANCH   4   9
ENDBRANCH   2   4
ENDBRANCH   1   2
BRANCH   1  12
ATOM     12  C   UNL     1       3.387   2.350  20.205  0.00  0.00    +0.000 C 
BRANCH  12  13
ATOM     13  C   UNL     1       1.896   2.488  20.300  0.00  0.00    +0.000 C 
ATOM     14  C   UNL     1       1.288   3.082  21.529  0.00  0.00    +0.000 C 
ATOM     15  C   UNL     1       1.100   3.780  20.197  0.00  0.00    +0.000 C 
BRANCH  15  16
ATOM     16  C   UNL     1       1.672   5.176  20.039  0.00  0.00    +0.000 A 
ATOM     17  C   UNL     1       1.589   6.248  20.897  0.00  0.00    +0.000 A 
ATOM     18  N   UNL     1       2.205   7.278  20.238  0.00  0.00    +0.000 N 
ATOM     19  C   UNL     1       2.620   6.804  19.027  0.00  0.00    +0.000 A 
ATOM     20  N   UNL     1       2.316   5.537  18.880  0.00  0.00    +0.000 NA
ATOM     21  H   UNL     1       2.314   8.227  20.571  0.00  0.00    +0.000 HD
ENDBRANCH  15  16
ENDBRANCH  12  13
ENDBRANCH   1  12
TORSDOF 6
ENDMDL
MODEL 8
REMARK VINA RESULT:      -6.5      2.287      4.472
REMARK  Name = 
REMARK  6 active torsions:
REMARK  status: ('A' for Active; 'I' for Inactive)
REMARK    1  A    between atoms: C_5  and  C_6
REMARK    2  A    between atoms: C_6  and  N_7
REMARK    3  A    between atoms: N_7  and  C_8
REMARK    4  A    between atoms: C_8  and  C_9
REMARK    5  A    between atoms: C_9  and  C_10
REMARK    6  A    between atoms: C_12  and  C_13
REMARK                            x       y       z     vdW  Elec       q    Type
REMARK                         _______ _______ _______ _____ _____    ______ ____
ROOT
ATOM      1  C   UNL     1       1.267   2.661  20.464  0.00  0.00    +0.000 C 
ENDROOT
BRANCH   1   2
ATOM      2  N   UNL     1       0.800   4.051  20.468  0.00  0.00    +0.000 NA
ATOM      3  H   UNL     1       0.594   4.345  19.513  0.00  0.00    +0.000 HD
BRANCH   2   4
ATOM      4  C   UNL     1       1.810   4.950  21.029  0.00  0.00    +0.000 C 
BRANCH   4   9
ATOM      5 CL   UNL     1       1.980  10.121  17.915  0.00  0.00    +0.000 Cl
ATOM      6  C   UNL     1       1.943   8.649  18.807  0.00  0.00    +0.000 A 
ATOM      7  C   UNL     1       2.396   7.472  18.219  0.00  0.00    +0.000 A 
ATOM      8  C   UNL     1       2.359   6.277  18.941  0.00  0.00    +0.000 A 
ATOM      9  C   UNL     1       1.873   6.252  20.259  0.00  0.00    +0.000 A 
ATOM     10  C   UNL     1       1.421   7.448  20.837  0.00  0.00    +0.000 A 
ATOM     11  C   UNL     1       1.456   8.644  20.111  0.00  0.00    +0.000 A 
ENDBRANCH   4   9
ENDBRANCH   2   4
ENDBRANCH   1   2
BRANCH   1  12
ATOM     12  C   UNL     1       2.761   2.608  20.113  0.00  0.00    +0.000 C 
BRANCH  12  13
ATOM     13  C   UNL     1       2.995   2.091  18.724  0.00  0.00    +0.000 C 
ATOM     14  C   UNL     1       2.460   2.852  17.555  0.00  0.00    +0.000 C 
ATOM     15  C   UNL     1       3.959   2.666  17.697  0.00  0.00    +0.000 C 
BRANCH  15  16
ATOM     16  C   UNL     1       4.815   3.906  17.866  0.00  0.00    +0.000 A 
ATOM     17  C   UNL     1       4.960   4.981  17.020  0.00  0.00    +0.000 A 
ATOM     18  N   UNL     1       5.906   5.774  17.612  0.00  0.00    +0.000 N 
ATOM     19  C   UNL     1       6.299   5.157  18.765  0.00  0.00    +0.000 A 
ATOM     20  N   UNL     1       5.654   4.029  18.947  0.00  0.00    +0.000 NA
ATOM     21  H   UNL     1       6.271   6.646  17.254  0.00  0.00    +0.000 HD
ENDBRANCH  15  16
ENDBRANCH  12  13
ENDBRANCH   1  12
TORSDOF 6
ENDMDL
MODEL 9
REMARK VINA RESULT:      -6.4      1.139      1.585
REMARK  Name = 
REMARK  6 active torsions:
REMARK  status: ('A' for Active; 'I' for Inactive)
REMARK    1  A    between atoms: C_5  and  C_6
REMARK    2  A    between atoms: C_6  and  N_7
REMARK    3  A    between atoms: N_7  and  C_8
REMARK    4  A    between atoms: C_8  and  C_9
REMARK    5  A    between atoms: C_9  and  C_10
REMARK    6  A    between atoms: C_12  and  C_13
REMARK                            x       y       z     vdW  Elec       q    Type
REMARK                         _______ _______ _______ _____ _____    ______ ____
ROOT
ATOM      1  C   UNL     1       3.326   1.615  18.624  0.00  0.00    +0.000 C 
ENDROOT
BRANCH   1   2
ATOM      2  N   UNL     1       4.501   2.465  18.409  0.00  0.00    +0.000 NA
ATOM      3  H   UNL     1       4.648   3.057  19.227  0.00  0.00    +0.000 HD
BRANCH   2   4
ATOM      4  C   UNL     1       4.331   3.322  17.235  0.00  0.00    +0.000 C 
BRANCH   4   9
ATOM      5 CL   UNL     1       7.855   8.213  17.581  0.00  0.00    +0.000 Cl
ATOM      6  C   UNL     1       6.858   6.814  17.473  0.00  0.00    +0.000 A 
ATOM      7  C   UNL     1       5.783   6.797  16.590  0.00  0.00    +0.000 A 
ATOM      8  C   UNL     1       4.970   5.663  16.508  0.00  0.00    +0.000 A 
ATOM      9  C   UNL     1       5.230   4.537  17.307  0.00  0.00    +0.000 A 
ATOM     10  C   UNL     1       6.319   4.572  18.192  0.00  0.00    +0.000 A 
ATOM     11  C   UNL     1       7.131   5.709  18.275  0.00  0.00    +0.000 A 
ENDBRANCH   4   9
ENDBRANCH   2   4
ENDBRANCH   1   2
BRANCH   1  12
ATOM     12  C   UNL     1       2.045   2.459  18.550  0.00  0.00    +0.000 C 
BRANCH  12  13
ATOM     13  C   UNL     1       1.404   2.628  19.896  0.00  0.00    +0.000 C 
ATOM     14  C   UNL     1       2.252   2.967  21.078  0.00  0.00    +0.000 C 
ATOM     15  C   UNL     1       1.179   3.942  20.630  0.00  0.00    +0.000 C 
BRANCH  15  16
ATOM     16  C   UNL     1       1.619   5.316  20.164  0.00  0.00    +0.000 A 
ATOM     17  C   UNL     1       2.275   5.671  19.009  0.00  0.00    +0.000 A 
ATOM     18  N   UNL     1       2.497   7.017  19.125  0.00  0.00    +0.000 N 
ATOM     19  C   UNL     1       1.986   7.417  20.327  0.00  0.00    +0.000 A 
ATOM     20  N   UNL     1       1.445   6.413  20.974  0.00  0.00    +0.000 NA
ATOM     21  H   UNL     1       2.974   7.609  18.459  0.00  0.00    +0.000 HD
ENDBRANCH  15  16
ENDBRANCH  12  13
ENDBRANCH   1  12
TORSDOF 6
ENDMDL
