MODEL 1
REMARK VINA RESULT:      -7.6      0.000      0.000
REMARK  Name = 
REMARK  11 active torsions:
REMARK  status: ('A' for Active; 'I' for Inactive)
REMARK    1  A    between atoms: C_2  and  C_4
REMARK    2  A    between atoms: C_4  and  C_5
REMARK    3  A    between atoms: C_4  and  N_13
REMARK    4  A    between atoms: C_5  and  C_6
REMARK    5  A    between atoms: C_9  and  O_10
REMARK    6  A    between atoms: C_14  and  C_16
REMARK    7  A    between atoms: C_16  and  C_17
REMARK    8  A    between atoms: C_16  and  N_27
REMARK    9  A    between atoms: C_17  and  C_18
REMARK   10  A    between atoms: C_28  and  C_30
REMARK   11  A    between atoms: C_30  and  S_31
REMARK                            x       y       z     vdW  Elec       q    Type
REMARK                         _______ _______ _______ _____ _____    ______ ____
ROOT
ATOM      1  N   UNL     1       4.749   5.216  16.524  0.00  0.00    +0.000 N 
ATOM      2  C   UNL     1       4.066   4.498  17.483  0.00  0.00    +0.000 C 
ATOM      3  O   UNL     1       4.425   3.379  17.844  0.00  0.00    +0.000 OA
ATOM      4  H   UNL     1       4.226   5.983  16.123  0.00  0.00    +0.000 HD
ENDROOT
BRANCH   1   5
ATOM      5  C   UNL     1       5.787   4.637  15.657  0.00  0.00    +0.000 C 
BRANCH   5   7
ATOM      6  N   UNL     1       7.779   4.305  17.071  0.00  0.00    +0.000 N 
ATOM      7  C   UNL     1       7.199   5.069  16.094  0.00  0.00    +0.000 C 
ATOM      8  O   UNL     1       7.713   6.132  15.750  0.00  0.00    +0.000 OA
ATOM      9  H   UNL     1       8.736   4.528  17.310  0.00  0.00    +0.000 HD
ATOM     10  H   UNL     1       7.470   3.348  17.188  0.00  0.00    +0.000 HD
ENDBRANCH   5   7
BRANCH   5  11
ATOM     11  C   UNL     1       5.608   5.125  14.200  0.00  0.00    +0.000 C 
BRANCH  11  12
ATOM     12  C   UNL     1       5.886   4.071  13.149  0.00  0.00    +0.000 A 
ATOM     13  C   UNL     1       7.201   3.807  12.732  0.00  0.00    +0.000 A 
ATOM     14  C   UNL     1       7.463   2.825  11.772  0.00  0.00    +0.000 A 
ATOM     15  C   UNL     1       6.408   2.103  11.227  0.00  0.00    +0.000 A 
ATOM     16  C   UNL     1       5.102   2.335  11.641  0.00  0.00    +0.000 A 
ATOM     17  C   UNL     1       4.841   3.311  12.604  0.00  0.00    +0.000 A 
BRANCH  15  18
ATOM     18  O   UNL     1       6.613   1.148  10.277  0.00  0.00    +0.000 OA
ATOM     19  H   UNL     1       6.708   0.286  10.716  0.00  0.00    +0.000 HD
ENDBRANCH  15  18
ENDBRANCH  11  12
ENDBRANCH   5  11
ENDBRANCH   1   5
BRANCH   2  20
ATOM     20  C   UNL     1       2.961   5.311  18.213  0.00  0.00    +0.000 C 
BRANCH  20  21
ATOM     21  N   UNL     1       2.352   4.484  19.272  0.00  0.00    +0.000 N 
ATOM     22  C   UNL     1       1.318   3.605  19.008  0.00  0.00    +0.000 C 
ATOM     23  O   UNL     1       0.892   3.426  17.872  0.00  0.00    +0.000 OA
ATOM     24  H   UNL     1       2.725   4.566  20.210  0.00  0.00    +0.000 HD
BRANCH  22  25
ATOM     25  C   UNL     1       0.824   2.863  20.241  0.00  0.00    +0.000 C 
BRANCH  25  26
ATOM     26  S   UNL     1       1.980   2.997  21.631  0.00  0.00    +0.000 S 
ATOM     27  H   UNL     1       3.094   2.817  20.899  0.00  0.00    +0.000 HD
ENDBRANCH  25  26
ENDBRANCH  22  25
ENDBRANCH  20  21
BRANCH  20  28
ATOM     28  C   UNL     1       3.528   6.642  18.745  0.00  0.00    +0.000 C 
BRANCH  28  29
ATOM     29  C   UNL     1       2.568   7.797  18.622  0.00  0.00    +0.000 A 
ATOM     30  C   UNL     1       2.367   8.557  17.487  0.00  0.00    +0.000 A 
ATOM     31  N   UNL     1       1.483   9.561  17.791  0.00  0.00    +0.000 N 
ATOM     32  C   UNL     1       1.051   9.437  19.087  0.00  0.00    +0.000 A 
ATOM     33  C   UNL     1       0.150  10.229  19.812  0.00  0.00    +0.000 A 
ATOM     34  C   UNL     1      -0.170   9.825  21.110  0.00  0.00    +0.000 A 
ATOM     35  C   UNL     1       0.396   8.679  21.660  0.00  0.00    +0.000 A 
ATOM     36  C   UNL     1       1.327   7.920  20.936  0.00  0.00    +0.000 A 
ATOM     37  C   UNL     1       1.671   8.307  19.622  0.00  0.00    +0.000 A 
ATOM     38  H   UNL     1       1.167  10.275  17.148  0.00  0.00    +0.000 HD
ENDBRANCH  28  29
ENDBRANCH  20  28
ENDBRANCH   2  20
TORSDOF 11
ENDMDL
MODEL 2
REMARK VINA RESULT:      -7.4      1.505      1.867
REMARK  Name = 
REMARK  11 active torsions:
REMARK  status: ('A' for Active; 'I' for Inactive)
REMARK    1  A    between atoms: C_2  and  C_4
REMARK    2  A    between atoms: C_4  and  C_5
REMARK    3  A    between atoms: C_4  and  N_13
REMARK    4  A    between atoms: C_5  and  C_6
REMARK    5  A    between atoms: C_9  and  O_10
REMARK    6  A    between atoms: C_14  and  C_16
REMARK    7  A    between atoms: C_16  and  C_17
REMARK    8  A    between atoms: C_16  and  N_27
REMARK    9  A    between atoms: C_17  and  C_18
REMARK   10  A    between atoms: C_28  and  C_30
REMARK   11  A    between atoms: C_30  and  S_31
REMARK                            x       y       z     vdW  Elec       q    Type
REMARK                         _______ _______ _______ _____ _____    ______ ____
ROOT
ATOM      1  N   UNL     1       5.193   5.136  17.900  0.00  0.00    +0.000 N 
ATOM      2  C   UNL     1       4.427   6.281  17.844  0.00  0.00    +0.000 C 
ATOM      3  O   UNL     1       4.813   7.300  17.274  0.00  0.00    +0.000 OA
ATOM      4  H   UNL     1       4.901   4.471  18.604  0.00  0.00    +0.000 HD
ENDROOT
BRANCH   1   5
ATOM      5  C   UNL     1       6.618   5.088  17.536  0.00  0.00    +0.000 C 
BRANCH   5   7
ATOM      6  N   UNL     1       7.501   5.195  19.835  0.00  0.00    +0.000 N 
ATOM      7  C   UNL     1       7.498   5.776  18.596  0.00  0.00    +0.000 C 
ATOM      8  O   UNL     1       8.016   6.878  18.426  0.00  0.00    +0.000 OA
ATOM      9  H   UNL     1       8.135   5.589  20.517  0.00  0.00    +0.000 HD
ATOM     10  H   UNL     1       7.269   4.213  19.913  0.00  0.00    +0.000 HD
ENDBRANCH   5   7
BRANCH   5  11
ATOM     11  C   UNL     1       6.861   5.839  16.206  0.00  0.00    +0.000 C 
BRANCH  11  12
ATOM     12  C   UNL     1       6.563   5.025  14.964  0.00  0.00    +0.000 A 
ATOM     13  C   UNL     1       7.449   5.035  13.875  0.00  0.00    +0.000 A 
ATOM     14  C   UNL     1       7.184   4.273  12.732  0.00  0.00    +0.000 A 
ATOM     15  C   UNL     1       6.031   3.498  12.679  0.00  0.00    +0.000 A 
ATOM     16  C   UNL     1       5.152   3.460  13.755  0.00  0.00    +0.000 A 
ATOM     17  C   UNL     1       5.420   4.215  14.898  0.00  0.00    +0.000 A 
BRANCH  15  18
ATOM     18  O   UNL     1       5.723   2.754  11.580  0.00  0.00    +0.000 OA
ATOM     19  H   UNL     1       4.757   2.745  11.470  0.00  0.00    +0.000 HD
ENDBRANCH  15  18
ENDBRANCH  11  12
ENDBRANCH   5  11
ENDBRANCH   1   5
BRANCH   2  20
ATOM     20  C   UNL     1       2.972   6.095  18.356  0.00  0.00    +0.000 C 
BRANCH  20  21
ATOM     21  N   UNL     1       2.753   4.686  18.733  0.00  0.00    +0.000 N 
ATOM     22  C   UNL     1       1.779   3.912  18.130  0.00  0.00    +0.000 C 
ATOM     23  O   UNL     1       1.086   4.338  17.213  0.00  0.00    +0.000 OA
ATOM     24  H   UNL     1       3.352   4.288  19.446  0.00  0.00    +0.000 HD
BRANCH  22  25
ATOM     25  C   UNL     1       1.708   2.494  18.676  0.00  0.00    +0.000 C 
BRANCH  25  26
ATOM     26  S   UNL     1       1.852   2.447  20.483  0.00  0.00    +0.000 S 
ATOM     27  H   UNL     1       3.118   2.897  20.531  0.00  0.00    +0.000 HD
ENDBRANCH  25  26
ENDBRANCH  22  25
ENDBRANCH  20  21
BRANCH  20  28
ATOM     28  C   UNL     1       2.671   7.077  19.506  0.00  0.00    +0.000 C 
BRANCH  28  29
ATOM     29  C   UNL     1       1.868   8.277  19.078  0.00  0.00    +0.000 A 
ATOM     30  C   UNL     1       1.801   8.783  17.796  0.00  0.00    +0.000 A 
ATOM     31  N   UNL     1       1.040   9.924  17.821  0.00  0.00    +0.000 N 
ATOM     32  C   UNL     1       0.553  10.143  19.086  0.00  0.00    +0.000 A 
ATOM     33  C   UNL     1      -0.265  11.174  19.566  0.00  0.00    +0.000 A 
ATOM     34  C   UNL     1      -0.675  11.109  20.899  0.00  0.00    +0.000 A 
ATOM     35  C   UNL     1      -0.275  10.056  21.718  0.00  0.00    +0.000 A 
ATOM     36  C   UNL     1       0.577   9.053  21.233  0.00  0.00    +0.000 A 
ATOM     37  C   UNL     1       1.010   9.096  19.889  0.00  0.00    +0.000 A 
ATOM     38  H   UNL     1       0.836  10.508  17.021  0.00  0.00    +0.000 HD
ENDBRANCH  28  29
ENDBRANCH  20  28
ENDBRANCH   2  20
TORSDOF 11
ENDMDL
MODEL 3
REMARK VINA RESULT:      -7.4      3.442      8.773
REMARK  Name = 
REMARK  11 active torsions:
REMARK  status: ('A' for Active; 'I' for Inactive)
REMARK    1  A    between atoms: C_2  and  C_4
REMARK    2  A    between atoms: C_4  and  C_5
REMARK    3  A    between atoms: C_4  and  N_13
REMARK    4  A    between atoms: C_5  and  C_6
REMARK    5  A    between atoms: C_9  and  O_10
REMARK    6  A    between atoms: C_14  and  C_16
REMARK    7  A    between atoms: C_16  and  C_17
REMARK    8  A    between atoms: C_16  and  N_27
REMARK    9  A    between atoms: C_17  and  C_18
REMARK   10  A    between atoms: C_28  and  C_30
REMARK   11  A    between atoms: C_30  and  S_31
REMARK                            x       y       z     vdW  Elec       q    Type
REMARK                         _______ _______ _______ _____ _____    ______ ____
ROOT
ATOM      1  N   UNL     1       1.464   8.969  19.066  0.00  0.00    +0.000 N 
ATOM      2  C   UNL     1       2.177   8.105  18.261  0.00  0.00    +0.000 C 
ATOM      3  O   UNL     1       2.459   8.378  17.096  0.00  0.00    +0.000 OA
ATOM      4  H   UNL     1       1.067   8.540  19.892  0.00  0.00    +0.000 HD
ENDROOT
BRANCH   1   5
ATOM      5  C   UNL     1       0.751  10.153  18.562  0.00  0.00    +0.000 C 
BRANCH   5   7
ATOM      6  N   UNL     1       2.511  11.596  17.617  0.00  0.00    +0.000 N 
ATOM      7  C   UNL     1       1.622  11.420  18.643  0.00  0.00    +0.000 C 
ATOM      8  O   UNL     1       1.676  12.135  19.642  0.00  0.00    +0.000 OA
ATOM      9  H   UNL     1       3.033  12.463  17.616  0.00  0.00    +0.000 HD
ATOM     10  H   UNL     1       2.321  11.154  16.727  0.00  0.00    +0.000 HD
ENDBRANCH   5   7
BRANCH   5  11
ATOM     11  C   UNL     1      -0.508  10.429  19.417  0.00  0.00    +0.000 C 
BRANCH  11  12
ATOM     12  C   UNL     1      -1.772  10.657  18.614  0.00  0.00    +0.000 A 
ATOM     13  C   UNL     1      -2.059   9.863  17.493  0.00  0.00    +0.000 A 
ATOM     14  C   UNL     1      -3.232  10.063  16.758  0.00  0.00    +0.000 A 
ATOM     15  C   UNL     1      -4.122  11.057  17.146  0.00  0.00    +0.000 A 
ATOM     16  C   UNL     1      -3.865  11.840  18.265  0.00  0.00    +0.000 A 
ATOM     17  C   UNL     1      -2.698  11.637  19.003  0.00  0.00    +0.000 A 
BRANCH  15  18
ATOM     18  O   UNL     1      -5.268  11.298  16.451  0.00  0.00    +0.000 OA
ATOM     19  H   UNL     1      -5.903  11.740  17.040  0.00  0.00    +0.000 HD
ENDBRANCH  15  18
ENDBRANCH  11  12
ENDBRANCH   5  11
ENDBRANCH   1   5
BRANCH   2  20
ATOM     20  C   UNL     1       2.773   6.884  19.015  0.00  0.00    +0.000 C 
BRANCH  20  21
ATOM     21  N   UNL     1       2.263   5.634  18.422  0.00  0.00    +0.000 N 
ATOM     22  C   UNL     1       1.678   4.646  19.193  0.00  0.00    +0.000 C 
ATOM     23  O   UNL     1       1.502   4.782  20.399  0.00  0.00    +0.000 OA
ATOM     24  H   UNL     1       2.339   5.521  17.419  0.00  0.00    +0.000 HD
BRANCH  22  25
ATOM     25  C   UNL     1       1.235   3.434  18.389  0.00  0.00    +0.000 C 
BRANCH  25  26
ATOM     26  S   UNL     1       2.607   2.300  18.046  0.00  0.00    +0.000 S 
ATOM     27  H   UNL     1       3.295   3.151  17.263  0.00  0.00    +0.000 HD
ENDBRANCH  25  26
ENDBRANCH  22  25
ENDBRANCH  20  21
BRANCH  20  28
ATOM     28  C   UNL     1       4.313   6.955  19.030  0.00  0.00    +0.000 C 
BRANCH  28  29
ATOM     29  C   UNL     1       4.978   5.744  18.429  0.00  0.00    +0.000 A 
ATOM     30  C   UNL     1       5.383   4.623  19.124  0.00  0.00    +0.000 A 
ATOM     31  N   UNL     1       6.018   3.778  18.249  0.00  0.00    +0.000 N 
ATOM     32  C   UNL     1       5.980   4.296  16.978  0.00  0.00    +0.000 A 
ATOM     33  C   UNL     1       6.493   3.776  15.782  0.00  0.00    +0.000 A 
ATOM     34  C   UNL     1       6.245   4.486  14.606  0.00  0.00    +0.000 A 
ATOM     35  C   UNL     1       5.518   5.673  14.631  0.00  0.00    +0.000 A 
ATOM     36  C   UNL     1       5.047   6.202  15.841  0.00  0.00    +0.000 A 
ATOM     37  C   UNL     1       5.286   5.505  17.046  0.00  0.00    +0.000 A 
ATOM     38  H   UNL     1       6.428   2.886  18.492  0.00  0.00    +0.000 HD
ENDBRANCH  28  29
ENDBRANCH  20  28
ENDBRANCH   2  20
TORSDOF 11
ENDMDL
MODEL 4
REMARK VINA RESULT:      -7.4      0.982      1.170
REMARK  Name = 
REMARK  11 active torsions:
REMARK  status: ('A' for Active; 'I' for Inactive)
REMARK    1  A    between atoms: C_2  and  C_4
REMARK    2  A    between atoms: C_4  and  C_5
REMARK    3  A    between atoms: C_4  and  N_13
REMARK    4  A    between atoms: C_5  and  C_6
REMARK    5  A    between atoms: C_9  and  O_10
REMARK    6  A    between atoms: C_14  and  C_16
REMARK    7  A    between atoms: C_16  and  C_17
REMARK    8  A    between atoms: C_16  and  N_27
REMARK    9  A    between atoms: C_17  and  C_18
REMARK   10  A    between atoms: C_28  and  C_30
REMARK   11  A    between atoms: C_30  and  S_31
REMARK                            x       y       z     vdW  Elec       q    Type
REMARK                         _______ _______ _______ _____ _____    ______ ____
ROOT
ATOM      1  N   UNL     1       4.979   5.539  17.752  0.00  0.00    +0.000 N 
ATOM      2  C   UNL     1       3.758   4.919  17.592  0.00  0.00    +0.000 C 
ATOM      3  O   UNL     1       3.628   3.886  16.937  0.00  0.00    +0.000 OA
ATOM      4  H   UNL     1       4.923   6.497  18.071  0.00  0.00    +0.000 HD
ENDROOT
BRANCH   1   5
ATOM      5  C   UNL     1       6.174   5.204  16.963  0.00  0.00    +0.000 C 
BRANCH   5   7
ATOM      6  N   UNL     1       7.946   4.698  18.600  0.00  0.00    +0.000 N 
ATOM      7  C   UNL     1       7.469   5.605  17.693  0.00  0.00    +0.000 C 
ATOM      8  O   UNL     1       7.953   6.734  17.631  0.00  0.00    +0.000 OA
ATOM      9  H   UNL     1       8.838   4.913  19.027  0.00  0.00    +0.000 HD
ATOM     10  H   UNL     1       7.692   3.724  18.494  0.00  0.00    +0.000 HD
ENDBRANCH   5   7
BRANCH   5  11
ATOM     11  C   UNL     1       6.169   5.973  15.621  0.00  0.00    +0.000 C 
BRANCH  11  12
ATOM     12  C   UNL     1       6.356   5.099  14.398  0.00  0.00    +0.000 A 
ATOM     13  C   UNL     1       7.492   5.243  13.585  0.00  0.00    +0.000 A 
ATOM     14  C   UNL     1       7.674   4.428  12.463  0.00  0.00    +0.000 A 
ATOM     15  C   UNL     1       6.721   3.466  12.154  0.00  0.00    +0.000 A 
ATOM     16  C   UNL     1       5.601   3.295  12.958  0.00  0.00    +0.000 A 
ATOM     17  C   UNL     1       5.421   4.103  14.081  0.00  0.00    +0.000 A 
BRANCH  15  18
ATOM     18  O   UNL     1       6.849   2.661  11.062  0.00  0.00    +0.000 OA
ATOM     19  H   UNL     1       7.785   2.422  10.959  0.00  0.00    +0.000 HD
ENDBRANCH  15  18
ENDBRANCH  11  12
ENDBRANCH   5  11
ENDBRANCH   1   5
BRANCH   2  20
ATOM     20  C   UNL     1       2.629   5.504  18.485  0.00  0.00    +0.000 C 
BRANCH  20  21
ATOM     21  N   UNL     1       2.173   4.482  19.446  0.00  0.00    +0.000 N 
ATOM     22  C   UNL     1       1.204   3.552  19.117  0.00  0.00    +0.000 C 
ATOM     23  O   UNL     1       0.715   3.493  17.994  0.00  0.00    +0.000 OA
ATOM     24  H   UNL     1       2.604   4.469  20.362  0.00  0.00    +0.000 HD
BRANCH  22  25
ATOM     25  C   UNL     1       0.868   2.600  20.255  0.00  0.00    +0.000 C 
BRANCH  25  26
ATOM     26  S   UNL     1       1.941   2.847  21.695  0.00  0.00    +0.000 S 
ATOM     27  H   UNL     1       2.976   3.362  21.008  0.00  0.00    +0.000 HD
ENDBRANCH  25  26
ENDBRANCH  22  25
ENDBRANCH  20  21
BRANCH  20  28
ATOM     28  C   UNL     1       3.097   6.804  19.170  0.00  0.00    +0.000 C 
BRANCH  28  29
ATOM     29  C   UNL     1       2.184   7.977  18.925  0.00  0.00    +0.000 A 
ATOM     30  C   UNL     1       1.997   8.610  17.713  0.00  0.00    +0.000 A 
ATOM     31  N   UNL     1       1.160   9.678  17.908  0.00  0.00    +0.000 N 
ATOM     32  C   UNL     1       0.742   9.721  19.214  0.00  0.00    +0.000 A 
ATOM     33  C   UNL     1      -0.115  10.628  19.853  0.00  0.00    +0.000 A 
ATOM     34  C   UNL     1      -0.432  10.389  21.191  0.00  0.00    +0.000 A 
ATOM     35  C   UNL     1       0.094   9.290  21.863  0.00  0.00    +0.000 A 
ATOM     36  C   UNL     1       0.983   8.414  21.222  0.00  0.00    +0.000 A 
ATOM     37  C   UNL     1       1.323   8.634  19.869  0.00  0.00    +0.000 A 
ATOM     38  H   UNL     1       0.863  10.326  17.190  0.00  0.00    +0.000 HD
ENDBRANCH  28  29
ENDBRANCH  20  28
ENDBRANCH   2  20
TORSDOF 11
ENDMDL
MODEL 5
REMARK VINA RESULT:      -7.4      1.428      1.974
REMARK  Name = 
REMARK  11 active torsions:
REMARK  status: ('A' for Active; 'I' for Inactive)
REMARK    1  A    between atoms: C_2  and  C_4
REMARK    2  A    between atoms: C_4  and  C_5
REMARK    3  A    between atoms: C_4  and  N_13
REMARK    4  A    between atoms: C_5  and  C_6
REMARK    5  A    between atoms: C_9  and  O_10
REMARK    6  A    between atoms: C_14  and  C_16
REMARK    7  A    between atoms: C_16  and  C_17
REMARK    8  A    between atoms: C_16  and  N_27
REMARK    9  A    between atoms: C_17  and  C_18
REMARK   10  A    between atoms: C_28  and  C_30
REMARK   11  A    between atoms: C_30  and  S_31
REMARK                            x       y       z     vdW  Elec       q    Type
REMARK                         _______ _______ _______ _____ _____    ______ ____
ROOT
ATOM      1  N   UNL     1       4.315   4.865  17.690  0.00  0.00    +0.000 N 
ATOM      2  C   UNL     1       3.835   6.147  17.860  0.00  0.00    +0.000 C 
ATOM      3  O   UNL     1       4.385   7.125  17.356  0.00  0.00    +0.000 OA
ATOM      4  H   UNL     1       3.952   4.192  18.352  0.00  0.00    +0.000 HD
ENDROOT
BRANCH   1   5
ATOM      5  C   UNL     1       5.642   4.558  17.136  0.00  0.00    +0.000 C 
BRANCH   5   7
ATOM      6  N   UNL     1       8.004   4.322  17.802  0.00  0.00    +0.000 N 
ATOM      7  C   UNL     1       6.746   4.684  18.203  0.00  0.00    +0.000 C 
ATOM      8  O   UNL     1       6.512   4.904  19.390  0.00  0.00    +0.000 OA
ATOM      9  H   UNL     1       8.751   4.475  18.466  0.00  0.00    +0.000 HD
ATOM     10  H   UNL     1       8.230   4.356  16.816  0.00  0.00    +0.000 HD
ENDBRANCH   5   7
BRANCH   5  11
ATOM     11  C   UNL     1       6.002   5.554  16.009  0.00  0.00    +0.000 C 
BRANCH  11  12
ATOM     12  C   UNL     1       6.299   4.907  14.673  0.00  0.00    +0.000 A 
ATOM     13  C   UNL     1       5.418   3.960  14.126  0.00  0.00    +0.000 A 
ATOM     14  C   UNL     1       5.683   3.371  12.886  0.00  0.00    +0.000 A 
ATOM     15  C   UNL     1       6.830   3.731  12.188  0.00  0.00    +0.000 A 
ATOM     16  C   UNL     1       7.704   4.680  12.704  0.00  0.00    +0.000 A 
ATOM     17  C   UNL     1       7.437   5.273  13.939  0.00  0.00    +0.000 A 
BRANCH  15  18
ATOM     18  O   UNL     1       7.137   3.171  10.985  0.00  0.00    +0.000 OA
ATOM     19  H   UNL     1       6.815   2.254  10.976  0.00  0.00    +0.000 HD
ENDBRANCH  15  18
ENDBRANCH  11  12
ENDBRANCH   5  11
ENDBRANCH   1   5
BRANCH   2  20
ATOM     20  C   UNL     1       2.439   6.215  18.539  0.00  0.00    +0.000 C 
BRANCH  20  21
ATOM     21  N   UNL     1       2.087   4.893  19.089  0.00  0.00    +0.000 N 
ATOM     22  C   UNL     1       1.388   3.957  18.350  0.00  0.00    +0.000 C 
ATOM     23  O   UNL     1       1.073   4.155  17.182  0.00  0.00    +0.000 OA
ATOM     24  H   UNL     1       2.388   4.678  20.032  0.00  0.00    +0.000 HD
BRANCH  22  25
ATOM     25  C   UNL     1       1.114   2.667  19.109  0.00  0.00    +0.000 C 
BRANCH  25  26
ATOM     26  S   UNL     1       1.509   2.812  20.873  0.00  0.00    +0.000 S 
ATOM     27  H   UNL     1       2.451   1.852  20.881  0.00  0.00    +0.000 HD
ENDBRANCH  25  26
ENDBRANCH  22  25
ENDBRANCH  20  21
BRANCH  20  28
ATOM     28  C   UNL     1       2.405   7.334  19.599  0.00  0.00    +0.000 C 
BRANCH  28  29
ATOM     29  C   UNL     1       1.622   8.548  19.170  0.00  0.00    +0.000 A 
ATOM     30  C   UNL     1       1.540   9.035  17.881  0.00  0.00    +0.000 A 
ATOM     31  N   UNL     1       0.808  10.195  17.904  0.00  0.00    +0.000 N 
ATOM     32  C   UNL     1       0.353  10.444  19.175  0.00  0.00    +0.000 A 
ATOM     33  C   UNL     1      -0.429  11.502  19.656  0.00  0.00    +0.000 A 
ATOM     34  C   UNL     1      -0.812  11.468  20.999  0.00  0.00    +0.000 A 
ATOM     35  C   UNL     1      -0.420  10.419  21.825  0.00  0.00    +0.000 A 
ATOM     36  C   UNL     1       0.397   9.388  21.338  0.00  0.00    +0.000 A 
ATOM     37  C   UNL     1       0.802   9.399  19.985  0.00  0.00    +0.000 A 
ATOM     38  H   UNL     1       0.601  10.771  17.099  0.00  0.00    +0.000 HD
ENDBRANCH  28  29
ENDBRANCH  20  28
ENDBRANCH   2  20
TORSDOF 11
ENDMDL
MODEL 6
REMARK VINA RESULT:      -7.3      3.506      8.822
REMARK  Name = 
REMARK  11 active torsions:
REMARK  status: ('A' for Active; 'I' for Inactive)
REMARK    1  A    between atoms: C_2  and  C_4
REMARK    2  A    between atoms: C_4  and  C_5
REMARK    3  A    between atoms: C_4  and  N_13
REMARK    4  A    between atoms: C_5  and  C_6
REMARK    5  A    between atoms: C_9  and  O_10
REMARK    6  A    between atoms: C_14  and  C_16
REMARK    7  A    between atoms: C_16  and  C_17
REMARK    8  A    between atoms: C_16  and  N_27
REMARK    9  A    between atoms: C_17  and  C_18
REMARK   10  A    between atoms: C_28  and  C_30
REMARK   11  A    between atoms: C_30  and  S_31
REMARK                            x       y       z     vdW  Elec       q    Type
REMARK                         _______ _______ _______ _____ _____    ______ ____
ROOT
ATOM      1  N   UNL     1       1.471   8.880  18.378  0.00  0.00    +0.000 N 
ATOM      2  C   UNL     1       1.762   8.199  19.542  0.00  0.00    +0.000 C 
ATOM      3  O   UNL     1       1.245   8.491  20.619  0.00  0.00    +0.000 OA
ATOM      4  H   UNL     1       2.138   8.735  17.632  0.00  0.00    +0.000 HD
ENDROOT
BRANCH   1   5
ATOM      5  C   UNL     1       0.745  10.158  18.341  0.00  0.00    +0.000 C 
BRANCH   5   7
ATOM      6  N   UNL     1       1.218  11.709  20.198  0.00  0.00    +0.000 N 
ATOM      7  C   UNL     1       1.581  11.304  18.941  0.00  0.00    +0.000 C 
ATOM      8  O   UNL     1       2.391  11.959  18.288  0.00  0.00    +0.000 OA
ATOM      9  H   UNL     1       1.807  12.405  20.635  0.00  0.00    +0.000 HD
ATOM     10  H   UNL     1       0.726  11.058  20.796  0.00  0.00    +0.000 HD
ENDBRANCH   5   7
BRANCH   5  11
ATOM     11  C   UNL     1      -0.550  10.069  19.181  0.00  0.00    +0.000 C 
BRANCH  11  12
ATOM     12  C   UNL     1      -1.809  10.462  18.436  0.00  0.00    +0.000 A 
ATOM     13  C   UNL     1      -2.148   9.832  17.227  0.00  0.00    +0.000 A 
ATOM     14  C   UNL     1      -3.317  10.183  16.544  0.00  0.00    +0.000 A 
ATOM     15  C   UNL     1      -4.149  11.164  17.070  0.00  0.00    +0.000 A 
ATOM     16  C   UNL     1      -3.840  11.784  18.274  0.00  0.00    +0.000 A 
ATOM     17  C   UNL     1      -2.677  11.430  18.960  0.00  0.00    +0.000 A 
BRANCH  15  18
ATOM     18  O   UNL     1      -5.289  11.549  16.431  0.00  0.00    +0.000 OA
ATOM     19  H   UNL     1      -5.917  10.808  16.440  0.00  0.00    +0.000 HD
ENDBRANCH  15  18
ENDBRANCH  11  12
ENDBRANCH   5  11
ENDBRANCH   1   5
BRANCH   2  20
ATOM     20  C   UNL     1       2.609   6.914  19.329  0.00  0.00    +0.000 C 
BRANCH  20  21
ATOM     21  N   UNL     1       1.729   5.730  19.343  0.00  0.00    +0.000 N 
ATOM     22  C   UNL     1       1.731   4.832  20.394  0.00  0.00    +0.000 C 
ATOM     23  O   UNL     1       2.421   5.002  21.393  0.00  0.00    +0.000 OA
ATOM     24  H   UNL     1       1.103   5.596  18.558  0.00  0.00    +0.000 HD
BRANCH  22  25
ATOM     25  C   UNL     1       0.763   3.674  20.203  0.00  0.00    +0.000 C 
BRANCH  25  26
ATOM     26  S   UNL     1       1.145   2.697  18.724  0.00  0.00    +0.000 S 
ATOM     27  H   UNL     1       2.451   3.017  18.683  0.00  0.00    +0.000 HD
ENDBRANCH  25  26
ENDBRANCH  22  25
ENDBRANCH  20  21
BRANCH  20  28
ATOM     28  C   UNL     1       3.446   7.023  18.039  0.00  0.00    +0.000 C 
BRANCH  28  29
ATOM     29  C   UNL     1       4.622   6.082  18.002  0.00  0.00    +0.000 A 
ATOM     30  C   UNL     1       5.192   5.466  19.098  0.00  0.00    +0.000 A 
ATOM     31  N   UNL     1       6.286   4.756  18.674  0.00  0.00    +0.000 N 
ATOM     32  C   UNL     1       6.407   4.841  17.309  0.00  0.00    +0.000 A 
ATOM     33  C   UNL     1       7.363   4.273  16.457  0.00  0.00    +0.000 A 
ATOM     34  C   UNL     1       7.203   4.465  15.083  0.00  0.00    +0.000 A 
ATOM     35  C   UNL     1       6.131   5.201  14.586  0.00  0.00    +0.000 A 
ATOM     36  C   UNL     1       5.206   5.797  15.455  0.00  0.00    +0.000 A 
ATOM     37  C   UNL     1       5.346   5.622  16.849  0.00  0.00    +0.000 A 
ATOM     38  H   UNL     1       6.900   4.218  19.270  0.00  0.00    +0.000 HD
ENDBRANCH  28  29
ENDBRANCH  20  28
ENDBRANCH   2  20
TORSDOF 11
ENDMDL
MODEL 7
REMARK VINA RESULT:      -7.3      3.230      5.096
REMARK  Name = 
REMARK  11 active torsions:
REMARK  status: ('A' for Active; 'I' for Inactive)
REMARK    1  A    between atoms: C_2  and  C_4
REMARK    2  A    between atoms: C_4  and  C_5
REMARK    3  A    between atoms: C_4  and  N_13
REMARK    4  A    between atoms: C_5  and  C_6
REMARK    5  A    between atoms: C_9  and  O_10
REMARK    6  A    between atoms: C_14  and  C_16
REMARK    7  A    between atoms: C_16  and  C_17
REMARK    8  A    between atoms: C_16  and  N_27
REMARK    9  A    between atoms: C_17  and  C_18
REMARK   10  A    between atoms: C_28  and  C_30
REMARK   11  A    between atoms: C_30  and  S_31
REMARK                            x       y       z     vdW  Elec       q    Type
REMARK                         _______ _______ _______ _____ _____    ______ ____
ROOT
ATOM      1  N   UNL     1       5.458   5.733  17.941  0.00  0.00    +0.000 N 
ATOM      2  C   UNL     1       4.378   6.330  17.326  0.00  0.00    +0.000 C 
ATOM      3  O   UNL     1       4.466   6.861  16.220  0.00  0.00    +0.000 OA
ATOM      4  H   UNL     1       5.339   5.574  18.933  0.00  0.00    +0.000 HD
ENDROOT
BRANCH   1   5
ATOM      5  C   UNL     1       6.848   5.894  17.488  0.00  0.00    +0.000 C 
BRANCH   5   7
ATOM      6  N   UNL     1       6.774   3.820  16.158  0.00  0.00    +0.000 N 
ATOM      7  C   UNL     1       7.474   4.547  17.082  0.00  0.00    +0.000 C 
ATOM      8  O   UNL     1       8.429   4.045  17.673  0.00  0.00    +0.000 OA
ATOM      9  H   UNL     1       7.213   2.972  15.824  0.00  0.00    +0.000 HD
ATOM     10  H   UNL     1       6.141   4.305  15.535  0.00  0.00    +0.000 HD
ENDBRANCH   5   7
BRANCH   5  11
ATOM     11  C   UNL     1       7.725   6.463  18.628  0.00  0.00    +0.000 C 
BRANCH  11  12
ATOM     12  C   UNL     1       8.092   7.924  18.466  0.00  0.00    +0.000 A 
ATOM     13  C   UNL     1       7.514   8.696  17.446  0.00  0.00    +0.000 A 
ATOM     14  C   UNL     1       7.840  10.049  17.303  0.00  0.00    +0.000 A 
ATOM     15  C   UNL     1       8.744  10.631  18.183  0.00  0.00    +0.000 A 
ATOM     16  C   UNL     1       9.312   9.888  19.211  0.00  0.00    +0.000 A 
ATOM     17  C   UNL     1       8.982   8.540  19.358  0.00  0.00    +0.000 A 
BRANCH  15  18
ATOM     18  O   UNL     1       9.105  11.940  18.072  0.00  0.00    +0.000 OA
ATOM     19  H   UNL     1       9.807  12.126  18.718  0.00  0.00    +0.000 HD
ENDBRANCH  15  18
ENDBRANCH  11  12
ENDBRANCH   5  11
ENDBRANCH   1   5
BRANCH   2  20
ATOM     20  C   UNL     1       3.022   6.074  18.040  0.00  0.00    +0.000 C 
BRANCH  20  21
ATOM     21  N   UNL     1       2.894   4.642  18.368  0.00  0.00    +0.000 N 
ATOM     22  C   UNL     1       1.821   3.887  17.934  0.00  0.00    +0.000 C 
ATOM     23  O   UNL     1       0.950   4.353  17.207  0.00  0.00    +0.000 OA
ATOM     24  H   UNL     1       3.631   4.215  18.916  0.00  0.00    +0.000 HD
BRANCH  22  25
ATOM     25  C   UNL     1       1.873   2.438  18.396  0.00  0.00    +0.000 C 
BRANCH  25  26
ATOM     26  S   UNL     1       3.565   1.787  18.421  0.00  0.00    +0.000 S 
ATOM     27  H   UNL     1       3.600   1.448  17.121  0.00  0.00    +0.000 HD
ENDBRANCH  25  26
ENDBRANCH  22  25
ENDBRANCH  20  21
BRANCH  20  28
ATOM     28  C   UNL     1       2.877   6.987  19.273  0.00  0.00    +0.000 C 
BRANCH  28  29
ATOM     29  C   UNL     1       2.010   8.195  19.030  0.00  0.00    +0.000 A 
ATOM     30  C   UNL     1       1.848   8.838  17.819  0.00  0.00    +0.000 A 
ATOM     31  N   UNL     1       1.053   9.937  18.016  0.00  0.00    +0.000 N 
ATOM     32  C   UNL     1       0.636   9.994  19.323  0.00  0.00    +0.000 A 
ATOM     33  C   UNL     1      -0.185  10.932  19.962  0.00  0.00    +0.000 A 
ATOM     34  C   UNL     1      -0.512  10.703  21.300  0.00  0.00    +0.000 A 
ATOM     35  C   UNL     1      -0.029   9.583  21.970  0.00  0.00    +0.000 A 
ATOM     36  C   UNL     1       0.826   8.675  21.328  0.00  0.00    +0.000 A 
ATOM     37  C   UNL     1       1.175   8.884  19.976  0.00  0.00    +0.000 A 
ATOM     38  H   UNL     1       0.782  10.598  17.300  0.00  0.00    +0.000 HD
ENDBRANCH  28  29
ENDBRANCH  20  28
ENDBRANCH   2  20
TORSDOF 11
ENDMDL
MODEL 8
REMARK VINA RESULT:      -7.2      3.960      6.270
REMARK  Name = 
REMARK  11 active torsions:
REMARK  status: ('A' for Active; 'I' for Inactive)
REMARK    1  A    between atoms: C_2  and  C_4
REMARK    2  A    between atoms: C_4  and  C_5
REMARK    3  A    between atoms: C_4  and  N_13
REMARK    4  A    between atoms: C_5  and  C_6
REMARK    5  A    between atoms: C_9  and  O_10
REMARK    6  A    between atoms: C_14  and  C_16
REMARK    7  A    between atoms: C_16  and  C_17
REMARK    8  A    between atoms: C_16  and  N_27
REMARK    9  A    between atoms: C_17  and  C_18
REMARK   10  A    between atoms: C_28  and  C_30
REMARK   11  A    between atoms: C_30  and  S_31
REMARK                            x       y       z     vdW  Elec       q    Type
REMARK                         _______ _______ _______ _____ _____    ______ ____
ROOT
ATOM      1  N   UNL     1       1.999   7.847  19.013  0.00  0.00    +0.000 N 
ATOM      2  C   UNL     1       1.739   9.085  18.463  0.00  0.00    +0.000 C 
ATOM      3  O   UNL     1       1.695   9.265  17.247  0.00  0.00    +0.000 OA
ATOM      4  H   UNL     1       2.271   7.872  19.987  0.00  0.00    +0.000 HD
ENDROOT
BRANCH   1   5
ATOM      5  C   UNL     1       2.507   6.702  18.243  0.00  0.00    +0.000 C 
BRANCH   5   7
ATOM      6  N   UNL     1       1.462   4.488  17.956  0.00  0.00    +0.000 N 
ATOM      7  C   UNL     1       2.036   5.362  18.839  0.00  0.00    +0.000 C 
ATOM      8  O   UNL     1       1.987   5.145  20.048  0.00  0.00    +0.000 OA
ATOM      9  H   UNL     1       1.222   3.574  18.317  0.00  0.00    +0.000 HD
ATOM     10  H   UNL     1       1.695   4.565  16.974  0.00  0.00    +0.000 HD
ENDBRANCH   5   7
BRANCH   5  11
ATOM     11  C   UNL     1       4.053   6.676  18.269  0.00  0.00    +0.000 C 
BRANCH  11  12
ATOM     12  C   UNL     1       4.684   5.848  17.169  0.00  0.00    +0.000 A 
ATOM     13  C   UNL     1       5.040   6.438  15.946  0.00  0.00    +0.000 A 
ATOM     14  C   UNL     1       5.635   5.679  14.933  0.00  0.00    +0.000 A 
ATOM     15  C   UNL     1       5.878   4.327  15.145  0.00  0.00    +0.000 A 
ATOM     16  C   UNL     1       5.551   3.729  16.356  0.00  0.00    +0.000 A 
ATOM     17  C   UNL     1       4.963   4.488  17.369  0.00  0.00    +0.000 A 
BRANCH  15  18
ATOM     18  O   UNL     1       6.440   3.544  14.182  0.00  0.00    +0.000 OA
ATOM     19  H   UNL     1       6.341   3.988  13.323  0.00  0.00    +0.000 HD
ENDBRANCH  15  18
ENDBRANCH  11  12
ENDBRANCH   5  11
ENDBRANCH   1   5
BRANCH   2  20
ATOM     20  C   UNL     1       1.288  10.155  19.495  0.00  0.00    +0.000 C 
BRANCH  20  21
ATOM     21  N   UNL     1       1.378  11.498  18.892  0.00  0.00    +0.000 N 
ATOM     22  C   UNL     1       1.729  12.610  19.635  0.00  0.00    +0.000 C 
ATOM     23  O   UNL     1       2.039  12.528  20.819  0.00  0.00    +0.000 OA
ATOM     24  H   UNL     1       1.187  11.585  17.902  0.00  0.00    +0.000 HD
BRANCH  22  25
ATOM     25  C   UNL     1       1.747  13.898  18.827  0.00  0.00    +0.000 C 
BRANCH  25  26
ATOM     26  S   UNL     1       3.428  14.396  18.366  0.00  0.00    +0.000 S 
ATOM     27  H   UNL     1       3.198  14.445  17.042  0.00  0.00    +0.000 HD
ENDBRANCH  25  26
ENDBRANCH  22  25
ENDBRANCH  20  21
BRANCH  20  28
ATOM     28  C   UNL     1      -0.121   9.832  20.032  0.00  0.00    +0.000 C 
BRANCH  28  29
ATOM     29  C   UNL     1      -1.203  10.700  19.444  0.00  0.00    +0.000 A 
ATOM     30  C   UNL     1      -1.722  11.840  20.024  0.00  0.00    +0.000 A 
ATOM     31  N   UNL     1      -2.741  12.303  19.231  0.00  0.00    +0.000 N 
ATOM     32  C   UNL     1      -2.859  11.524  18.107  0.00  0.00    +0.000 A 
ATOM     33  C   UNL     1      -3.750  11.631  17.031  0.00  0.00    +0.000 A 
ATOM     34  C   UNL     1      -3.598  10.736  15.970  0.00  0.00    +0.000 A 
ATOM     35  C   UNL     1      -2.596   9.770  15.991  0.00  0.00    +0.000 A 
ATOM     36  C   UNL     1      -1.737   9.650  17.094  0.00  0.00    +0.000 A 
ATOM     37  C   UNL     1      -1.871  10.540  18.182  0.00  0.00    +0.000 A 
ATOM     38  H   UNL     1      -3.307  13.119  19.424  0.00  0.00    +0.000 HD
ENDBRANCH  28  29
ENDBRANCH  20  28
ENDBRANCH   2  20
TORSDOF 11
ENDMDL
MODEL 9
REMARK VINA RESULT:      -7.2      4.022      6.534
REMARK  Name = 
REMARK  11 active torsions:
REMARK  status: ('A' for Active; 'I' for Inactive)
REMARK    1  A    between atoms: C_2  and  C_4
REMARK    2  A    between atoms: C_4  and  C_5
REMARK    3  A    between atoms: C_4  and  N_13
REMARK    4  A    between atoms: C_5  and  C_6
REMARK    5  A    between atoms: C_9  and  O_10
REMARK    6  A    between atoms: C_14  and  C_16
REMARK    7  A    between atoms: C_16  and  C_17
REMARK    8  A    between atoms: C_16  and  N_27
REMARK    9  A    between atoms: C_17  and  C_18
REMARK   10  A    between atoms: C_28  and  C_30
REMARK   11  A    between atoms: C_30  and  S_31
REMARK                            x       y       z     vdW  Elec       q    Type
REMARK                         _______ _______ _______ _____ _____    ______ ____
ROOT
ATOM      1  N   UNL     1       1.975   7.790  19.155  0.00  0.00    +0.000 N 
ATOM      2  C   UNL     1       1.817   8.980  18.475  0.00  0.00    +0.000 C 
ATOM      3  O   UNL     1       1.997   9.071  17.262  0.00  0.00    +0.000 OA
ATOM      4  H   UNL     1       2.064   7.890  20.157  0.00  0.00    +0.000 HD
ENDROOT
BRANCH   1   5
ATOM      5  C   UNL     1       2.619   6.600  18.577  0.00  0.00    +0.000 C 
BRANCH   5   7
ATOM      6  N   UNL     1       1.877   5.152  20.429  0.00  0.00    +0.000 N 
ATOM      7  C   UNL     1       1.957   5.300  19.070  0.00  0.00    +0.000 C 
ATOM      8  O   UNL     1       1.690   4.358  18.326  0.00  0.00    +0.000 OA
ATOM      9  H   UNL     1       1.374   4.341  20.765  0.00  0.00    +0.000 HD
ATOM     10  H   UNL     1       1.888   5.980  21.010  0.00  0.00    +0.000 HD
ENDBRANCH   5   7
BRANCH   5  11
ATOM     11  C   UNL     1       4.104   6.529  19.005  0.00  0.00    +0.000 C 
BRANCH  11  12
ATOM     12  C   UNL     1       5.047   6.066  17.914  0.00  0.00    +0.000 A 
ATOM     13  C   UNL     1       4.669   6.141  16.564  0.00  0.00    +0.000 A 
ATOM     14  C   UNL     1       5.544   5.727  15.554  0.00  0.00    +0.000 A 
ATOM     15  C   UNL     1       6.800   5.239  15.894  0.00  0.00    +0.000 A 
ATOM     16  C   UNL     1       7.199   5.175  17.224  0.00  0.00    +0.000 A 
ATOM     17  C   UNL     1       6.330   5.594  18.231  0.00  0.00    +0.000 A 
BRANCH  15  18
ATOM     18  O   UNL     1       7.678   4.809  14.946  0.00  0.00    +0.000 OA
ATOM     19  H   UNL     1       8.372   4.283  15.379  0.00  0.00    +0.000 HD
ENDBRANCH  15  18
ENDBRANCH  11  12
ENDBRANCH   5  11
ENDBRANCH   1   5
BRANCH   2  20
ATOM     20  C   UNL     1       1.181  10.115  19.326  0.00  0.00    +0.000 C 
BRANCH  20  21
ATOM     21  N   UNL     1       1.215  11.381  18.571  0.00  0.00    +0.000 N 
ATOM     22  C   UNL     1       1.655  12.561  19.143  0.00  0.00    +0.000 C 
ATOM     23  O   UNL     1       2.093  12.603  20.287  0.00  0.00    +0.000 OA
ATOM     24  H   UNL     1       0.916  11.364  17.603  0.00  0.00    +0.000 HD
BRANCH  22  25
ATOM     25  C   UNL     1       1.593  13.752  18.199  0.00  0.00    +0.000 C 
BRANCH  25  26
ATOM     26  S   UNL     1       1.514  15.329  19.090  0.00  0.00    +0.000 S 
ATOM     27  H   UNL     1       0.406  15.033  19.792  0.00  0.00    +0.000 HD
ENDBRANCH  25  26
ENDBRANCH  22  25
ENDBRANCH  20  21
BRANCH  20  28
ATOM     28  C   UNL     1      -0.240   9.724  19.777  0.00  0.00    +0.000 C 
BRANCH  28  29
ATOM     29  C   UNL     1      -1.316  10.620  19.222  0.00  0.00    +0.000 A 
ATOM     30  C   UNL     1      -1.808  11.757  19.832  0.00  0.00    +0.000 A 
ATOM     31  N   UNL     1      -2.831  12.252  19.064  0.00  0.00    +0.000 N 
ATOM     32  C   UNL     1      -2.978  11.497  17.926  0.00  0.00    +0.000 A 
ATOM     33  C   UNL     1      -3.883  11.639  16.867  0.00  0.00    +0.000 A 
ATOM     34  C   UNL     1      -3.761  10.763  15.787  0.00  0.00    +0.000 A 
ATOM     35  C   UNL     1      -2.775   9.781  15.774  0.00  0.00    +0.000 A 
ATOM     36  C   UNL     1      -1.902   9.625  16.861  0.00  0.00    +0.000 A 
ATOM     37  C   UNL     1      -2.006  10.496  17.968  0.00  0.00    +0.000 A 
ATOM     38  H   UNL     1      -3.380  13.072  19.281  0.00  0.00    +0.000 HD
ENDBRANCH  28  29
ENDBRANCH  20  28
ENDBRANCH   2  20
TORSDOF 11
ENDMDL
