MODEL 1
REMARK VINA RESULT:      -5.9      0.000      0.000
REMARK  Name = 
REMARK  6 active torsions:
REMARK  status: ('A' for Active; 'I' for Inactive)
REMARK    1  A    between atoms: C_1  and  C_2
REMARK    2  A    between atoms: C_7  and  C_8
REMARK    3  A    between atoms: N_10  and  C_11
REMARK    4  A    between atoms: N_10  and  C_12
REMARK    5  A    between atoms: C_16  and  N_17
REMARK    6  A    between atoms: C_22  and  O_23
REMARK                            x       y       z     vdW  Elec       q    Type
REMARK                         _______ _______ _______ _____ _____    ______ ____
ROOT
ATOM      1  C   UNL     1       1.517   7.778  20.143  0.00  0.00    +0.000 C 
ATOM      2  O   UNL     1       0.873   7.412  21.126  0.00  0.00    +0.000 OA
ATOM      3  N   UNL     1       1.133   8.920  19.440  0.00  0.00    +0.000 N 
ATOM      4  C   UNL     1       1.885   9.469  18.317  0.00  0.00    +0.000 C 
ENDROOT
BRANCH   1  11
ATOM      5  C   UNL     1       2.036   1.955  19.023  0.00  0.00    +0.000 C 
ATOM      6  C   UNL     1       1.986   3.161  18.122  0.00  0.00    +0.000 C 
ATOM      7  O   UNL     1       2.068   3.025  16.901  0.00  0.00    +0.000 OA
ATOM      8  N   UNL     1       1.824   4.395  18.728  0.00  0.00    +0.000 N 
ATOM      9  C   UNL     1       1.591   5.580  17.907  0.00  0.00    +0.000 C 
ATOM     10  C   UNL     1       2.650   6.646  18.187  0.00  0.00    +0.000 C 
ATOM     11  C   UNL     1       2.736   6.977  19.683  0.00  0.00    +0.000 C 
ATOM     12  C   UNL     1       2.878   5.693  20.520  0.00  0.00    +0.000 C 
ATOM     13  C   UNL     1       1.837   4.629  20.170  0.00  0.00    +0.000 C 
ENDBRANCH   1  11
BRANCH   3  14
ATOM     14  C   UNL     1       0.042   9.725  20.068  0.00  0.00    +0.000 C 
ATOM     15  C   UNL     1      -0.997  10.317  19.108  0.00  0.00    +0.000 C 
ATOM     16  C   UNL     1      -0.545  11.584  18.398  0.00  0.00    +0.000 C 
ATOM     17  C   UNL     1       0.043  12.622  19.348  0.00  0.00    +0.000 C 
ATOM     18  C   UNL     1       1.087  12.079  20.344  0.00  0.00    +0.000 C 
ATOM     19  C   UNL     1       0.552  10.812  21.070  0.00  0.00    +0.000 C 
BRANCH  18  20
ATOM     20  N   UNL     1       1.589  13.099  21.295  0.00  0.00    +0.000 NA
ATOM     21  C   UNL     1       0.658  14.154  21.686  0.00  0.00    +0.000 C 
ATOM     22  C   UNL     1       1.019  15.350  20.827  0.00  0.00    +0.000 C 
ATOM     23  C   UNL     1       2.517  15.219  20.633  0.00  0.00    +0.000 C 
ATOM     24  C   UNL     1       2.836  13.750  20.887  0.00  0.00    +0.000 C 
ENDBRANCH  18  20
BRANCH  19  25
ATOM     25  O   UNL     1       1.547  10.296  21.966  0.00  0.00    +0.000 OA
ATOM     26  H   UNL     1       1.570  10.888  22.746  0.00  0.00    +0.000 HD
ENDBRANCH  19  25
ENDBRANCH   3  14
TORSDOF 4
ENDMDL
MODEL 2
REMARK VINA RESULT:      -5.9      2.428      4.324
REMARK  Name = 
REMARK  6 active torsions:
REMARK  status: ('A' for Active; 'I' for Inactive)
REMARK    1  A    between atoms: C_1  and  C_2
REMARK    2  A    between atoms: C_7  and  C_8
REMARK    3  A    between atoms: N_10  and  C_11
REMARK    4  A    between atoms: N_10  and  C_12
REMARK    5  A    between atoms: C_16  and  N_17
REMARK    6  A    between atoms: C_22  and  O_23
REMARK                            x       y       z     vdW  Elec       q    Type
REMARK                         _______ _______ _______ _____ _____    ______ ____
ROOT
ATOM      1  C   UNL     1      -0.347  11.257  21.520  0.00  0.00    +0.000 C 
ATOM      2  O   UNL     1       0.246  11.139  22.593  0.00  0.00    +0.000 OA
ATOM      3  N   UNL     1      -0.630  12.525  21.013  0.00  0.00    +0.000 N 
ATOM      4  C   UNL     1      -1.253  12.754  19.713  0.00  0.00    +0.000 C 
ENDROOT
BRANCH   1  11
ATOM      5  C   UNL     1       2.827   7.695  17.960  0.00  0.00    +0.000 C 
ATOM      6  C   UNL     1       2.278   7.511  19.351  0.00  0.00    +0.000 C 
ATOM      7  O   UNL     1       2.458   6.453  19.952  0.00  0.00    +0.000 OA
ATOM      8  N   UNL     1       1.597   8.582  19.906  0.00  0.00    +0.000 N 
ATOM      9  C   UNL     1       1.194   8.534  21.309  0.00  0.00    +0.000 C 
ATOM     10  C   UNL     1      -0.315   8.731  21.444  0.00  0.00    +0.000 C 
ATOM     11  C   UNL     1      -0.782  10.013  20.744  0.00  0.00    +0.000 C 
ATOM     12  C   UNL     1      -0.252  10.072  19.300  0.00  0.00    +0.000 C 
ATOM     13  C   UNL     1       1.252   9.813  19.200  0.00  0.00    +0.000 C 
ENDBRANCH   1  11
BRANCH   3  14
ATOM     14  C   UNL     1      -0.013  13.667  21.752  0.00  0.00    +0.000 C 
ATOM     15  C   UNL     1      -0.867  14.935  21.868  0.00  0.00    +0.000 C 
ATOM     16  C   UNL     1      -0.861  15.811  20.623  0.00  0.00    +0.000 C 
ATOM     17  C   UNL     1       0.542  16.086  20.096  0.00  0.00    +0.000 C 
ATOM     18  C   UNL     1       1.449  14.846  19.970  0.00  0.00    +0.000 C 
ATOM     19  C   UNL     1       1.438  14.017  21.284  0.00  0.00    +0.000 C 
BRANCH  18  20
ATOM     20  N   UNL     1       2.826  15.158  19.516  0.00  0.00    +0.000 NA
ATOM     21  C   UNL     1       3.158  16.568  19.334  0.00  0.00    +0.000 C 
ATOM     22  C   UNL     1       3.034  16.823  17.844  0.00  0.00    +0.000 C 
ATOM     23  C   UNL     1       3.442  15.505  17.217  0.00  0.00    +0.000 C 
ATOM     24  C   UNL     1       3.242  14.454  18.302  0.00  0.00    +0.000 C 
ENDBRANCH  18  20
BRANCH  19  25
ATOM     25  O   UNL     1       2.256  12.846  21.141  0.00  0.00    +0.000 OA
ATOM     26  H   UNL     1       2.758  12.943  20.306  0.00  0.00    +0.000 HD
ENDBRANCH  19  25
ENDBRANCH   3  14
TORSDOF 4
ENDMDL
MODEL 3
REMARK VINA RESULT:      -5.7      2.290      4.533
REMARK  Name = 
REMARK  6 active torsions:
REMARK  status: ('A' for Active; 'I' for Inactive)
REMARK    1  A    between atoms: C_1  and  C_2
REMARK    2  A    between atoms: C_7  and  C_8
REMARK    3  A    between atoms: N_10  and  C_11
REMARK    4  A    between atoms: N_10  and  C_12
REMARK    5  A    between atoms: C_16  and  N_17
REMARK    6  A    between atoms: C_22  and  O_23
REMARK                            x       y       z     vdW  Elec       q    Type
REMARK                         _______ _______ _______ _____ _____    ______ ____
ROOT
ATOM      1  C   UNL     1       0.082  11.286  21.188  0.00  0.00    +0.000 C 
ATOM      2  O   UNL     1       1.210  11.272  21.681  0.00  0.00    +0.000 OA
ATOM      3  N   UNL     1      -0.667  12.463  21.189  0.00  0.00    +0.000 N 
ATOM      4  C   UNL     1      -1.975  12.588  20.554  0.00  0.00    +0.000 C 
ENDROOT
BRANCH   1  11
ATOM      5  C   UNL     1       2.762   6.972  18.084  0.00  0.00    +0.000 C 
ATOM      6  C   UNL     1       2.227   7.027  19.491  0.00  0.00    +0.000 C 
ATOM      7  O   UNL     1       2.302   6.039  20.221  0.00  0.00    +0.000 OA
ATOM      8  N   UNL     1       1.681   8.228  19.911  0.00  0.00    +0.000 N 
ATOM      9  C   UNL     1       1.307   8.403  21.312  0.00  0.00    +0.000 C 
ATOM     10  C   UNL     1      -0.167   8.784  21.434  0.00  0.00    +0.000 C 
ATOM     11  C   UNL     1      -0.505  10.012  20.580  0.00  0.00    +0.000 C 
ATOM     12  C   UNL     1      -0.004   9.830  19.135  0.00  0.00    +0.000 C 
ATOM     13  C   UNL     1       1.459   9.392  19.058  0.00  0.00    +0.000 C 
ENDBRANCH   1  11
BRANCH   3  14
ATOM     14  C   UNL     1       0.058  13.687  21.645  0.00  0.00    +0.000 C 
ATOM     15  C   UNL     1      -0.706  14.604  22.608  0.00  0.00    +0.000 C 
ATOM     16  C   UNL     1      -1.716  15.520  21.934  0.00  0.00    +0.000 C 
ATOM     17  C   UNL     1      -1.136  16.268  20.738  0.00  0.00    +0.000 C 
ATOM     18  C   UNL     1      -0.347  15.395  19.741  0.00  0.00    +0.000 C 
ATOM     19  C   UNL     1       0.698  14.516  20.483  0.00  0.00    +0.000 C 
BRANCH  18  20
ATOM     20  N   UNL     1       0.257  16.164  18.626  0.00  0.00    +0.000 NA
ATOM     21  C   UNL     1       1.518  16.847  18.902  0.00  0.00    +0.000 C 
ATOM     22  C   UNL     1       1.143  18.292  19.170  0.00  0.00    +0.000 C 
ATOM     23  C   UNL     1      -0.065  18.523  18.284  0.00  0.00    +0.000 C 
ATOM     24  C   UNL     1      -0.639  17.140  18.003  0.00  0.00    +0.000 C 
ENDBRANCH  18  20
BRANCH  19  25
ATOM     25  O   UNL     1       1.399  13.682  19.548  0.00  0.00    +0.000 OA
ATOM     26  H   UNL     1       0.934  13.753  18.690  0.00  0.00    +0.000 HD
ENDBRANCH  19  25
ENDBRANCH   3  14
TORSDOF 4
ENDMDL
MODEL 4
REMARK VINA RESULT:      -5.6      5.468      8.440
REMARK  Name = 
REMARK  6 active torsions:
REMARK  status: ('A' for Active; 'I' for Inactive)
REMARK    1  A    between atoms: C_1  and  C_2
REMARK    2  A    between atoms: C_7  and  C_8
REMARK    3  A    between atoms: N_10  and  C_11
REMARK    4  A    between atoms: N_10  and  C_12
REMARK    5  A    between atoms: C_16  and  N_17
REMARK    6  A    between atoms: C_22  and  O_23
REMARK                            x       y       z     vdW  Elec       q    Type
REMARK                         _______ _______ _______ _____ _____    ______ ____
ROOT
ATOM      1  C   UNL     1       2.136  14.420  18.583  0.00  0.00    +0.000 C 
ATOM      2  O   UNL     1       3.062  13.609  18.603  0.00  0.00    +0.000 OA
ATOM      3  N   UNL     1       0.835  14.002  18.861  0.00  0.00    +0.000 N 
ATOM      4  C   UNL     1      -0.305  14.910  18.940  0.00  0.00    +0.000 C 
ENDROOT
BRANCH   1  11
ATOM      5  C   UNL     1       6.199  18.148  20.825  0.00  0.00    +0.000 C 
ATOM      6  C   UNL     1       6.091  17.444  19.497  0.00  0.00    +0.000 C 
ATOM      7  O   UNL     1       6.954  17.611  18.636  0.00  0.00    +0.000 OA
ATOM      8  N   UNL     1       5.005  16.604  19.316  0.00  0.00    +0.000 N 
ATOM      9  C   UNL     1       4.934  15.760  18.126  0.00  0.00    +0.000 C 
ATOM     10  C   UNL     1       3.646  16.029  17.350  0.00  0.00    +0.000 C 
ATOM     11  C   UNL     1       2.407  15.886  18.245  0.00  0.00    +0.000 C 
ATOM     12  C   UNL     1       2.566  16.712  19.535  0.00  0.00    +0.000 C 
ATOM     13  C   UNL     1       3.893  16.457  20.251  0.00  0.00    +0.000 C 
ENDBRANCH   1  11
BRANCH   3  14
ATOM     14  C   UNL     1       0.700  12.597  19.349  0.00  0.00    +0.000 C 
ATOM     15  C   UNL     1      -0.319  11.721  18.609  0.00  0.00    +0.000 C 
ATOM     16  C   UNL     1      -1.764  11.947  19.031  0.00  0.00    +0.000 C 
ATOM     17  C   UNL     1      -1.952  11.928  20.544  0.00  0.00    +0.000 C 
ATOM     18  C   UNL     1      -0.946  12.783  21.339  0.00  0.00    +0.000 C 
ATOM     19  C   UNL     1       0.512  12.477  20.897  0.00  0.00    +0.000 C 
BRANCH  18  20
ATOM     20  N   UNL     1      -1.117  12.690  22.809  0.00  0.00    +0.000 NA
ATOM     21  C   UNL     1      -2.060  11.691  23.303  0.00  0.00    +0.000 C 
ATOM     22  C   UNL     1      -3.337  12.453  23.601  0.00  0.00    +0.000 C 
ATOM     23  C   UNL     1      -2.848  13.819  24.040  0.00  0.00    +0.000 C 
ATOM     24  C   UNL     1      -1.443  13.958  23.466  0.00  0.00    +0.000 C 
ENDBRANCH  18  20
BRANCH  19  25
ATOM     25  O   UNL     1       1.435  13.306  21.618  0.00  0.00    +0.000 OA
ATOM     26  H   UNL     1       2.146  12.723  21.955  0.00  0.00    +0.000 HD
ENDBRANCH  19  25
ENDBRANCH   3  14
TORSDOF 4
ENDMDL
MODEL 5
REMARK VINA RESULT:      -5.6      3.035      7.956
REMARK  Name = 
REMARK  6 active torsions:
REMARK  status: ('A' for Active; 'I' for Inactive)
REMARK    1  A    between atoms: C_1  and  C_2
REMARK    2  A    between atoms: C_7  and  C_8
REMARK    3  A    between atoms: N_10  and  C_11
REMARK    4  A    between atoms: N_10  and  C_12
REMARK    5  A    between atoms: C_16  and  N_17
REMARK    6  A    between atoms: C_22  and  O_23
REMARK                            x       y       z     vdW  Elec       q    Type
REMARK                         _______ _______ _______ _____ _____    ______ ____
ROOT
ATOM      1  C   UNL     1       1.453   8.564  18.943  0.00  0.00    +0.000 C 
ATOM      2  O   UNL     1       1.293   8.962  17.789  0.00  0.00    +0.000 OA
ATOM      3  N   UNL     1       1.876   7.256  19.179  0.00  0.00    +0.000 N 
ATOM      4  C   UNL     1       2.169   6.729  20.508  0.00  0.00    +0.000 C 
ENDROOT
BRANCH   1  11
ATOM      5  C   UNL     1      -0.555  14.167  18.962  0.00  0.00    +0.000 C 
ATOM      6  C   UNL     1      -1.200  12.857  19.332  0.00  0.00    +0.000 C 
ATOM      7  O   UNL     1      -2.362  12.831  19.737  0.00  0.00    +0.000 OA
ATOM      8  N   UNL     1      -0.437  11.712  19.174  0.00  0.00    +0.000 N 
ATOM      9  C   UNL     1      -1.056  10.400  19.347  0.00  0.00    +0.000 C 
ATOM     10  C   UNL     1      -0.322   9.594  20.417  0.00  0.00    +0.000 C 
ATOM     11  C   UNL     1       1.180   9.499  20.121  0.00  0.00    +0.000 C 
ATOM     12  C   UNL     1       1.773  10.893  19.846  0.00  0.00    +0.000 C 
ATOM     13  C   UNL     1       0.977  11.691  18.812  0.00  0.00    +0.000 C 
ENDBRANCH   1  11
BRANCH   3  14
ATOM     14  C   UNL     1       2.282   6.481  17.968  0.00  0.00    +0.000 C 
ATOM     15  C   UNL     1       1.966   4.981  17.989  0.00  0.00    +0.000 C 
ATOM     16  C   UNL     1       2.953   4.143  18.788  0.00  0.00    +0.000 C 
ATOM     17  C   UNL     1       4.407   4.438  18.434  0.00  0.00    +0.000 C 
ATOM     18  C   UNL     1       4.778   5.934  18.387  0.00  0.00    +0.000 C 
ATOM     19  C   UNL     1       3.761   6.729  17.522  0.00  0.00    +0.000 C 
BRANCH  18  20
ATOM     20  N   UNL     1       6.181   6.187  17.977  0.00  0.00    +0.000 NA
ATOM     21  C   UNL     1       6.520   5.916  16.583  0.00  0.00    +0.000 C 
ATOM     22  C   UNL     1       7.184   4.552  16.586  0.00  0.00    +0.000 C 
ATOM     23  C   UNL     1       7.895   4.499  17.924  0.00  0.00    +0.000 C 
ATOM     24  C   UNL     1       7.187   5.521  18.807  0.00  0.00    +0.000 C 
ENDBRANCH  18  20
BRANCH  19  25
ATOM     25  O   UNL     1       4.096   8.125  17.517  0.00  0.00    +0.000 OA
ATOM     26  H   UNL     1       3.414   8.589  18.044  0.00  0.00    +0.000 HD
ENDBRANCH  19  25
ENDBRANCH   3  14
TORSDOF 4
ENDMDL
MODEL 6
REMARK VINA RESULT:      -5.6      2.781      4.219
REMARK  Name = 
REMARK  6 active torsions:
REMARK  status: ('A' for Active; 'I' for Inactive)
REMARK    1  A    between atoms: C_1  and  C_2
REMARK    2  A    between atoms: C_7  and  C_8
REMARK    3  A    between atoms: N_10  and  C_11
REMARK    4  A    between atoms: N_10  and  C_12
REMARK    5  A    between atoms: C_16  and  N_17
REMARK    6  A    between atoms: C_22  and  O_23
REMARK                            x       y       z     vdW  Elec       q    Type
REMARK                         _______ _______ _______ _____ _____    ______ ____
ROOT
ATOM      1  C   UNL     1       2.159   7.795  19.134  0.00  0.00    +0.000 C 
ATOM      2  O   UNL     1       2.835   8.374  18.283  0.00  0.00    +0.000 OA
ATOM      3  N   UNL     1       1.398   8.529  20.043  0.00  0.00    +0.000 N 
ATOM      4  C   UNL     1       0.507   7.923  21.027  0.00  0.00    +0.000 C 
ENDROOT
BRANCH   1  11
ATOM      5  C   UNL     1       5.682   3.868  16.378  0.00  0.00    +0.000 C 
ATOM      6  C   UNL     1       5.606   4.333  17.809  0.00  0.00    +0.000 C 
ATOM      7  O   UNL     1       6.372   3.867  18.653  0.00  0.00    +0.000 OA
ATOM      8  N   UNL     1       4.666   5.306  18.106  0.00  0.00    +0.000 N 
ATOM      9  C   UNL     1       4.659   5.925  19.429  0.00  0.00    +0.000 C 
ATOM     10  C   UNL     1       3.296   5.754  20.097  0.00  0.00    +0.000 C 
ATOM     11  C   UNL     1       2.160   6.267  19.203  0.00  0.00    +0.000 C 
ATOM     12  C   UNL     1       2.263   5.669  17.789  0.00  0.00    +0.000 C 
ATOM     13  C   UNL     1       3.658   5.808  17.177  0.00  0.00    +0.000 C 
ENDBRANCH   1  11
BRANCH   3  14
ATOM     14  C   UNL     1       1.326   9.999  19.783  0.00  0.00    +0.000 C 
ATOM     15  C   UNL     1       1.083  10.889  21.008  0.00  0.00    +0.000 C 
ATOM     16  C   UNL     1      -0.370  10.954  21.457  0.00  0.00    +0.000 C 
ATOM     17  C   UNL     1      -1.335  11.243  20.313  0.00  0.00    +0.000 C 
ATOM     18  C   UNL     1      -1.128  10.383  19.050  0.00  0.00    +0.000 C 
ATOM     19  C   UNL     1       0.364  10.391  18.614  0.00  0.00    +0.000 C 
BRANCH  18  20
ATOM     20  N   UNL     1      -2.039  10.734  17.934  0.00  0.00    +0.000 NA
ATOM     21  C   UNL     1      -2.770  11.993  18.049  0.00  0.00    +0.000 C 
ATOM     22  C   UNL     1      -4.154  11.614  18.537  0.00  0.00    +0.000 C 
ATOM     23  C   UNL     1      -4.396  10.252  17.917  0.00  0.00    +0.000 C 
ATOM     24  C   UNL     1      -3.015   9.696  17.595  0.00  0.00    +0.000 C 
ENDBRANCH  18  20
BRANCH  19  25
ATOM     25  O   UNL     1       0.550   9.558  17.460  0.00  0.00    +0.000 OA
ATOM     26  H   UNL     1       1.485   9.649  17.184  0.00  0.00    +0.000 HD
ENDBRANCH  19  25
ENDBRANCH   3  14
TORSDOF 4
ENDMDL
MODEL 7
REMARK VINA RESULT:      -5.6      8.222     10.233
REMARK  Name = 
REMARK  6 active torsions:
REMARK  status: ('A' for Active; 'I' for Inactive)
REMARK    1  A    between atoms: C_1  and  C_2
REMARK    2  A    between atoms: C_7  and  C_8
REMARK    3  A    between atoms: N_10  and  C_11
REMARK    4  A    between atoms: N_10  and  C_12
REMARK    5  A    between atoms: C_16  and  N_17
REMARK    6  A    between atoms: C_22  and  O_23
REMARK                            x       y       z     vdW  Elec       q    Type
REMARK                         _______ _______ _______ _____ _____    ______ ____
ROOT
ATOM      1  C   UNL     1       9.052  12.689  21.552  0.00  0.00    +0.000 C 
ATOM      2  O   UNL     1       8.705  11.613  21.064  0.00  0.00    +0.000 OA
ATOM      3  N   UNL     1       8.186  13.387  22.393  0.00  0.00    +0.000 N 
ATOM      4  C   UNL     1       8.547  14.624  23.077  0.00  0.00    +0.000 C 
ENDROOT
BRANCH   1  11
ATOM      5  C   UNL     1      11.759  13.362  16.294  0.00  0.00    +0.000 C 
ATOM      6  C   UNL     1      11.122  14.346  17.240  0.00  0.00    +0.000 C 
ATOM      7  O   UNL     1      11.114  15.547  16.972  0.00  0.00    +0.000 OA
ATOM      8  N   UNL     1      10.543  13.831  18.388  0.00  0.00    +0.000 N 
ATOM      9  C   UNL     1       9.758  14.705  19.257  0.00  0.00    +0.000 C 
ATOM     10  C   UNL     1      10.317  14.695  20.679  0.00  0.00    +0.000 C 
ATOM     11  C   UNL     1      10.430  13.268  21.231  0.00  0.00    +0.000 C 
ATOM     12  C   UNL     1      11.175  12.355  20.239  0.00  0.00    +0.000 C 
ATOM     13  C   UNL     1      10.624  12.438  18.816  0.00  0.00    +0.000 C 
ENDBRANCH   1  11
BRANCH   3  14
ATOM     14  C   UNL     1       6.940  12.659  22.782  0.00  0.00    +0.000 C 
ATOM     15  C   UNL     1       5.652  13.490  22.802  0.00  0.00    +0.000 C 
ATOM     16  C   UNL     1       5.475  14.345  24.048  0.00  0.00    +0.000 C 
ATOM     17  C   UNL     1       5.699  13.568  25.340  0.00  0.00    +0.000 C 
ATOM     18  C   UNL     1       6.977  12.705  25.371  0.00  0.00    +0.000 C 
ATOM     19  C   UNL     1       7.079  11.822  24.097  0.00  0.00    +0.000 C 
BRANCH  18  20
ATOM     20  N   UNL     1       7.130  11.913  26.616  0.00  0.00    +0.000 NA
ATOM     21  C   UNL     1       6.136  10.873  26.864  0.00  0.00    +0.000 C 
ATOM     22  C   UNL     1       5.150  11.482  27.842  0.00  0.00    +0.000 C 
ATOM     23  C   UNL     1       6.001  12.415  28.681  0.00  0.00    +0.000 C 
ATOM     24  C   UNL     1       7.236  12.714  27.838  0.00  0.00    +0.000 C 
ENDBRANCH  18  20
BRANCH  19  25
ATOM     25  O   UNL     1       8.291  11.052  24.121  0.00  0.00    +0.000 OA
ATOM     26  H   UNL     1       8.258  10.436  23.361  0.00  0.00    +0.000 HD
ENDBRANCH  19  25
ENDBRANCH   3  14
TORSDOF 4
ENDMDL
MODEL 8
REMARK VINA RESULT:      -5.6      0.974      1.105
REMARK  Name = 
REMARK  6 active torsions:
REMARK  status: ('A' for Active; 'I' for Inactive)
REMARK    1  A    between atoms: C_1  and  C_2
REMARK    2  A    between atoms: C_7  and  C_8
REMARK    3  A    between atoms: N_10  and  C_11
REMARK    4  A    between atoms: N_10  and  C_12
REMARK    5  A    between atoms: C_16  and  N_17
REMARK    6  A    between atoms: C_22  and  O_23
REMARK                            x       y       z     vdW  Elec       q    Type
REMARK                         _______ _______ _______ _____ _____    ______ ____
ROOT
ATOM      1  C   UNL     1       1.411   8.021  19.996  0.00  0.00    +0.000 C 
ATOM      2  O   UNL     1       0.730   7.643  20.950  0.00  0.00    +0.000 OA
ATOM      3  N   UNL     1       1.043   9.162  19.282  0.00  0.00    +0.000 N 
ATOM      4  C   UNL     1       1.836   9.724  18.194  0.00  0.00    +0.000 C 
ENDROOT
BRANCH   1  11
ATOM      5  C   UNL     1       2.101   2.172  19.139  0.00  0.00    +0.000 C 
ATOM      6  C   UNL     1       2.027   3.335  18.185  0.00  0.00    +0.000 C 
ATOM      7  O   UNL     1       2.127   3.148  16.972  0.00  0.00    +0.000 OA
ATOM      8  N   UNL     1       1.825   4.590  18.735  0.00  0.00    +0.000 N 
ATOM      9  C   UNL     1       1.569   5.731  17.860  0.00  0.00    +0.000 C 
ATOM     10  C   UNL     1       2.594   6.837  18.103  0.00  0.00    +0.000 C 
ATOM     11  C   UNL     1       2.655   7.236  19.583  0.00  0.00    +0.000 C 
ATOM     12  C   UNL     1       2.824   5.994  20.477  0.00  0.00    +0.000 C 
ATOM     13  C   UNL     1       1.817   4.887  20.165  0.00  0.00    +0.000 C 
ENDBRANCH   1  11
BRANCH   3  14
ATOM     14  C   UNL     1      -0.081   9.953  19.868  0.00  0.00    +0.000 C 
ATOM     15  C   UNL     1      -1.337  10.085  18.999  0.00  0.00    +0.000 C 
ATOM     16  C   UNL     1      -1.237  11.141  17.907  0.00  0.00    +0.000 C 
ATOM     17  C   UNL     1      -0.727  12.483  18.422  0.00  0.00    +0.000 C 
ATOM     18  C   UNL     1       0.529  12.408  19.312  0.00  0.00    +0.000 C 
ATOM     19  C   UNL     1       0.350  11.346  20.433  0.00  0.00    +0.000 C 
BRANCH  18  20
ATOM     20  N   UNL     1       0.958  13.722  19.848  0.00  0.00    +0.000 NA
ATOM     21  C   UNL     1       0.023  14.414  20.730  0.00  0.00    +0.000 C 
ATOM     22  C   UNL     1      -0.671  15.442  19.856  0.00  0.00    +0.000 C 
ATOM     23  C   UNL     1       0.392  15.836  18.849  0.00  0.00    +0.000 C 
ATOM     24  C   UNL     1       1.389  14.683  18.830  0.00  0.00    +0.000 C 
ENDBRANCH  18  20
BRANCH  19  25
ATOM     25  O   UNL     1       1.540  11.260  21.232  0.00  0.00    +0.000 OA
ATOM     26  H   UNL     1       1.902  10.358  21.116  0.00  0.00    +0.000 HD
ENDBRANCH  19  25
ENDBRANCH   3  14
TORSDOF 4
ENDMDL
MODEL 9
REMARK VINA RESULT:      -5.5      5.484      7.718
REMARK  Name = 
REMARK  6 active torsions:
REMARK  status: ('A' for Active; 'I' for Inactive)
REMARK    1  A    between atoms: C_1  and  C_2
REMARK    2  A    between atoms: C_7  and  C_8
REMARK    3  A    between atoms: N_10  and  C_11
REMARK    4  A    between atoms: N_10  and  C_12
REMARK    5  A    between atoms: C_16  and  N_17
REMARK    6  A    between atoms: C_22  and  O_23
REMARK                            x       y       z     vdW  Elec       q    Type
REMARK                         _______ _______ _______ _____ _____    ______ ____
ROOT
ATOM      1  C   UNL     1       0.170  12.599  20.612  0.00  0.00    +0.000 C 
ATOM      2  O   UNL     1       1.182  12.445  21.297  0.00  0.00    +0.000 OA
ATOM      3  N   UNL     1      -1.090  12.573  21.210  0.00  0.00    +0.000 N 
ATOM      4  C   UNL     1      -2.332  12.828  20.487  0.00  0.00    +0.000 C 
ENDROOT
BRANCH   1  11
ATOM      5  C   UNL     1       2.661  17.079  17.588  0.00  0.00    +0.000 C 
ATOM      6  C   UNL     1       3.090  15.656  17.829  0.00  0.00    +0.000 C 
ATOM      7  O   UNL     1       4.141  15.236  17.344  0.00  0.00    +0.000 OA
ATOM      8  N   UNL     1       2.268  14.876  18.625  0.00  0.00    +0.000 N 
ATOM      9  C   UNL     1       2.712  13.548  19.042  0.00  0.00    +0.000 C 
ATOM     10  C   UNL     1       1.707  12.483  18.609  0.00  0.00    +0.000 C 
ATOM     11  C   UNL     1       0.291  12.809  19.103  0.00  0.00    +0.000 C 
ATOM     12  C   UNL     1      -0.099  14.251  18.731  0.00  0.00    +0.000 C 
ATOM     13  C   UNL     1       0.959  15.281  19.129  0.00  0.00    +0.000 C 
ENDBRANCH   1  11
BRANCH   3  14
ATOM     14  C   UNL     1      -1.094  12.538  22.703  0.00  0.00    +0.000 C 
ATOM     15  C   UNL     1      -2.193  11.690  23.355  0.00  0.00    +0.000 C 
ATOM     16  C   UNL     1      -3.553  12.370  23.423  0.00  0.00    +0.000 C 
ATOM     17  C   UNL     1      -3.483  13.785  23.986  0.00  0.00    +0.000 C 
ATOM     18  C   UNL     1      -2.386  14.679  23.373  0.00  0.00    +0.000 C 
ATOM     19  C   UNL     1      -1.014  13.949  23.372  0.00  0.00    +0.000 C 
BRANCH  18  20
ATOM     20  N   UNL     1      -2.304  16.026  23.989  0.00  0.00    +0.000 NA
ATOM     21  C   UNL     1      -3.025  16.226  25.242  0.00  0.00    +0.000 C 
ATOM     22  C   UNL     1      -4.320  16.915  24.858  0.00  0.00    +0.000 C 
ATOM     23  C   UNL     1      -3.938  17.761  23.659  0.00  0.00    +0.000 C 
ATOM     24  C   UNL     1      -2.672  17.127  23.096  0.00  0.00    +0.000 C 
ENDBRANCH  18  20
BRANCH  19  25
ATOM     25  O   UNL     1      -0.011  14.778  22.766  0.00  0.00    +0.000 OA
ATOM     26  H   UNL     1       0.455  15.246  23.490  0.00  0.00    +0.000 HD
ENDBRANCH  19  25
ENDBRANCH   3  14
TORSDOF 4
ENDMDL
