MODEL 1
REMARK VINA RESULT:      -7.1      0.000      0.000
REMARK  Name = 
REMARK  8 active torsions:
REMARK  status: ('A' for Active; 'I' for Inactive)
REMARK    1  A    between atoms: C_1  and  C_2
REMARK    2  A    between atoms: C_2  and  O_3
REMARK    3  A    between atoms: O_3  and  C_4
REMARK    4  A    between atoms: C_7  and  N_8
REMARK    5  A    between atoms: C_9  and  C_11
REMARK    6  A    between atoms: C_12  and  N_13
REMARK    7  A    between atoms: C_14  and  C_16
REMARK    8  A    between atoms: C_16  and  C_17
REMARK                            x       y       z     vdW  Elec       q    Type
REMARK                         _______ _______ _______ _____ _____    ______ ____
ROOT
ATOM      1  C   UNL     1       1.950   7.585  19.327  0.00  0.00    +0.000 A 
ATOM      2  C   UNL     1       1.915   7.134  20.632  0.00  0.00    +0.000 A 
ATOM      3  S   UNL     1       1.330   8.297  21.717  0.00  0.00    +0.000 S 
ATOM      4  C   UNL     1       1.070   9.438  20.466  0.00  0.00    +0.000 A 
ATOM      5  C   UNL     1       1.437   8.940  19.223  0.00  0.00    +0.000 A 
ATOM      6  C   UNL     1       1.272   9.682  17.914  0.00  0.00    +0.000 C 
ATOM      7  C   UNL     1      -0.057  10.429  17.825  0.00  0.00    +0.000 C 
ATOM      8  C   UNL     1      -0.057  11.787  18.528  0.00  0.00    +0.000 C 
ATOM      9  C   UNL     1       0.752  11.874  19.824  0.00  0.00    +0.000 C 
ATOM     10  C   UNL     1       0.447  10.761  20.822  0.00  0.00    +0.000 C 
ENDROOT
BRANCH   1  12
ATOM     11  N   UNL     1       3.747   6.625  18.105  0.00  0.00    +0.000 N 
ATOM     12  C   UNL     1       2.373   6.772  18.187  0.00  0.00    +0.000 C 
ATOM     13  O   UNL     1       1.546   6.254  17.446  0.00  0.00    +0.000 OA
ATOM     14  H   UNL     1       4.279   6.953  18.903  0.00  0.00    +0.000 HD
BRANCH  11  18
ATOM     15  C   UNL     1       5.915   4.419  15.248  0.00  0.00    +0.000 A 
ATOM     16  C   UNL     1       5.828   5.801  15.119  0.00  0.00    +0.000 A 
ATOM     17  C   UNL     1       5.112   6.551  16.052  0.00  0.00    +0.000 A 
ATOM     18  C   UNL     1       4.455   5.923  17.112  0.00  0.00    +0.000 A 
ATOM     19  C   UNL     1       4.514   4.534  17.217  0.00  0.00    +0.000 A 
ATOM     20  C   UNL     1       5.228   3.780  16.278  0.00  0.00    +0.000 A 
BRANCH  15  21
ATOM     21  O   UNL     1       6.694   3.802  14.310  0.00  0.00    +0.000 OA
BRANCH  21  23
ATOM     22  C   UNL     1       5.591   3.222  12.276  0.00  0.00    +0.000 C 
ATOM     23  C   UNL     1       6.491   4.230  12.963  0.00  0.00    +0.000 C 
ENDBRANCH  21  23
ENDBRANCH  15  21
ENDBRANCH  11  18
ENDBRANCH   1  12
BRANCH   2  24
ATOM     24  N   UNL     1       2.361   5.932  21.170  0.00  0.00    +0.000 N 
ATOM     25  C   UNL     1       1.564   4.801  21.015  0.00  0.00    +0.000 C 
ATOM     26  O   UNL     1       0.467   4.782  20.476  0.00  0.00    +0.000 OA
ATOM     27  H   UNL     1       3.362   5.771  21.148  0.00  0.00    +0.000 HD
BRANCH  25  28
ATOM     28  C   UNL     1       2.209   3.512  21.497  0.00  0.00    +0.000 C 
BRANCH  28  29
ATOM     29  C   UNL     1       2.867   2.682  20.422  0.00  0.00    +0.000 A 
ATOM     30  C   UNL     1       4.169   2.180  20.555  0.00  0.00    +0.000 A 
ATOM     31  C   UNL     1       4.734   1.394  19.548  0.00  0.00    +0.000 A 
ATOM     32  C   UNL     1       3.998   1.081  18.407  0.00  0.00    +0.000 A 
ATOM     33  C   UNL     1       2.689   1.538  18.281  0.00  0.00    +0.000 A 
ATOM     34  C   UNL     1       2.125   2.327  19.285  0.00  0.00    +0.000 A 
ENDBRANCH  28  29
ENDBRANCH  25  28
ENDBRANCH   2  24
TORSDOF 7
ENDMDL
MODEL 2
REMARK VINA RESULT:      -7.0      0.951      1.486
REMARK  Name = 
REMARK  8 active torsions:
REMARK  status: ('A' for Active; 'I' for Inactive)
REMARK    1  A    between atoms: C_1  and  C_2
REMARK    2  A    between atoms: C_2  and  O_3
REMARK    3  A    between atoms: O_3  and  C_4
REMARK    4  A    between atoms: C_7  and  N_8
REMARK    5  A    between atoms: C_9  and  C_11
REMARK    6  A    between atoms: C_12  and  N_13
REMARK    7  A    between atoms: C_14  and  C_16
REMARK    8  A    between atoms: C_16  and  C_17
REMARK                            x       y       z     vdW  Elec       q    Type
REMARK                         _______ _______ _______ _____ _____    ______ ____
ROOT
ATOM      1  C   UNL     1       1.749   8.369  19.410  0.00  0.00    +0.000 A 
ATOM      2  C   UNL     1       1.595   7.704  20.611  0.00  0.00    +0.000 A 
ATOM      3  S   UNL     1       0.563   8.511  21.685  0.00  0.00    +0.000 S 
ATOM      4  C   UNL     1       0.258   9.768  20.562  0.00  0.00    +0.000 A 
ATOM      5  C   UNL     1       0.949   9.581  19.372  0.00  0.00    +0.000 A 
ATOM      6  C   UNL     1       0.842  10.484  18.162  0.00  0.00    +0.000 C 
ATOM      7  C   UNL     1      -0.592  10.934  17.889  0.00  0.00    +0.000 C 
ATOM      8  C   UNL     1      -1.046  12.120  18.741  0.00  0.00    +0.000 C 
ATOM      9  C   UNL     1      -0.524  12.154  20.179  0.00  0.00    +0.000 C 
ATOM     10  C   UNL     1      -0.720  10.847  20.942  0.00  0.00    +0.000 C 
ENDROOT
BRANCH   1  12
ATOM     11  N   UNL     1       3.366   6.809  18.638  0.00  0.00    +0.000 N 
ATOM     12  C   UNL     1       2.551   7.874  18.292  0.00  0.00    +0.000 C 
ATOM     13  O   UNL     1       2.429   8.355  17.172  0.00  0.00    +0.000 OA
ATOM     14  H   UNL     1       3.207   6.405  19.553  0.00  0.00    +0.000 HD
BRANCH  11  18
ATOM     15  C   UNL     1       6.111   4.939  16.050  0.00  0.00    +0.000 A 
ATOM     16  C   UNL     1       4.896   4.317  16.320  0.00  0.00    +0.000 A 
ATOM     17  C   UNL     1       3.974   4.917  17.177  0.00  0.00    +0.000 A 
ATOM     18  C   UNL     1       4.266   6.136  17.792  0.00  0.00    +0.000 A 
ATOM     19  C   UNL     1       5.501   6.738  17.548  0.00  0.00    +0.000 A 
ATOM     20  C   UNL     1       6.429   6.134  16.692  0.00  0.00    +0.000 A 
BRANCH  15  21
ATOM     21  O   UNL     1       6.904   4.286  15.149  0.00  0.00    +0.000 OA
BRANCH  21  23
ATOM     22  C   UNL     1       6.247   3.718  12.928  0.00  0.00    +0.000 C 
ATOM     23  C   UNL     1       6.858   4.787  13.813  0.00  0.00    +0.000 C 
ENDBRANCH  21  23
ENDBRANCH  15  21
ENDBRANCH  11  18
ENDBRANCH   1  12
BRANCH   2  24
ATOM     24  N   UNL     1       2.217   6.551  21.075  0.00  0.00    +0.000 N 
ATOM     25  C   UNL     1       1.550   5.337  20.937  0.00  0.00    +0.000 C 
ATOM     26  O   UNL     1       0.427   5.201  20.474  0.00  0.00    +0.000 OA
ATOM     27  H   UNL     1       3.227   6.512  20.978  0.00  0.00    +0.000 HD
BRANCH  25  28
ATOM     28  C   UNL     1       2.377   4.122  21.328  0.00  0.00    +0.000 C 
BRANCH  28  29
ATOM     29  C   UNL     1       2.684   3.165  20.202  0.00  0.00    +0.000 A 
ATOM     30  C   UNL     1       1.765   2.893  19.179  0.00  0.00    +0.000 A 
ATOM     31  C   UNL     1       2.097   2.021  18.140  0.00  0.00    +0.000 A 
ATOM     32  C   UNL     1       3.357   1.427  18.097  0.00  0.00    +0.000 A 
ATOM     33  C   UNL     1       4.294   1.721  19.085  0.00  0.00    +0.000 A 
ATOM     34  C   UNL     1       3.962   2.590  20.126  0.00  0.00    +0.000 A 
ENDBRANCH  28  29
ENDBRANCH  25  28
ENDBRANCH   2  24
TORSDOF 7
ENDMDL
MODEL 3
REMARK VINA RESULT:      -6.8      2.269      7.660
REMARK  Name = 
REMARK  8 active torsions:
REMARK  status: ('A' for Active; 'I' for Inactive)
REMARK    1  A    between atoms: C_1  and  C_2
REMARK    2  A    between atoms: C_2  and  O_3
REMARK    3  A    between atoms: O_3  and  C_4
REMARK    4  A    between atoms: C_7  and  N_8
REMARK    5  A    between atoms: C_9  and  C_11
REMARK    6  A    between atoms: C_12  and  N_13
REMARK    7  A    between atoms: C_14  and  C_16
REMARK    8  A    between atoms: C_16  and  C_17
REMARK                            x       y       z     vdW  Elec       q    Type
REMARK                         _______ _______ _______ _____ _____    ______ ____
ROOT
ATOM      1  C   UNL     1       3.543   5.579  18.392  0.00  0.00    +0.000 A 
ATOM      2  C   UNL     1       4.374   4.914  17.510  0.00  0.00    +0.000 A 
ATOM      3  S   UNL     1       4.556   3.271  17.886  0.00  0.00    +0.000 S 
ATOM      4  C   UNL     1       3.499   3.387  19.229  0.00  0.00    +0.000 A 
ATOM      5  C   UNL     1       3.013   4.676  19.400  0.00  0.00    +0.000 A 
ATOM      6  C   UNL     1       2.012   5.088  20.458  0.00  0.00    +0.000 C 
ATOM      7  C   UNL     1       0.896   4.062  20.641  0.00  0.00    +0.000 C 
ATOM      8  C   UNL     1       1.274   2.884  21.540  0.00  0.00    +0.000 C 
ATOM      9  C   UNL     1       2.717   2.390  21.430  0.00  0.00    +0.000 C 
ATOM     10  C   UNL     1       3.179   2.133  19.998  0.00  0.00    +0.000 C 
ENDROOT
BRANCH   1  12
ATOM     11  N   UNL     1       2.220   7.383  19.190  0.00  0.00    +0.000 N 
ATOM     12  C   UNL     1       3.183   6.991  18.277  0.00  0.00    +0.000 C 
ATOM     13  O   UNL     1       3.753   7.719  17.471  0.00  0.00    +0.000 OA
ATOM     14  H   UNL     1       1.992   6.712  19.914  0.00  0.00    +0.000 HD
BRANCH  11  18
ATOM     15  C   UNL     1       0.410  11.157  19.647  0.00  0.00    +0.000 A 
ATOM     16  C   UNL     1       1.018  10.835  18.438  0.00  0.00    +0.000 A 
ATOM     17  C   UNL     1       1.626   9.592  18.267  0.00  0.00    +0.000 A 
ATOM     18  C   UNL     1       1.654   8.666  19.311  0.00  0.00    +0.000 A 
ATOM     19  C   UNL     1       1.076   9.007  20.534  0.00  0.00    +0.000 A 
ATOM     20  C   UNL     1       0.469  10.257  20.708  0.00  0.00    +0.000 A 
BRANCH  15  21
ATOM     21  O   UNL     1      -0.206  12.377  19.675  0.00  0.00    +0.000 OA
BRANCH  21  23
ATOM     22  C   UNL     1      -2.469  11.927  19.072  0.00  0.00    +0.000 C 
ATOM     23  C   UNL     1      -1.176  12.599  18.651  0.00  0.00    +0.000 C 
ENDBRANCH  21  23
ENDBRANCH  15  21
ENDBRANCH  11  18
ENDBRANCH   1  12
BRANCH   2  24
ATOM     24  N   UNL     1       5.122   5.408  16.448  0.00  0.00    +0.000 N 
ATOM     25  C   UNL     1       6.510   5.368  16.540  0.00  0.00    +0.000 C 
ATOM     26  O   UNL     1       7.139   4.969  17.509  0.00  0.00    +0.000 OA
ATOM     27  H   UNL     1       4.738   5.264  15.520  0.00  0.00    +0.000 HD
BRANCH  25  28
ATOM     28  C   UNL     1       7.232   5.783  15.268  0.00  0.00    +0.000 C 
BRANCH  28  29
ATOM     29  C   UNL     1       6.901   4.963  14.045  0.00  0.00    +0.000 A 
ATOM     30  C   UNL     1       7.689   4.996  12.885  0.00  0.00    +0.000 A 
ATOM     31  C   UNL     1       7.364   4.203  11.783  0.00  0.00    +0.000 A 
ATOM     32  C   UNL     1       6.264   3.350  11.833  0.00  0.00    +0.000 A 
ATOM     33  C   UNL     1       5.497   3.276  12.992  0.00  0.00    +0.000 A 
ATOM     34  C   UNL     1       5.819   4.071  14.094  0.00  0.00    +0.000 A 
ENDBRANCH  28  29
ENDBRANCH  25  28
ENDBRANCH   2  24
TORSDOF 7
ENDMDL
MODEL 4
REMARK VINA RESULT:      -6.7      1.110      1.237
REMARK  Name = 
REMARK  8 active torsions:
REMARK  status: ('A' for Active; 'I' for Inactive)
REMARK    1  A    between atoms: C_1  and  C_2
REMARK    2  A    between atoms: C_2  and  O_3
REMARK    3  A    between atoms: O_3  and  C_4
REMARK    4  A    between atoms: C_7  and  N_8
REMARK    5  A    between atoms: C_9  and  C_11
REMARK    6  A    between atoms: C_12  and  N_13
REMARK    7  A    between atoms: C_14  and  C_16
REMARK    8  A    between atoms: C_16  and  C_17
REMARK                            x       y       z     vdW  Elec       q    Type
REMARK                         _______ _______ _______ _____ _____    ______ ____
ROOT
ATOM      1  C   UNL     1       1.575   8.653  19.518  0.00  0.00    +0.000 A 
ATOM      2  C   UNL     1       1.492   7.950  20.704  0.00  0.00    +0.000 A 
ATOM      3  S   UNL     1       0.480   8.693  21.842  0.00  0.00    +0.000 S 
ATOM      4  C   UNL     1       0.090   9.969  20.769  0.00  0.00    +0.000 A 
ATOM      5  C   UNL     1       0.736   9.838  19.547  0.00  0.00    +0.000 A 
ATOM      6  C   UNL     1       0.552  10.771  18.369  0.00  0.00    +0.000 C 
ATOM      7  C   UNL     1      -0.906  11.180  18.167  0.00  0.00    +0.000 C 
ATOM      8  C   UNL     1      -1.362  12.327  19.071  0.00  0.00    +0.000 C 
ATOM      9  C   UNL     1      -0.783  12.338  20.487  0.00  0.00    +0.000 C 
ATOM     10  C   UNL     1      -0.906  11.005  21.219  0.00  0.00    +0.000 C 
ENDROOT
BRANCH   1  12
ATOM     11  N   UNL     1       3.178   7.143  18.627  0.00  0.00    +0.000 N 
ATOM     12  C   UNL     1       2.346   8.215  18.355  0.00  0.00    +0.000 C 
ATOM     13  O   UNL     1       2.186   8.745  17.262  0.00  0.00    +0.000 OA
ATOM     14  H   UNL     1       3.051   6.696  19.528  0.00  0.00    +0.000 HD
BRANCH  11  18
ATOM     15  C   UNL     1       5.771   5.123  15.995  0.00  0.00    +0.000 A 
ATOM     16  C   UNL     1       6.099   6.404  16.425  0.00  0.00    +0.000 A 
ATOM     17  C   UNL     1       5.253   7.093  17.294  0.00  0.00    +0.000 A 
ATOM     18  C   UNL     1       4.057   6.516  17.724  0.00  0.00    +0.000 A 
ATOM     19  C   UNL     1       3.713   5.245  17.262  0.00  0.00    +0.000 A 
ATOM     20  C   UNL     1       4.560   4.555  16.386  0.00  0.00    +0.000 A 
BRANCH  15  21
ATOM     21  O   UNL     1       6.706   4.526  15.197  0.00  0.00    +0.000 OA
BRANCH  21  23
ATOM     22  C   UNL     1       6.786   4.114  12.849  0.00  0.00    +0.000 C 
ATOM     23  C   UNL     1       6.189   3.676  14.173  0.00  0.00    +0.000 C 
ENDBRANCH  21  23
ENDBRANCH  15  21
ENDBRANCH  11  18
ENDBRANCH   1  12
BRANCH   2  24
ATOM     24  N   UNL     1       2.169   6.805  21.109  0.00  0.00    +0.000 N 
ATOM     25  C   UNL     1       1.537   5.574  20.959  0.00  0.00    +0.000 C 
ATOM     26  O   UNL     1       0.401   5.413  20.535  0.00  0.00    +0.000 OA
ATOM     27  H   UNL     1       3.174   6.803  20.973  0.00  0.00    +0.000 HD
BRANCH  25  28
ATOM     28  C   UNL     1       2.417   4.377  21.282  0.00  0.00    +0.000 C 
BRANCH  28  29
ATOM     29  C   UNL     1       2.650   3.424  20.135  0.00  0.00    +0.000 A 
ATOM     30  C   UNL     1       3.879   2.778  19.936  0.00  0.00    +0.000 A 
ATOM     31  C   UNL     1       4.048   1.883  18.878  0.00  0.00    +0.000 A 
ATOM     32  C   UNL     1       2.986   1.604  18.019  0.00  0.00    +0.000 A 
ATOM     33  C   UNL     1       1.749   2.206  18.230  0.00  0.00    +0.000 A 
ATOM     34  C   UNL     1       1.580   3.104  19.286  0.00  0.00    +0.000 A 
ENDBRANCH  28  29
ENDBRANCH  25  28
ENDBRANCH   2  24
TORSDOF 7
ENDMDL
MODEL 5
REMARK VINA RESULT:      -6.6      2.283      7.822
REMARK  Name = 
REMARK  8 active torsions:
REMARK  status: ('A' for Active; 'I' for Inactive)
REMARK    1  A    between atoms: C_1  and  C_2
REMARK    2  A    between atoms: C_2  and  O_3
REMARK    3  A    between atoms: O_3  and  C_4
REMARK    4  A    between atoms: C_7  and  N_8
REMARK    5  A    between atoms: C_9  and  C_11
REMARK    6  A    between atoms: C_12  and  N_13
REMARK    7  A    between atoms: C_14  and  C_16
REMARK    8  A    between atoms: C_16  and  C_17
REMARK                            x       y       z     vdW  Elec       q    Type
REMARK                         _______ _______ _______ _____ _____    ______ ____
ROOT
ATOM      1  C   UNL     1       3.456   5.673  18.546  0.00  0.00    +0.000 A 
ATOM      2  C   UNL     1       4.373   5.065  17.710  0.00  0.00    +0.000 A 
ATOM      3  S   UNL     1       4.652   3.441  18.106  0.00  0.00    +0.000 S 
ATOM      4  C   UNL     1       3.524   3.487  19.394  0.00  0.00    +0.000 A 
ATOM      5  C   UNL     1       2.942   4.739  19.533  0.00  0.00    +0.000 A 
ATOM      6  C   UNL     1       1.864   5.083  20.539  0.00  0.00    +0.000 C 
ATOM      7  C   UNL     1       0.815   3.982  20.674  0.00  0.00    +0.000 C 
ATOM      8  C   UNL     1       1.230   2.836  21.599  0.00  0.00    +0.000 C 
ATOM      9  C   UNL     1       2.708   2.444  21.562  0.00  0.00    +0.000 C 
ATOM     10  C   UNL     1       3.256   2.216  20.156  0.00  0.00    +0.000 C 
ENDROOT
BRANCH   1  12
ATOM     11  N   UNL     1       2.125   7.446  19.399  0.00  0.00    +0.000 N 
ATOM     12  C   UNL     1       3.004   7.057  18.403  0.00  0.00    +0.000 C 
ATOM     13  O   UNL     1       3.439   7.768  17.505  0.00  0.00    +0.000 OA
ATOM     14  H   UNL     1       2.017   6.804  20.176  0.00  0.00    +0.000 HD
BRANCH  11  18
ATOM     15  C   UNL     1       0.353  11.258  19.639  0.00  0.00    +0.000 A 
ATOM     16  C   UNL     1       0.535  10.518  20.801  0.00  0.00    +0.000 A 
ATOM     17  C   UNL     1       1.117   9.251  20.744  0.00  0.00    +0.000 A 
ATOM     18  C   UNL     1       1.502   8.702  19.520  0.00  0.00    +0.000 A 
ATOM     19  C   UNL     1       1.283   9.432  18.352  0.00  0.00    +0.000 A 
ATOM     20  C   UNL     1       0.694  10.702  18.408  0.00  0.00    +0.000 A 
BRANCH  15  21
ATOM     21  O   UNL     1      -0.169  12.507  19.828  0.00  0.00    +0.000 OA
BRANCH  21  23
ATOM     22  C   UNL     1      -2.526  12.193  19.653  0.00  0.00    +0.000 C 
ATOM     23  C   UNL     1      -1.382  12.560  20.578  0.00  0.00    +0.000 C 
ENDBRANCH  21  23
ENDBRANCH  15  21
ENDBRANCH  11  18
ENDBRANCH   1  12
BRANCH   2  24
ATOM     24  N   UNL     1       5.136   5.607  16.682  0.00  0.00    +0.000 N 
ATOM     25  C   UNL     1       6.482   5.266  16.604  0.00  0.00    +0.000 C 
ATOM     26  O   UNL     1       7.074   4.551  17.402  0.00  0.00    +0.000 OA
ATOM     27  H   UNL     1       4.664   5.743  15.794  0.00  0.00    +0.000 HD
BRANCH  25  28
ATOM     28  C   UNL     1       7.187   5.781  15.360  0.00  0.00    +0.000 C 
BRANCH  28  29
ATOM     29  C   UNL     1       6.973   4.958  14.113  0.00  0.00    +0.000 A 
ATOM     30  C   UNL     1       5.976   3.975  14.027  0.00  0.00    +0.000 A 
ATOM     31  C   UNL     1       5.792   3.252  12.846  0.00  0.00    +0.000 A 
ATOM     32  C   UNL     1       6.585   3.516  11.731  0.00  0.00    +0.000 A 
ATOM     33  C   UNL     1       7.551   4.517  11.790  0.00  0.00    +0.000 A 
ATOM     34  C   UNL     1       7.738   5.238  12.970  0.00  0.00    +0.000 A 
ENDBRANCH  28  29
ENDBRANCH  25  28
ENDBRANCH   2  24
TORSDOF 7
ENDMDL
MODEL 6
REMARK VINA RESULT:      -6.6      5.134      8.156
REMARK  Name = 
REMARK  8 active torsions:
REMARK  status: ('A' for Active; 'I' for Inactive)
REMARK    1  A    between atoms: C_1  and  C_2
REMARK    2  A    between atoms: C_2  and  O_3
REMARK    3  A    between atoms: O_3  and  C_4
REMARK    4  A    between atoms: C_7  and  N_8
REMARK    5  A    between atoms: C_9  and  C_11
REMARK    6  A    between atoms: C_12  and  N_13
REMARK    7  A    between atoms: C_14  and  C_16
REMARK    8  A    between atoms: C_16  and  C_17
REMARK                            x       y       z     vdW  Elec       q    Type
REMARK                         _______ _______ _______ _____ _____    ______ ____
ROOT
ATOM      1  C   UNL     1      -2.484  12.329  21.070  0.00  0.00    +0.000 A 
ATOM      2  C   UNL     1      -1.617  11.923  22.067  0.00  0.00    +0.000 A 
ATOM      3  S   UNL     1      -2.208  12.238  23.624  0.00  0.00    +0.000 S 
ATOM      4  C   UNL     1      -3.665  12.901  23.015  0.00  0.00    +0.000 A 
ATOM      5  C   UNL     1      -3.701  12.894  21.627  0.00  0.00    +0.000 A 
ATOM      6  C   UNL     1      -4.876  13.355  20.792  0.00  0.00    +0.000 C 
ATOM      7  C   UNL     1      -6.218  12.909  21.369  0.00  0.00    +0.000 C 
ATOM      8  C   UNL     1      -6.741  13.804  22.494  0.00  0.00    +0.000 C 
ATOM      9  C   UNL     1      -5.686  14.379  23.441  0.00  0.00    +0.000 C 
ATOM     10  C   UNL     1      -4.718  13.340  23.998  0.00  0.00    +0.000 C 
ENDROOT
BRANCH   1  12
ATOM     11  N   UNL     1      -3.200  11.356  19.025  0.00  0.00    +0.000 N 
ATOM     12  C   UNL     1      -2.240  12.140  19.641  0.00  0.00    +0.000 C 
ATOM     13  O   UNL     1      -1.295  12.691  19.089  0.00  0.00    +0.000 OA
ATOM     14  H   UNL     1      -4.020  11.137  19.578  0.00  0.00    +0.000 HD
BRANCH  11  18
ATOM     15  C   UNL     1      -3.118  10.207  14.974  0.00  0.00    +0.000 A 
ATOM     16  C   UNL     1      -4.070  11.126  15.403  0.00  0.00    +0.000 A 
ATOM     17  C   UNL     1      -4.117  11.518  16.741  0.00  0.00    +0.000 A 
ATOM     18  C   UNL     1      -3.227  10.977  17.670  0.00  0.00    +0.000 A 
ATOM     19  C   UNL     1      -2.297  10.027  17.244  0.00  0.00    +0.000 A 
ATOM     20  C   UNL     1      -2.253   9.630  15.902  0.00  0.00    +0.000 A 
BRANCH  15  21
ATOM     21  O   UNL     1      -3.129   9.949  13.633  0.00  0.00    +0.000 OA
BRANCH  21  23
ATOM     22  C   UNL     1      -4.369   9.888  11.596  0.00  0.00    +0.000 C 
ATOM     23  C   UNL     1      -4.401   9.600  13.085  0.00  0.00    +0.000 C 
ENDBRANCH  21  23
ENDBRANCH  15  21
ENDBRANCH  11  18
ENDBRANCH   1  12
BRANCH   2  24
ATOM     24  N   UNL     1      -0.337  11.391  21.970  0.00  0.00    +0.000 N 
ATOM     25  C   UNL     1      -0.182  10.012  22.085  0.00  0.00    +0.000 C 
ATOM     26  O   UNL     1      -1.085   9.219  22.310  0.00  0.00    +0.000 OA
ATOM     27  H   UNL     1       0.297  11.853  21.326  0.00  0.00    +0.000 HD
BRANCH  25  28
ATOM     28  C   UNL     1       1.229   9.517  21.807  0.00  0.00    +0.000 C 
BRANCH  28  29
ATOM     29  C   UNL     1       1.484   9.065  20.390  0.00  0.00    +0.000 A 
ATOM     30  C   UNL     1       1.976   7.787  20.089  0.00  0.00    +0.000 A 
ATOM     31  C   UNL     1       2.175   7.397  18.763  0.00  0.00    +0.000 A 
ATOM     32  C   UNL     1       1.863   8.268  17.721  0.00  0.00    +0.000 A 
ATOM     33  C   UNL     1       1.334   9.524  18.005  0.00  0.00    +0.000 A 
ATOM     34  C   UNL     1       1.138   9.917  19.330  0.00  0.00    +0.000 A 
ENDBRANCH  28  29
ENDBRANCH  25  28
ENDBRANCH   2  24
TORSDOF 7
ENDMDL
MODEL 7
REMARK VINA RESULT:      -6.6      2.302      7.734
REMARK  Name = 
REMARK  8 active torsions:
REMARK  status: ('A' for Active; 'I' for Inactive)
REMARK    1  A    between atoms: C_1  and  C_2
REMARK    2  A    between atoms: C_2  and  O_3
REMARK    3  A    between atoms: O_3  and  C_4
REMARK    4  A    between atoms: C_7  and  N_8
REMARK    5  A    between atoms: C_9  and  C_11
REMARK    6  A    between atoms: C_12  and  N_13
REMARK    7  A    between atoms: C_14  and  C_16
REMARK    8  A    between atoms: C_16  and  C_17
REMARK                            x       y       z     vdW  Elec       q    Type
REMARK                         _______ _______ _______ _____ _____    ______ ____
ROOT
ATOM      1  C   UNL     1       3.628   5.515  18.339  0.00  0.00    +0.000 A 
ATOM      2  C   UNL     1       4.387   4.819  17.417  0.00  0.00    +0.000 A 
ATOM      3  S   UNL     1       4.446   3.155  17.733  0.00  0.00    +0.000 S 
ATOM      4  C   UNL     1       3.427   3.305  19.101  0.00  0.00    +0.000 A 
ATOM      5  C   UNL     1       3.048   4.621  19.326  0.00  0.00    +0.000 A 
ATOM      6  C   UNL     1       2.103   5.072  20.420  0.00  0.00    +0.000 C 
ATOM      7  C   UNL     1       0.913   4.131  20.592  0.00  0.00    +0.000 C 
ATOM      8  C   UNL     1       1.214   2.896  21.443  0.00  0.00    +0.000 C 
ATOM      9  C   UNL     1       2.611   2.294  21.285  0.00  0.00    +0.000 C 
ATOM     10  C   UNL     1       3.024   2.054  19.835  0.00  0.00    +0.000 C 
ENDROOT
BRANCH   1  12
ATOM     11  N   UNL     1       2.223   7.333  18.940  0.00  0.00    +0.000 N 
ATOM     12  C   UNL     1       3.378   6.954  18.278  0.00  0.00    +0.000 C 
ATOM     13  O   UNL     1       4.177   7.706  17.732  0.00  0.00    +0.000 OA
ATOM     14  H   UNL     1       1.777   6.620  19.505  0.00  0.00    +0.000 HD
BRANCH  11  18
ATOM     15  C   UNL     1       0.557  11.180  19.334  0.00  0.00    +0.000 A 
ATOM     16  C   UNL     1       1.133  10.808  18.124  0.00  0.00    +0.000 A 
ATOM     17  C   UNL     1       1.694   9.540  17.973  0.00  0.00    +0.000 A 
ATOM     18  C   UNL     1       1.705   8.638  19.038  0.00  0.00    +0.000 A 
ATOM     19  C   UNL     1       1.160   9.028  20.262  0.00  0.00    +0.000 A 
ATOM     20  C   UNL     1       0.601  10.303  20.416  0.00  0.00    +0.000 A 
BRANCH  15  21
ATOM     21  O   UNL     1      -0.014  12.422  19.342  0.00  0.00    +0.000 OA
BRANCH  21  23
ATOM     22  C   UNL     1       0.925  14.595  19.626  0.00  0.00    +0.000 C 
ATOM     23  C   UNL     1       0.489  13.324  20.327  0.00  0.00    +0.000 C 
ENDBRANCH  21  23
ENDBRANCH  15  21
ENDBRANCH  11  18
ENDBRANCH   1  12
BRANCH   2  24
ATOM     24  N   UNL     1       5.151   5.290  16.356  0.00  0.00    +0.000 N 
ATOM     25  C   UNL     1       6.537   5.273  16.479  0.00  0.00    +0.000 C 
ATOM     26  O   UNL     1       7.151   4.913  17.473  0.00  0.00    +0.000 OA
ATOM     27  H   UNL     1       4.789   5.112  15.425  0.00  0.00    +0.000 HD
BRANCH  25  28
ATOM     28  C   UNL     1       7.281   5.658  15.210  0.00  0.00    +0.000 C 
BRANCH  28  29
ATOM     29  C   UNL     1       6.953   4.825  13.995  0.00  0.00    +0.000 A 
ATOM     30  C   UNL     1       5.911   3.887  13.989  0.00  0.00    +0.000 A 
ATOM     31  C   UNL     1       5.622   3.154  12.836  0.00  0.00    +0.000 A 
ATOM     32  C   UNL     1       6.354   3.364  11.669  0.00  0.00    +0.000 A 
ATOM     33  C   UNL     1       7.364   4.321  11.649  0.00  0.00    +0.000 A 
ATOM     34  C   UNL     1       7.657   5.053  12.802  0.00  0.00    +0.000 A 
ENDBRANCH  28  29
ENDBRANCH  25  28
ENDBRANCH   2  24
TORSDOF 7
ENDMDL
MODEL 8
REMARK VINA RESULT:      -6.6      4.229      8.185
REMARK  Name = 
REMARK  8 active torsions:
REMARK  status: ('A' for Active; 'I' for Inactive)
REMARK    1  A    between atoms: C_1  and  C_2
REMARK    2  A    between atoms: C_2  and  O_3
REMARK    3  A    between atoms: O_3  and  C_4
REMARK    4  A    between atoms: C_7  and  N_8
REMARK    5  A    between atoms: C_9  and  C_11
REMARK    6  A    between atoms: C_12  and  N_13
REMARK    7  A    between atoms: C_14  and  C_16
REMARK    8  A    between atoms: C_16  and  C_17
REMARK                            x       y       z     vdW  Elec       q    Type
REMARK                         _______ _______ _______ _____ _____    ______ ____
ROOT
ATOM      1  C   UNL     1       0.949  12.943  19.085  0.00  0.00    +0.000 A 
ATOM      2  C   UNL     1      -0.227  13.383  18.509  0.00  0.00    +0.000 A 
ATOM      3  S   UNL     1      -0.729  14.889  19.102  0.00  0.00    +0.000 S 
ATOM      4  C   UNL     1       0.634  15.020  20.130  0.00  0.00    +0.000 A 
ATOM      5  C   UNL     1       1.468  13.914  20.032  0.00  0.00    +0.000 A 
ATOM      6  C   UNL     1       2.783  13.757  20.766  0.00  0.00    +0.000 C 
ATOM      7  C   UNL     1       3.599  15.048  20.792  0.00  0.00    +0.000 C 
ATOM      8  C   UNL     1       3.174  16.032  21.883  0.00  0.00    +0.000 C 
ATOM      9  C   UNL     1       1.674  16.102  22.179  0.00  0.00    +0.000 C 
ATOM     10  C   UNL     1       0.804  16.278  20.938  0.00  0.00    +0.000 C 
ENDROOT
BRANCH   1  12
ATOM     11  N   UNL     1       1.070  10.583  19.336  0.00  0.00    +0.000 N 
ATOM     12  C   UNL     1       1.624  11.696  18.726  0.00  0.00    +0.000 C 
ATOM     13  O   UNL     1       2.545  11.693  17.918  0.00  0.00    +0.000 OA
ATOM     14  H   UNL     1       0.193  10.731  19.822  0.00  0.00    +0.000 HD
BRANCH  11  18
ATOM     15  C   UNL     1       2.452   6.613  19.106  0.00  0.00    +0.000 A 
ATOM     16  C   UNL     1       2.434   7.396  17.956  0.00  0.00    +0.000 A 
ATOM     17  C   UNL     1       1.977   8.712  18.009  0.00  0.00    +0.000 A 
ATOM     18  C   UNL     1       1.511   9.253  19.209  0.00  0.00    +0.000 A 
ATOM     19  C   UNL     1       1.496   8.453  20.351  0.00  0.00    +0.000 A 
ATOM     20  C   UNL     1       1.950   7.130  20.298  0.00  0.00    +0.000 A 
BRANCH  15  21
ATOM     21  O   UNL     1       2.979   5.362  18.942  0.00  0.00    +0.000 OA
BRANCH  21  23
ATOM     22  C   UNL     1       1.523   3.775  17.918  0.00  0.00    +0.000 C 
ATOM     23  C   UNL     1       2.094   4.280  19.229  0.00  0.00    +0.000 C 
ENDBRANCH  21  23
ENDBRANCH  15  21
ENDBRANCH  11  18
ENDBRANCH   1  12
BRANCH   2  24
ATOM     24  N   UNL     1      -1.070  12.743  17.607  0.00  0.00    +0.000 N 
ATOM     25  C   UNL     1      -1.969  11.800  18.095  0.00  0.00    +0.000 C 
ATOM     26  O   UNL     1      -2.053  11.447  19.263  0.00  0.00    +0.000 OA
ATOM     27  H   UNL     1      -1.397  13.298  16.823  0.00  0.00    +0.000 HD
BRANCH  25  28
ATOM     28  C   UNL     1      -2.950  11.276  17.059  0.00  0.00    +0.000 C 
BRANCH  28  29
ATOM     29  C   UNL     1      -4.402  11.327  17.465  0.00  0.00    +0.000 A 
ATOM     30  C   UNL     1      -4.964  10.398  18.353  0.00  0.00    +0.000 A 
ATOM     31  C   UNL     1      -6.307  10.494  18.725  0.00  0.00    +0.000 A 
ATOM     32  C   UNL     1      -7.099  11.530  18.235  0.00  0.00    +0.000 A 
ATOM     33  C   UNL     1      -6.543  12.483  17.385  0.00  0.00    +0.000 A 
ATOM     34  C   UNL     1      -5.202  12.387  17.009  0.00  0.00    +0.000 A 
ENDBRANCH  28  29
ENDBRANCH  25  28
ENDBRANCH   2  24
TORSDOF 7
ENDMDL
MODEL 9
REMARK VINA RESULT:      -6.5      3.718      8.660
REMARK  Name = 
REMARK  8 active torsions:
REMARK  status: ('A' for Active; 'I' for Inactive)
REMARK    1  A    between atoms: C_1  and  C_2
REMARK    2  A    between atoms: C_2  and  O_3
REMARK    3  A    between atoms: O_3  and  C_4
REMARK    4  A    between atoms: C_7  and  N_8
REMARK    5  A    between atoms: C_9  and  C_11
REMARK    6  A    between atoms: C_12  and  N_13
REMARK    7  A    between atoms: C_14  and  C_16
REMARK    8  A    between atoms: C_16  and  C_17
REMARK                            x       y       z     vdW  Elec       q    Type
REMARK                         _______ _______ _______ _____ _____    ______ ____
ROOT
ATOM      1  C   UNL     1       3.722   6.196  18.133  0.00  0.00    +0.000 A 
ATOM      2  C   UNL     1       4.968   6.140  17.540  0.00  0.00    +0.000 A 
ATOM      3  S   UNL     1       5.572   4.561  17.419  0.00  0.00    +0.000 S 
ATOM      4  C   UNL     1       4.164   3.892  18.129  0.00  0.00    +0.000 A 
ATOM      5  C   UNL     1       3.238   4.868  18.469  0.00  0.00    +0.000 A 
ATOM      6  C   UNL     1       1.870   4.593  19.058  0.00  0.00    +0.000 C 
ATOM      7  C   UNL     1       1.180   3.397  18.404  0.00  0.00    +0.000 C 
ATOM      8  C   UNL     1       1.626   2.042  18.956  0.00  0.00    +0.000 C 
ATOM      9  C   UNL     1       3.104   1.923  19.334  0.00  0.00    +0.000 C 
ATOM     10  C   UNL     1       4.063   2.394  18.245  0.00  0.00    +0.000 C 
ENDROOT
BRANCH   1  12
ATOM     11  N   UNL     1       2.314   7.483  19.549  0.00  0.00    +0.000 N 
ATOM     12  C   UNL     1       2.956   7.427  18.324  0.00  0.00    +0.000 C 
ATOM     13  O   UNL     1       2.966   8.309  17.473  0.00  0.00    +0.000 OA
ATOM     14  H   UNL     1       2.562   6.763  20.216  0.00  0.00    +0.000 HD
BRANCH  11  18
ATOM     15  C   UNL     1      -0.241  10.485  21.029  0.00  0.00    +0.000 A 
ATOM     16  C   UNL     1       0.220  10.567  19.720  0.00  0.00    +0.000 A 
ATOM     17  C   UNL     1       1.069   9.586  19.210  0.00  0.00    +0.000 A 
ATOM     18  C   UNL     1       1.487   8.523  20.013  0.00  0.00    +0.000 A 
ATOM     19  C   UNL     1       1.053   8.464  21.337  0.00  0.00    +0.000 A 
ATOM     20  C   UNL     1       0.204   9.452  21.851  0.00  0.00    +0.000 A 
BRANCH  15  21
ATOM     21  O   UNL     1      -1.116  11.469  21.395  0.00  0.00    +0.000 OA
BRANCH  21  23
ATOM     22  C   UNL     1      -0.909  13.327  22.876  0.00  0.00    +0.000 C 
ATOM     23  C   UNL     1      -1.098  11.826  22.777  0.00  0.00    +0.000 C 
ENDBRANCH  21  23
ENDBRANCH  15  21
ENDBRANCH  11  18
ENDBRANCH   1  12
BRANCH   2  24
ATOM     24  N   UNL     1       5.802   7.171  17.123  0.00  0.00    +0.000 N 
ATOM     25  C   UNL     1       7.051   7.297  17.724  0.00  0.00    +0.000 C 
ATOM     26  O   UNL     1       7.469   6.593  18.632  0.00  0.00    +0.000 OA
ATOM     27  H   UNL     1       5.760   7.417  16.139  0.00  0.00    +0.000 HD
BRANCH  25  28
ATOM     28  C   UNL     1       7.946   8.351  17.091  0.00  0.00    +0.000 C 
BRANCH  28  29
ATOM     29  C   UNL     1       8.381   9.462  18.014  0.00  0.00    +0.000 A 
ATOM     30  C   UNL     1       8.976   9.212  19.259  0.00  0.00    +0.000 A 
ATOM     31  C   UNL     1       9.389  10.268  20.074  0.00  0.00    +0.000 A 
ATOM     32  C   UNL     1       9.234  11.585  19.648  0.00  0.00    +0.000 A 
ATOM     33  C   UNL     1       8.683  11.847  18.397  0.00  0.00    +0.000 A 
ATOM     34  C   UNL     1       8.266  10.793  17.582  0.00  0.00    +0.000 A 
ENDBRANCH  28  29
ENDBRANCH  25  28
ENDBRANCH   2  24
TORSDOF 7
ENDMDL
