MODEL 1
REMARK VINA RESULT:      -8.2      0.000      0.000
REMARK  Name = 
REMARK  11 active torsions:
REMARK  status: ('A' for Active; 'I' for Inactive)
REMARK    1  A    between atoms: C_2  and  C_3
REMARK    2  A    between atoms: C_3  and  O_4
REMARK    3  A    between atoms: O_4  and  C_5
REMARK    4  A    between atoms: C_8  and  C_9
REMARK    5  A    between atoms: C_11  and  C_12
REMARK    6  A    between atoms: C_15  and  O_16
REMARK    7  A    between atoms: O_16  and  C_17
REMARK    8  A    between atoms: C_17  and  C_18
REMARK    9  A    between atoms: C_20  and  O_21
REMARK   10  A    between atoms: O_21  and  C_22
REMARK   11  A    between atoms: C_25  and  C_26
REMARK                            x       y       z     vdW  Elec       q    Type
REMARK                         _______ _______ _______ _____ _____    ______ ____
ROOT
ATOM      1  C   UNL     1       1.930   6.913  20.103  0.00  0.00    +0.000 A 
ATOM      2  C   UNL     1       2.901   6.824  19.127  0.00  0.00    +0.000 A 
ATOM      3  C   UNL     1       3.324   5.562  18.776  0.00  0.00    +0.000 A 
ATOM      4  N   UNL     1       2.791   4.453  19.325  0.00  0.00    +0.000 NA
ATOM      5  C   UNL     1       1.836   4.618  20.251  0.00  0.00    +0.000 A 
ATOM      6  C   UNL     1       1.238   3.391  20.858  0.00  0.00    +0.000 C 
ATOM      7  N   UNL     1       1.386   5.812  20.666  0.00  0.00    +0.000 NA
ENDROOT
BRANCH   1  11
ATOM      8  C   UNL     1       0.400  10.686  21.486  0.00  0.00    +0.000 A 
ATOM      9  C   UNL     1       0.689   9.664  22.391  0.00  0.00    +0.000 A 
ATOM     10  C   UNL     1       1.208   8.447  21.941  0.00  0.00    +0.000 A 
ATOM     11  C   UNL     1       1.426   8.213  20.574  0.00  0.00    +0.000 A 
ATOM     12  C   UNL     1       1.127   9.258  19.679  0.00  0.00    +0.000 A 
ATOM     13  C   UNL     1       0.611  10.477  20.127  0.00  0.00    +0.000 A 
BRANCH   8  14
ATOM     14  O   UNL     1      -0.116  11.822  22.038  0.00  0.00    +0.000 OA
BRANCH  14  15
ATOM     15  C   UNL     1      -1.151  11.608  22.989  0.00  0.00    +0.000 C 
BRANCH  15  17
ATOM     16  C   UNL     1      -3.534  12.759  22.003  0.00  0.00    +0.000 C 
ATOM     17  C   UNL     1      -2.433  12.227  22.459  0.00  0.00    +0.000 C 
ENDBRANCH  15  17
ENDBRANCH  14  15
ENDBRANCH   8  14
ENDBRANCH   1  11
BRANCH   3  18
ATOM     18  C   UNL     1       4.389   5.334  17.795  0.00  0.00    +0.000 A 
ATOM     19  C   UNL     1       4.349   4.189  16.995  0.00  0.00    +0.000 A 
ATOM     20  C   UNL     1       5.376   3.913  16.106  0.00  0.00    +0.000 A 
ATOM     21  C   UNL     1       6.458   4.797  15.955  0.00  0.00    +0.000 A 
ATOM     22  C   UNL     1       6.532   5.944  16.757  0.00  0.00    +0.000 A 
ATOM     23  C   UNL     1       5.489   6.202  17.658  0.00  0.00    +0.000 A 
BRANCH  22  24
ATOM     24  O   UNL     1       7.631   6.751  16.612  0.00  0.00    +0.000 OA
ATOM     25  C   UNL     1       7.735   7.886  17.472  0.00  0.00    +0.000 C 
ENDBRANCH  22  24
BRANCH  21  26
ATOM     26  O   UNL     1       7.448   4.554  15.034  0.00  0.00    +0.000 OA
BRANCH  26  27
ATOM     27  C   UNL     1       7.176   5.081  13.731  0.00  0.00    +0.000 C 
BRANCH  27  28
ATOM     28  C   UNL     1       6.508   4.008  12.885  0.00  0.00    +0.000 C 
ATOM     29  C   UNL     1       5.935   3.088  12.161  0.00  0.00    +0.000 C 
ENDBRANCH  27  28
ENDBRANCH  26  27
ENDBRANCH  21  26
ENDBRANCH   3  18
TORSDOF 9
ENDMDL
MODEL 2
REMARK VINA RESULT:      -8.1      0.445      1.040
REMARK  Name = 
REMARK  11 active torsions:
REMARK  status: ('A' for Active; 'I' for Inactive)
REMARK    1  A    between atoms: C_2  and  C_3
REMARK    2  A    between atoms: C_3  and  O_4
REMARK    3  A    between atoms: O_4  and  C_5
REMARK    4  A    between atoms: C_8  and  C_9
REMARK    5  A    between atoms: C_11  and  C_12
REMARK    6  A    between atoms: C_15  and  O_16
REMARK    7  A    between atoms: O_16  and  C_17
REMARK    8  A    between atoms: C_17  and  C_18
REMARK    9  A    between atoms: C_20  and  O_21
REMARK   10  A    between atoms: O_21  and  C_22
REMARK   11  A    between atoms: C_25  and  C_26
REMARK                            x       y       z     vdW  Elec       q    Type
REMARK                         _______ _______ _______ _____ _____    ______ ____
ROOT
ATOM      1  C   UNL     1       1.945   6.946  20.176  0.00  0.00    +0.000 A 
ATOM      2  C   UNL     1       2.877   6.842  19.165  0.00  0.00    +0.000 A 
ATOM      3  C   UNL     1       3.404   5.594  18.923  0.00  0.00    +0.000 A 
ATOM      4  N   UNL     1       3.004   4.505  19.611  0.00  0.00    +0.000 NA
ATOM      5  C   UNL     1       2.079   4.682  20.564  0.00  0.00    +0.000 A 
ATOM      6  C   UNL     1       1.628   3.478  21.325  0.00  0.00    +0.000 C 
ATOM      7  N   UNL     1       1.535   5.867  20.878  0.00  0.00    +0.000 NA
ENDROOT
BRANCH   1  11
ATOM      8  C   UNL     1       0.233  10.745  21.236  0.00  0.00    +0.000 A 
ATOM      9  C   UNL     1       0.689  10.511  19.938  0.00  0.00    +0.000 A 
ATOM     10  C   UNL     1       1.224   9.268  19.591  0.00  0.00    +0.000 A 
ATOM     11  C   UNL     1       1.339   8.238  20.538  0.00  0.00    +0.000 A 
ATOM     12  C   UNL     1       0.873   8.497  21.841  0.00  0.00    +0.000 A 
ATOM     13  C   UNL     1       0.335   9.739  22.190  0.00  0.00    +0.000 A 
BRANCH   8  14
ATOM     14  O   UNL     1      -0.254  12.000  21.463  0.00  0.00    +0.000 OA
BRANCH  14  15
ATOM     15  C   UNL     1      -1.634  12.169  21.159  0.00  0.00    +0.000 C 
BRANCH  15  17
ATOM     16  C   UNL     1      -3.089  12.225  23.579  0.00  0.00    +0.000 C 
ATOM     17  C   UNL     1      -2.417  12.200  22.461  0.00  0.00    +0.000 C 
ENDBRANCH  15  17
ENDBRANCH  14  15
ENDBRANCH   8  14
ENDBRANCH   1  11
BRANCH   3  18
ATOM     18  C   UNL     1       4.443   5.359  17.916  0.00  0.00    +0.000 A 
ATOM     19  C   UNL     1       4.370   4.221  17.110  0.00  0.00    +0.000 A 
ATOM     20  C   UNL     1       5.373   3.938  16.195  0.00  0.00    +0.000 A 
ATOM     21  C   UNL     1       6.461   4.811  16.024  0.00  0.00    +0.000 A 
ATOM     22  C   UNL     1       6.568   5.951  16.832  0.00  0.00    +0.000 A 
ATOM     23  C   UNL     1       5.549   6.215  17.759  0.00  0.00    +0.000 A 
BRANCH  22  24
ATOM     24  O   UNL     1       7.673   6.746  16.667  0.00  0.00    +0.000 OA
ATOM     25  C   UNL     1       7.787   7.901  17.498  0.00  0.00    +0.000 C 
ENDBRANCH  22  24
BRANCH  21  26
ATOM     26  O   UNL     1       7.426   4.562  15.078  0.00  0.00    +0.000 OA
BRANCH  26  27
ATOM     27  C   UNL     1       7.119   5.080  13.779  0.00  0.00    +0.000 C 
BRANCH  27  28
ATOM     28  C   UNL     1       6.448   3.995  12.953  0.00  0.00    +0.000 C 
ATOM     29  C   UNL     1       5.872   3.064  12.243  0.00  0.00    +0.000 C 
ENDBRANCH  27  28
ENDBRANCH  26  27
ENDBRANCH  21  26
ENDBRANCH   3  18
TORSDOF 9
ENDMDL
MODEL 3
REMARK VINA RESULT:      -8.0      1.281      9.631
REMARK  Name = 
REMARK  11 active torsions:
REMARK  status: ('A' for Active; 'I' for Inactive)
REMARK    1  A    between atoms: C_2  and  C_3
REMARK    2  A    between atoms: C_3  and  O_4
REMARK    3  A    between atoms: O_4  and  C_5
REMARK    4  A    between atoms: C_8  and  C_9
REMARK    5  A    between atoms: C_11  and  C_12
REMARK    6  A    between atoms: C_15  and  O_16
REMARK    7  A    between atoms: O_16  and  C_17
REMARK    8  A    between atoms: C_17  and  C_18
REMARK    9  A    between atoms: C_20  and  O_21
REMARK   10  A    between atoms: O_21  and  C_22
REMARK   11  A    between atoms: C_25  and  C_26
REMARK                            x       y       z     vdW  Elec       q    Type
REMARK                         _______ _______ _______ _____ _____    ______ ____
ROOT
ATOM      1  C   UNL     1       3.442   5.451  18.556  0.00  0.00    +0.000 A 
ATOM      2  C   UNL     1       2.879   6.680  18.834  0.00  0.00    +0.000 A 
ATOM      3  C   UNL     1       2.103   6.773  19.966  0.00  0.00    +0.000 A 
ATOM      4  N   UNL     1       1.927   5.727  20.798  0.00  0.00    +0.000 NA
ATOM      5  C   UNL     1       2.523   4.571  20.474  0.00  0.00    +0.000 A 
ATOM      6  C   UNL     1       2.336   3.411  21.396  0.00  0.00    +0.000 C 
ATOM      7  N   UNL     1       3.274   4.391  19.377  0.00  0.00    +0.000 NA
ENDROOT
BRANCH   1  11
ATOM      8  C   UNL     1       5.796   4.819  15.014  0.00  0.00    +0.000 A 
ATOM      9  C   UNL     1       5.391   6.105  15.376  0.00  0.00    +0.000 A 
ATOM     10  C   UNL     1       4.646   6.310  16.539  0.00  0.00    +0.000 A 
ATOM     11  C   UNL     1       4.265   5.233  17.356  0.00  0.00    +0.000 A 
ATOM     12  C   UNL     1       4.684   3.945  16.971  0.00  0.00    +0.000 A 
ATOM     13  C   UNL     1       5.432   3.738  15.808  0.00  0.00    +0.000 A 
BRANCH   8  14
ATOM     14  O   UNL     1       6.505   4.739  13.851  0.00  0.00    +0.000 OA
BRANCH  14  15
ATOM     15  C   UNL     1       6.494   3.459  13.231  0.00  0.00    +0.000 C 
BRANCH  15  17
ATOM     16  C   UNL     1       4.316   3.344  11.437  0.00  0.00    +0.000 C 
ATOM     17  C   UNL     1       5.322   3.398  12.266  0.00  0.00    +0.000 C 
ENDBRANCH  15  17
ENDBRANCH  14  15
ENDBRANCH   8  14
ENDBRANCH   1  11
BRANCH   3  18
ATOM     18  C   UNL     1       1.404   8.005  20.343  0.00  0.00    +0.000 A 
ATOM     19  C   UNL     1       0.713   8.057  21.555  0.00  0.00    +0.000 A 
ATOM     20  C   UNL     1      -0.013   9.185  21.907  0.00  0.00    +0.000 A 
ATOM     21  C   UNL     1      -0.034  10.317  21.076  0.00  0.00    +0.000 A 
ATOM     22  C   UNL     1       0.636  10.286  19.846  0.00  0.00    +0.000 A 
ATOM     23  C   UNL     1       1.356   9.133  19.502  0.00  0.00    +0.000 A 
BRANCH  22  24
ATOM     24  O   UNL     1       0.544  11.395  19.044  0.00  0.00    +0.000 OA
ATOM     25  C   UNL     1       1.760  12.048  18.677  0.00  0.00    +0.000 C 
ENDBRANCH  22  24
BRANCH  21  26
ATOM     26  O   UNL     1      -0.706  11.457  21.449  0.00  0.00    +0.000 OA
BRANCH  26  27
ATOM     27  C   UNL     1      -0.959  11.552  22.855  0.00  0.00    +0.000 C 
BRANCH  27  28
ATOM     28  C   UNL     1      -2.374  12.061  23.076  0.00  0.00    +0.000 C 
ATOM     29  C   UNL     1      -3.588  12.498  23.266  0.00  0.00    +0.000 C 
ENDBRANCH  27  28
ENDBRANCH  26  27
ENDBRANCH  21  26
ENDBRANCH   3  18
TORSDOF 9
ENDMDL
MODEL 4
REMARK VINA RESULT:      -7.8      1.105      1.501
REMARK  Name = 
REMARK  11 active torsions:
REMARK  status: ('A' for Active; 'I' for Inactive)
REMARK    1  A    between atoms: C_2  and  C_3
REMARK    2  A    between atoms: C_3  and  O_4
REMARK    3  A    between atoms: O_4  and  C_5
REMARK    4  A    between atoms: C_8  and  C_9
REMARK    5  A    between atoms: C_11  and  C_12
REMARK    6  A    between atoms: C_15  and  O_16
REMARK    7  A    between atoms: O_16  and  C_17
REMARK    8  A    between atoms: C_17  and  C_18
REMARK    9  A    between atoms: C_20  and  O_21
REMARK   10  A    between atoms: O_21  and  C_22
REMARK   11  A    between atoms: C_25  and  C_26
REMARK                            x       y       z     vdW  Elec       q    Type
REMARK                         _______ _______ _______ _____ _____    ______ ____
ROOT
ATOM      1  C   UNL     1       1.946   6.950  20.132  0.00  0.00    +0.000 A 
ATOM      2  C   UNL     1       2.886   6.848  19.128  0.00  0.00    +0.000 A 
ATOM      3  C   UNL     1       3.400   5.598  18.874  0.00  0.00    +0.000 A 
ATOM      4  N   UNL     1       2.981   4.505  19.542  0.00  0.00    +0.000 NA
ATOM      5  C   UNL     1       2.049   4.679  20.489  0.00  0.00    +0.000 A 
ATOM      6  C   UNL     1       1.577   3.470  21.229  0.00  0.00    +0.000 C 
ATOM      7  N   UNL     1       1.516   5.866  20.815  0.00  0.00    +0.000 NA
ENDROOT
BRANCH   1  11
ATOM      8  C   UNL     1       0.269  10.756  21.223  0.00  0.00    +0.000 A 
ATOM      9  C   UNL     1       0.631  10.494  19.901  0.00  0.00    +0.000 A 
ATOM     10  C   UNL     1       1.154   9.248  19.545  0.00  0.00    +0.000 A 
ATOM     11  C   UNL     1       1.353   8.244  20.506  0.00  0.00    +0.000 A 
ATOM     12  C   UNL     1       0.981   8.530  21.833  0.00  0.00    +0.000 A 
ATOM     13  C   UNL     1       0.455   9.776  22.191  0.00  0.00    +0.000 A 
BRANCH   8  14
ATOM     14  O   UNL     1      -0.216  12.010  21.455  0.00  0.00    +0.000 OA
BRANCH  14  15
ATOM     15  C   UNL     1       0.657  13.068  21.079  0.00  0.00    +0.000 C 
BRANCH  15  17
ATOM     16  C   UNL     1       0.038  15.344  22.631  0.00  0.00    +0.000 C 
ATOM     17  C   UNL     1       0.324  14.293  21.914  0.00  0.00    +0.000 C 
ENDBRANCH  15  17
ENDBRANCH  14  15
ENDBRANCH   8  14
ENDBRANCH   1  11
BRANCH   3  18
ATOM     18  C   UNL     1       4.446   5.364  17.873  0.00  0.00    +0.000 A 
ATOM     19  C   UNL     1       4.390   4.216  17.080  0.00  0.00    +0.000 A 
ATOM     20  C   UNL     1       5.399   3.935  16.171  0.00  0.00    +0.000 A 
ATOM     21  C   UNL     1       6.477   4.820  15.994  0.00  0.00    +0.000 A 
ATOM     22  C   UNL     1       6.566   5.971  16.788  0.00  0.00    +0.000 A 
ATOM     23  C   UNL     1       5.542   6.233  17.709  0.00  0.00    +0.000 A 
BRANCH  22  24
ATOM     24  O   UNL     1       7.662   6.777  16.617  0.00  0.00    +0.000 OA
ATOM     25  C   UNL     1       7.792   7.907  17.481  0.00  0.00    +0.000 C 
ENDBRANCH  22  24
BRANCH  21  26
ATOM     26  O   UNL     1       7.448   4.572  15.054  0.00  0.00    +0.000 OA
BRANCH  26  27
ATOM     27  C   UNL     1       7.145   5.083  13.751  0.00  0.00    +0.000 C 
BRANCH  27  28
ATOM     28  C   UNL     1       6.499   3.986  12.921  0.00  0.00    +0.000 C 
ATOM     29  C   UNL     1       5.943   3.045  12.208  0.00  0.00    +0.000 C 
ENDBRANCH  27  28
ENDBRANCH  26  27
ENDBRANCH  21  26
ENDBRANCH   3  18
TORSDOF 9
ENDMDL
MODEL 5
REMARK VINA RESULT:      -7.8      1.037      1.334
REMARK  Name = 
REMARK  11 active torsions:
REMARK  status: ('A' for Active; 'I' for Inactive)
REMARK    1  A    between atoms: C_2  and  C_3
REMARK    2  A    between atoms: C_3  and  O_4
REMARK    3  A    between atoms: O_4  and  C_5
REMARK    4  A    between atoms: C_8  and  C_9
REMARK    5  A    between atoms: C_11  and  C_12
REMARK    6  A    between atoms: C_15  and  O_16
REMARK    7  A    between atoms: O_16  and  C_17
REMARK    8  A    between atoms: C_17  and  C_18
REMARK    9  A    between atoms: C_20  and  O_21
REMARK   10  A    between atoms: O_21  and  C_22
REMARK   11  A    between atoms: C_25  and  C_26
REMARK                            x       y       z     vdW  Elec       q    Type
REMARK                         _______ _______ _______ _____ _____    ______ ____
ROOT
ATOM      1  C   UNL     1       1.908   7.003  20.052  0.00  0.00    +0.000 A 
ATOM      2  C   UNL     1       2.831   6.886  19.034  0.00  0.00    +0.000 A 
ATOM      3  C   UNL     1       3.470   5.675  18.902  0.00  0.00    +0.000 A 
ATOM      4  N   UNL     1       3.184   4.627  19.701  0.00  0.00    +0.000 NA
ATOM      5  C   UNL     1       2.260   4.810  20.654  0.00  0.00    +0.000 A 
ATOM      6  C   UNL     1       1.936   3.650  21.538  0.00  0.00    +0.000 C 
ATOM      7  N   UNL     1       1.611   5.965  20.864  0.00  0.00    +0.000 NA
ENDROOT
BRANCH   1  11
ATOM      8  C   UNL     1      -0.250  10.652  20.771  0.00  0.00    +0.000 A 
ATOM      9  C   UNL     1      -0.107   9.702  21.783  0.00  0.00    +0.000 A 
ATOM     10  C   UNL     1       0.614   8.528  21.554  0.00  0.00    +0.000 A 
ATOM     11  C   UNL     1       1.188   8.263  20.300  0.00  0.00    +0.000 A 
ATOM     12  C   UNL     1       1.031   9.235  19.294  0.00  0.00    +0.000 A 
ATOM     13  C   UNL     1       0.311  10.412  19.522  0.00  0.00    +0.000 A 
BRANCH   8  14
ATOM     14  O   UNL     1      -0.987  11.751  21.105  0.00  0.00    +0.000 OA
BRANCH  14  15
ATOM     15  C   UNL     1      -0.378  12.612  22.059  0.00  0.00    +0.000 C 
BRANCH  15  17
ATOM     16  C   UNL     1       1.585  14.164  20.749  0.00  0.00    +0.000 C 
ATOM     17  C   UNL     1       0.678  13.447  21.354  0.00  0.00    +0.000 C 
ENDBRANCH  15  17
ENDBRANCH  14  15
ENDBRANCH   8  14
ENDBRANCH   1  11
BRANCH   3  18
ATOM     18  C   UNL     1       4.512   5.439  17.898  0.00  0.00    +0.000 A 
ATOM     19  C   UNL     1       4.447   4.295  17.100  0.00  0.00    +0.000 A 
ATOM     20  C   UNL     1       5.453   4.011  16.189  0.00  0.00    +0.000 A 
ATOM     21  C   UNL     1       6.536   4.889  16.013  0.00  0.00    +0.000 A 
ATOM     22  C   UNL     1       6.635   6.036  16.813  0.00  0.00    +0.000 A 
ATOM     23  C   UNL     1       5.613   6.300  17.737  0.00  0.00    +0.000 A 
BRANCH  22  24
ATOM     24  O   UNL     1       7.736   6.836  16.643  0.00  0.00    +0.000 OA
ATOM     25  C   UNL     1       7.852   7.986  17.482  0.00  0.00    +0.000 C 
ENDBRANCH  22  24
BRANCH  21  26
ATOM     26  O   UNL     1       7.504   4.639  15.070  0.00  0.00    +0.000 OA
BRANCH  26  27
ATOM     27  C   UNL     1       7.197   5.147  13.768  0.00  0.00    +0.000 C 
BRANCH  27  28
ATOM     28  C   UNL     1       6.536   4.052  12.946  0.00  0.00    +0.000 C 
ATOM     29  C   UNL     1       5.968   3.114  12.241  0.00  0.00    +0.000 C 
ENDBRANCH  27  28
ENDBRANCH  26  27
ENDBRANCH  21  26
ENDBRANCH   3  18
TORSDOF 9
ENDMDL
MODEL 6
REMARK VINA RESULT:      -7.7      1.591      9.414
REMARK  Name = 
REMARK  11 active torsions:
REMARK  status: ('A' for Active; 'I' for Inactive)
REMARK    1  A    between atoms: C_2  and  C_3
REMARK    2  A    between atoms: C_3  and  O_4
REMARK    3  A    between atoms: O_4  and  C_5
REMARK    4  A    between atoms: C_8  and  C_9
REMARK    5  A    between atoms: C_11  and  C_12
REMARK    6  A    between atoms: C_15  and  O_16
REMARK    7  A    between atoms: O_16  and  C_17
REMARK    8  A    between atoms: C_17  and  C_18
REMARK    9  A    between atoms: C_20  and  O_21
REMARK   10  A    between atoms: O_21  and  C_22
REMARK   11  A    between atoms: C_25  and  C_26
REMARK                            x       y       z     vdW  Elec       q    Type
REMARK                         _______ _______ _______ _____ _____    ______ ____
ROOT
ATOM      1  C   UNL     1       3.559   5.688  18.133  0.00  0.00    +0.000 A 
ATOM      2  C   UNL     1       3.042   6.958  18.282  0.00  0.00    +0.000 A 
ATOM      3  C   UNL     1       2.262   7.191  19.392  0.00  0.00    +0.000 A 
ATOM      4  N   UNL     1       2.040   6.239  20.321  0.00  0.00    +0.000 NA
ATOM      5  C   UNL     1       2.594   5.036  20.118  0.00  0.00    +0.000 A 
ATOM      6  C   UNL     1       2.356   3.980  21.147  0.00  0.00    +0.000 C 
ATOM      7  N   UNL     1       3.345   4.721  19.052  0.00  0.00    +0.000 NA
ENDROOT
BRANCH   1  11
ATOM      8  C   UNL     1       5.915   4.627  14.696  0.00  0.00    +0.000 A 
ATOM      9  C   UNL     1       5.637   5.965  14.979  0.00  0.00    +0.000 A 
ATOM     10  C   UNL     1       4.891   6.308  16.109  0.00  0.00    +0.000 A 
ATOM     11  C   UNL     1       4.383   5.322  16.969  0.00  0.00    +0.000 A 
ATOM     12  C   UNL     1       4.674   3.978  16.664  0.00  0.00    +0.000 A 
ATOM     13  C   UNL     1       5.423   3.633  15.534  0.00  0.00    +0.000 A 
BRANCH   8  14
ATOM     14  O   UNL     1       6.638   4.411  13.558  0.00  0.00    +0.000 OA
BRANCH  14  15
ATOM     15  C   UNL     1       6.386   3.167  12.917  0.00  0.00    +0.000 C 
BRANCH  15  17
ATOM     16  C   UNL     1       4.096   3.440  11.287  0.00  0.00    +0.000 C 
ATOM     17  C   UNL     1       5.153   3.314  12.040  0.00  0.00    +0.000 C 
ENDBRANCH  15  17
ENDBRANCH  14  15
ENDBRANCH   8  14
ENDBRANCH   1  11
BRANCH   3  18
ATOM     18  C   UNL     1       1.607   8.479  19.637  0.00  0.00    +0.000 A 
ATOM     19  C   UNL     1       1.450   9.380  18.581  0.00  0.00    +0.000 A 
ATOM     20  C   UNL     1       0.895  10.631  18.796  0.00  0.00    +0.000 A 
ATOM     21  C   UNL     1       0.435  11.008  20.070  0.00  0.00    +0.000 A 
ATOM     22  C   UNL     1       0.595  10.130  21.151  0.00  0.00    +0.000 A 
ATOM     23  C   UNL     1       1.169   8.872  20.916  0.00  0.00    +0.000 A 
BRANCH  22  24
ATOM     24  O   UNL     1       0.179  10.560  22.385  0.00  0.00    +0.000 OA
ATOM     25  C   UNL     1      -0.175   9.565  23.346  0.00  0.00    +0.000 C 
ENDBRANCH  22  24
BRANCH  21  26
ATOM     26  O   UNL     1      -0.168  12.226  20.273  0.00  0.00    +0.000 OA
BRANCH  26  27
ATOM     27  C   UNL     1      -1.592  12.159  20.403  0.00  0.00    +0.000 C 
BRANCH  27  28
ATOM     28  C   UNL     1      -2.204  11.841  19.049  0.00  0.00    +0.000 C 
ATOM     29  C   UNL     1      -2.729  11.567  17.887  0.00  0.00    +0.000 C 
ENDBRANCH  27  28
ENDBRANCH  26  27
ENDBRANCH  21  26
ENDBRANCH   3  18
TORSDOF 9
ENDMDL
MODEL 7
REMARK VINA RESULT:      -7.7      1.457      9.780
REMARK  Name = 
REMARK  11 active torsions:
REMARK  status: ('A' for Active; 'I' for Inactive)
REMARK    1  A    between atoms: C_2  and  C_3
REMARK    2  A    between atoms: C_3  and  O_4
REMARK    3  A    between atoms: O_4  and  C_5
REMARK    4  A    between atoms: C_8  and  C_9
REMARK    5  A    between atoms: C_11  and  C_12
REMARK    6  A    between atoms: C_15  and  O_16
REMARK    7  A    between atoms: O_16  and  C_17
REMARK    8  A    between atoms: C_17  and  C_18
REMARK    9  A    between atoms: C_20  and  O_21
REMARK   10  A    between atoms: O_21  and  C_22
REMARK   11  A    between atoms: C_25  and  C_26
REMARK                            x       y       z     vdW  Elec       q    Type
REMARK                         _______ _______ _______ _____ _____    ______ ____
ROOT
ATOM      1  C   UNL     1       3.488   5.459  18.338  0.00  0.00    +0.000 A 
ATOM      2  C   UNL     1       3.027   6.754  18.447  0.00  0.00    +0.000 A 
ATOM      3  C   UNL     1       2.244   7.052  19.539  0.00  0.00    +0.000 A 
ATOM      4  N   UNL     1       1.968   6.137  20.490  0.00  0.00    +0.000 NA
ATOM      5  C   UNL     1       2.470   4.905  20.326  0.00  0.00    +0.000 A 
ATOM      6  C   UNL     1       2.172   3.889  21.380  0.00  0.00    +0.000 C 
ATOM      7  N   UNL     1       3.219   4.528  19.279  0.00  0.00    +0.000 NA
ENDROOT
BRANCH   1  11
ATOM      8  C   UNL     1       5.835   4.201  14.963  0.00  0.00    +0.000 A 
ATOM      9  C   UNL     1       5.596   5.556  15.193  0.00  0.00    +0.000 A 
ATOM     10  C   UNL     1       4.852   5.963  16.304  0.00  0.00    +0.000 A 
ATOM     11  C   UNL     1       4.308   5.025  17.196  0.00  0.00    +0.000 A 
ATOM     12  C   UNL     1       4.562   3.663  16.943  0.00  0.00    +0.000 A 
ATOM     13  C   UNL     1       5.308   3.254  15.834  0.00  0.00    +0.000 A 
BRANCH   8  14
ATOM     14  O   UNL     1       6.560   3.921  13.840  0.00  0.00    +0.000 OA
BRANCH  14  15
ATOM     15  C   UNL     1       5.804   3.879  12.636  0.00  0.00    +0.000 C 
BRANCH  15  17
ATOM     16  C   UNL     1       6.405   1.476  11.278  0.00  0.00    +0.000 C 
ATOM     17  C   UNL     1       6.128   2.586  11.906  0.00  0.00    +0.000 C 
ENDBRANCH  15  17
ENDBRANCH  14  15
ENDBRANCH   8  14
ENDBRANCH   1  11
BRANCH   3  18
ATOM     18  C   UNL     1       1.645   8.375  19.741  0.00  0.00    +0.000 A 
ATOM     19  C   UNL     1       1.473   9.223  18.645  0.00  0.00    +0.000 A 
ATOM     20  C   UNL     1       0.971  10.504  18.815  0.00  0.00    +0.000 A 
ATOM     21  C   UNL     1       0.581  10.964  20.085  0.00  0.00    +0.000 A 
ATOM     22  C   UNL     1       0.759  10.139  21.204  0.00  0.00    +0.000 A 
ATOM     23  C   UNL     1       1.278   8.851  21.014  0.00  0.00    +0.000 A 
BRANCH  22  24
ATOM     24  O   UNL     1       0.413  10.649  22.430  0.00  0.00    +0.000 OA
ATOM     25  C   UNL     1      -0.724  10.085  23.083  0.00  0.00    +0.000 C 
ENDBRANCH  22  24
BRANCH  21  26
ATOM     26  O   UNL     1       0.030  12.212  20.247  0.00  0.00    +0.000 OA
BRANCH  26  27
ATOM     27  C   UNL     1      -1.224  12.389  19.579  0.00  0.00    +0.000 C 
BRANCH  27  28
ATOM     28  C   UNL     1      -2.319  12.593  20.614  0.00  0.00    +0.000 C 
ATOM     29  C   UNL     1      -3.259  12.768  21.501  0.00  0.00    +0.000 C 
ENDBRANCH  27  28
ENDBRANCH  26  27
ENDBRANCH  21  26
ENDBRANCH   3  18
TORSDOF 9
ENDMDL
MODEL 8
REMARK VINA RESULT:      -7.6      0.888      9.694
REMARK  Name = 
REMARK  11 active torsions:
REMARK  status: ('A' for Active; 'I' for Inactive)
REMARK    1  A    between atoms: C_2  and  C_3
REMARK    2  A    between atoms: C_3  and  O_4
REMARK    3  A    between atoms: O_4  and  C_5
REMARK    4  A    between atoms: C_8  and  C_9
REMARK    5  A    between atoms: C_11  and  C_12
REMARK    6  A    between atoms: C_15  and  O_16
REMARK    7  A    between atoms: O_16  and  C_17
REMARK    8  A    between atoms: C_17  and  C_18
REMARK    9  A    between atoms: C_20  and  O_21
REMARK   10  A    between atoms: O_21  and  C_22
REMARK   11  A    between atoms: C_25  and  C_26
REMARK                            x       y       z     vdW  Elec       q    Type
REMARK                         _______ _______ _______ _____ _____    ______ ____
ROOT
ATOM      1  C   UNL     1       3.549   5.556  18.935  0.00  0.00    +0.000 A 
ATOM      2  C   UNL     1       3.030   6.809  19.187  0.00  0.00    +0.000 A 
ATOM      3  C   UNL     1       2.066   6.905  20.165  0.00  0.00    +0.000 A 
ATOM      4  N   UNL     1       1.668   5.834  20.881  0.00  0.00    +0.000 NA
ATOM      5  C   UNL     1       2.234   4.654  20.594  0.00  0.00    +0.000 A 
ATOM      6  C   UNL     1       1.800   3.466  21.389  0.00  0.00    +0.000 C 
ATOM      7  N   UNL     1       3.160   4.472  19.641  0.00  0.00    +0.000 NA
ENDROOT
BRANCH   1  11
ATOM      8  C   UNL     1       6.543   4.873  15.926  0.00  0.00    +0.000 A 
ATOM      9  C   UNL     1       5.539   3.931  16.153  0.00  0.00    +0.000 A 
ATOM     10  C   UNL     1       4.554   4.166  17.116  0.00  0.00    +0.000 A 
ATOM     11  C   UNL     1       4.563   5.336  17.892  0.00  0.00    +0.000 A 
ATOM     12  C   UNL     1       5.585   6.272  17.646  0.00  0.00    +0.000 A 
ATOM     13  C   UNL     1       6.570   6.040  16.681  0.00  0.00    +0.000 A 
BRANCH   8  14
ATOM     14  O   UNL     1       7.458   4.529  14.973  0.00  0.00    +0.000 OA
BRANCH  14  15
ATOM     15  C   UNL     1       7.193   5.048  13.675  0.00  0.00    +0.000 C 
BRANCH  15  17
ATOM     16  C   UNL     1       5.815   3.084  12.185  0.00  0.00    +0.000 C 
ATOM     17  C   UNL     1       6.452   3.991  12.873  0.00  0.00    +0.000 C 
ENDBRANCH  15  17
ENDBRANCH  14  15
ENDBRANCH   8  14
ENDBRANCH   1  11
BRANCH   3  18
ATOM     18  C   UNL     1       1.396   8.167  20.488  0.00  0.00    +0.000 A 
ATOM     19  C   UNL     1       1.191   8.510  21.827  0.00  0.00    +0.000 A 
ATOM     20  C   UNL     1       0.501   9.665  22.162  0.00  0.00    +0.000 A 
ATOM     21  C   UNL     1       0.031  10.540  21.168  0.00  0.00    +0.000 A 
ATOM     22  C   UNL     1       0.208  10.212  19.817  0.00  0.00    +0.000 A 
ATOM     23  C   UNL     1       0.900   9.035  19.497  0.00  0.00    +0.000 A 
BRANCH  22  24
ATOM     24  O   UNL     1      -0.312  11.069  18.881  0.00  0.00    +0.000 OA
ATOM     25  C   UNL     1      -1.266  10.541  17.960  0.00  0.00    +0.000 C 
ENDBRANCH  22  24
BRANCH  21  26
ATOM     26  O   UNL     1      -0.603  11.714  21.499  0.00  0.00    +0.000 OA
BRANCH  26  27
ATOM     27  C   UNL     1      -1.050  11.773  22.858  0.00  0.00    +0.000 C 
BRANCH  27  28
ATOM     28  C   UNL     1      -2.494  12.247  22.889  0.00  0.00    +0.000 C 
ATOM     29  C   UNL     1      -3.733  12.653  22.917  0.00  0.00    +0.000 C 
ENDBRANCH  27  28
ENDBRANCH  26  27
ENDBRANCH  21  26
ENDBRANCH   3  18
TORSDOF 9
ENDMDL
MODEL 9
REMARK VINA RESULT:      -7.6      1.433      9.621
REMARK  Name = 
REMARK  11 active torsions:
REMARK  status: ('A' for Active; 'I' for Inactive)
REMARK    1  A    between atoms: C_2  and  C_3
REMARK    2  A    between atoms: C_3  and  O_4
REMARK    3  A    between atoms: O_4  and  C_5
REMARK    4  A    between atoms: C_8  and  C_9
REMARK    5  A    between atoms: C_11  and  C_12
REMARK    6  A    between atoms: C_15  and  O_16
REMARK    7  A    between atoms: O_16  and  C_17
REMARK    8  A    between atoms: C_17  and  C_18
REMARK    9  A    between atoms: C_20  and  O_21
REMARK   10  A    between atoms: O_21  and  C_22
REMARK   11  A    between atoms: C_25  and  C_26
REMARK                            x       y       z     vdW  Elec       q    Type
REMARK                         _______ _______ _______ _____ _____    ______ ____
ROOT
ATOM      1  C   UNL     1       3.533   5.596  18.299  0.00  0.00    +0.000 A 
ATOM      2  C   UNL     1       3.059   6.887  18.398  0.00  0.00    +0.000 A 
ATOM      3  C   UNL     1       2.228   7.172  19.457  0.00  0.00    +0.000 A 
ATOM      4  N   UNL     1       1.916   6.248  20.387  0.00  0.00    +0.000 NA
ATOM      5  C   UNL     1       2.432   5.020  20.237  0.00  0.00    +0.000 A 
ATOM      6  C   UNL     1       2.095   3.994  21.269  0.00  0.00    +0.000 C 
ATOM      7  N   UNL     1       3.229   4.656  19.221  0.00  0.00    +0.000 NA
ENDROOT
BRANCH   1  11
ATOM      8  C   UNL     1       6.129   4.364  15.101  0.00  0.00    +0.000 A 
ATOM      9  C   UNL     1       5.611   3.426  15.994  0.00  0.00    +0.000 A 
ATOM     10  C   UNL     1       4.750   3.826  17.019  0.00  0.00    +0.000 A 
ATOM     11  C   UNL     1       4.405   5.176  17.191  0.00  0.00    +0.000 A 
ATOM     12  C   UNL     1       4.939   6.105  16.278  0.00  0.00    +0.000 A 
ATOM     13  C   UNL     1       5.800   5.707  15.250  0.00  0.00    +0.000 A 
BRANCH   8  14
ATOM     14  O   UNL     1       6.971   3.861  14.152  0.00  0.00    +0.000 OA
BRANCH  14  15
ATOM     15  C   UNL     1       6.704   4.297  12.824  0.00  0.00    +0.000 C 
BRANCH  15  17
ATOM     16  C   UNL     1       5.301   2.253  11.471  0.00  0.00    +0.000 C 
ATOM     17  C   UNL     1       5.949   3.197  12.096  0.00  0.00    +0.000 C 
ENDBRANCH  15  17
ENDBRANCH  14  15
ENDBRANCH   8  14
ENDBRANCH   1  11
BRANCH   3  18
ATOM     18  C   UNL     1       1.612   8.489  19.643  0.00  0.00    +0.000 A 
ATOM     19  C   UNL     1       1.576   9.386  18.572  0.00  0.00    +0.000 A 
ATOM     20  C   UNL     1       1.061  10.662  18.736  0.00  0.00    +0.000 A 
ATOM     21  C   UNL     1       0.522  11.070  19.968  0.00  0.00    +0.000 A 
ATOM     22  C   UNL     1       0.560  10.197  21.064  0.00  0.00    +0.000 A 
ATOM     23  C   UNL     1       1.095   8.913  20.881  0.00  0.00    +0.000 A 
BRANCH  22  24
ATOM     24  O   UNL     1       0.070  10.656  22.259  0.00  0.00    +0.000 OA
ATOM     25  C   UNL     1      -0.187   9.692  23.281  0.00  0.00    +0.000 C 
ENDBRANCH  22  24
BRANCH  21  26
ATOM     26  O   UNL     1      -0.042  12.314  20.117  0.00  0.00    +0.000 OA
BRANCH  26  27
ATOM     27  C   UNL     1      -1.113  12.584  19.206  0.00  0.00    +0.000 C 
BRANCH  27  28
ATOM     28  C   UNL     1      -2.419  12.671  19.979  0.00  0.00    +0.000 C 
ATOM     29  C   UNL     1      -3.539  12.745  20.642  0.00  0.00    +0.000 C 
ENDBRANCH  27  28
ENDBRANCH  26  27
ENDBRANCH  21  26
ENDBRANCH   3  18
TORSDOF 9
ENDMDL
