MODEL 1
REMARK VINA RESULT:      -8.3      0.000      0.000
REMARK  Name = 
REMARK  4 active torsions:
REMARK  status: ('A' for Active; 'I' for Inactive)
REMARK    1  A    between atoms: C_2  and  C_17
REMARK    2  A    between atoms: N_3  and  C_4
REMARK    3  A    between atoms: C_7  and  C_8
REMARK    4  A    between atoms: N_20  and  C_21
REMARK                            x       y       z     vdW  Elec       q    Type
REMARK                         _______ _______ _______ _____ _____    ______ ____
ROOT
ATOM      1  O   UNL     1       0.579   9.714  19.120  0.00  0.00    +0.000 OA
ATOM      2  C   UNL     1       0.782   9.268  20.251  0.00  0.00    +0.000 C 
ATOM      3  N   UNL     1       1.531   8.150  20.560  0.00  0.00    +0.000 N 
ATOM      4  H   UNL     1       1.403   7.727  21.472  0.00  0.00    +0.000 HD
ENDROOT
BRANCH   3   5
ATOM      5  C   UNL     1       2.246   7.395  19.593  0.00  0.00    +0.000 A 
ATOM      6  C   UNL     1       2.816   8.023  18.479  0.00  0.00    +0.000 A 
ATOM      7  C   UNL     1       3.492   7.310  17.493  0.00  0.00    +0.000 A 
ATOM      8  C   UNL     1       3.658   5.930  17.618  0.00  0.00    +0.000 A 
ATOM      9  C   UNL     1       3.098   5.291  18.736  0.00  0.00    +0.000 A 
ATOM     10  C   UNL     1       2.381   6.004  19.702  0.00  0.00    +0.000 A 
ATOM     11 CL   UNL     1       1.577   5.099  20.936  0.00  0.00    +0.000 Cl
BRANCH   8  12
ATOM     12  C   UNL     1       4.387   5.143  16.553  0.00  0.00    +0.000 C 
ATOM     13  C   UNL     1       5.294   4.046  17.174  0.00  0.00    +0.000 C 
ATOM     14  N   UNL     1       6.108   3.333  16.165  0.00  0.00    +0.000 NA
ATOM     15  C   UNL     1       6.858   4.336  15.386  0.00  0.00    +0.000 C 
ATOM     16  C   UNL     1       5.931   5.392  14.771  0.00  0.00    +0.000 C 
ATOM     17  O   UNL     1       5.169   6.070  15.774  0.00  0.00    +0.000 OA
ATOM     18  H   UNL     1       5.481   2.833  15.534  0.00  0.00    +0.000 HD
ENDBRANCH   8  12
ENDBRANCH   3   5
BRANCH   2  19
ATOM     19  C   UNL     1       0.108   9.912  21.344  0.00  0.00    +0.000 A 
ATOM     20  C   UNL     1      -0.094   9.365  22.623  0.00  0.00    +0.000 A 
ATOM     21  N   UNL     1      -0.679  10.231  23.462  0.00  0.00    +0.000 NA
ATOM     22  N   UNL     1      -0.960  11.299  22.679  0.00  0.00    +0.000 N 
ATOM     23  C   UNL     1      -0.479  11.146  21.400  0.00  0.00    +0.000 A 
BRANCH  22  24
ATOM     24  C   UNL     1      -1.703  12.393  23.177  0.00  0.00    +0.000 A 
ATOM     25  C   UNL     1      -3.013  12.190  23.634  0.00  0.00    +0.000 A 
ATOM     26  C   UNL     1      -3.753  13.279  24.092  0.00  0.00    +0.000 A 
ATOM     27  C   UNL     1      -3.192  14.548  24.066  0.00  0.00    +0.000 A 
ATOM     28  F   UNL     1      -3.911  15.596  24.486  0.00  0.00    +0.000 F 
ATOM     29  C   UNL     1      -1.893  14.757  23.616  0.00  0.00    +0.000 A 
ATOM     30  C   UNL     1      -1.137  13.671  23.185  0.00  0.00    +0.000 A 
ENDBRANCH  22  24
ENDBRANCH   2  19
TORSDOF 4
ENDMDL
MODEL 2
REMARK VINA RESULT:      -8.2      0.694      1.149
REMARK  Name = 
REMARK  4 active torsions:
REMARK  status: ('A' for Active; 'I' for Inactive)
REMARK    1  A    between atoms: C_2  and  C_17
REMARK    2  A    between atoms: N_3  and  C_4
REMARK    3  A    between atoms: C_7  and  C_8
REMARK    4  A    between atoms: N_20  and  C_21
REMARK                            x       y       z     vdW  Elec       q    Type
REMARK                         _______ _______ _______ _____ _____    ______ ____
ROOT
ATOM      1  O   UNL     1       1.011   9.323  18.995  0.00  0.00    +0.000 OA
ATOM      2  C   UNL     1       1.096   8.875  20.139  0.00  0.00    +0.000 C 
ATOM      3  N   UNL     1       1.811   7.758  20.521  0.00  0.00    +0.000 N 
ATOM      4  H   UNL     1       1.590   7.332  21.414  0.00  0.00    +0.000 HD
ENDROOT
BRANCH   3   5
ATOM      5  C   UNL     1       2.623   7.005  19.631  0.00  0.00    +0.000 A 
ATOM      6  C   UNL     1       3.136   7.592  18.468  0.00  0.00    +0.000 A 
ATOM      7  C   UNL     1       3.905   6.876  17.556  0.00  0.00    +0.000 A 
ATOM      8  C   UNL     1       4.225   5.541  17.807  0.00  0.00    +0.000 A 
ATOM      9  C   UNL     1       3.723   4.945  18.976  0.00  0.00    +0.000 A 
ATOM     10  C   UNL     1       2.914   5.655  19.868  0.00  0.00    +0.000 A 
ATOM     11 CL   UNL     1       2.198   4.778  21.175  0.00  0.00    +0.000 Cl
BRANCH   8  12
ATOM     12  C   UNL     1       5.057   4.750  16.823  0.00  0.00    +0.000 C 
ATOM     13  C   UNL     1       6.546   4.682  17.259  0.00  0.00    +0.000 C 
ATOM     14  N   UNL     1       7.408   4.013  16.260  0.00  0.00    +0.000 NA
ATOM     15  C   UNL     1       7.211   4.682  14.960  0.00  0.00    +0.000 C 
ATOM     16  C   UNL     1       5.733   4.714  14.551  0.00  0.00    +0.000 C 
ATOM     17  O   UNL     1       4.931   5.378  15.532  0.00  0.00    +0.000 OA
ATOM     18  H   UNL     1       7.112   3.040  16.173  0.00  0.00    +0.000 HD
ENDBRANCH   8  12
ENDBRANCH   3   5
BRANCH   2  19
ATOM     19  C   UNL     1       0.311   9.516  21.158  0.00  0.00    +0.000 A 
ATOM     20  C   UNL     1      -0.212   8.894  22.305  0.00  0.00    +0.000 A 
ATOM     21  N   UNL     1      -0.830   9.762  23.119  0.00  0.00    +0.000 NA
ATOM     22  N   UNL     1      -0.802  10.926  22.429  0.00  0.00    +0.000 N 
ATOM     23  C   UNL     1      -0.102  10.816  21.251  0.00  0.00    +0.000 A 
BRANCH  22  24
ATOM     24  C   UNL     1      -1.475  12.073  22.908  0.00  0.00    +0.000 A 
ATOM     25  C   UNL     1      -0.804  13.304  22.947  0.00  0.00    +0.000 A 
ATOM     26  C   UNL     1      -1.462  14.424  23.452  0.00  0.00    +0.000 A 
ATOM     27  C   UNL     1      -2.759  14.300  23.930  0.00  0.00    +0.000 A 
ATOM     28  F   UNL     1      -3.381  15.372  24.435  0.00  0.00    +0.000 F 
ATOM     29  C   UNL     1      -3.431  13.083  23.894  0.00  0.00    +0.000 A 
ATOM     30  C   UNL     1      -2.793  11.966  23.363  0.00  0.00    +0.000 A 
ENDBRANCH  22  24
ENDBRANCH   2  19
TORSDOF 4
ENDMDL
MODEL 3
REMARK VINA RESULT:      -8.2      1.966      2.931
REMARK  Name = 
REMARK  4 active torsions:
REMARK  status: ('A' for Active; 'I' for Inactive)
REMARK    1  A    between atoms: C_2  and  C_17
REMARK    2  A    between atoms: N_3  and  C_4
REMARK    3  A    between atoms: C_7  and  C_8
REMARK    4  A    between atoms: N_20  and  C_21
REMARK                            x       y       z     vdW  Elec       q    Type
REMARK                         _______ _______ _______ _____ _____    ______ ____
ROOT
ATOM      1  O   UNL     1       2.204   8.640  17.434  0.00  0.00    +0.000 OA
ATOM      2  C   UNL     1       2.292   8.053  18.513  0.00  0.00    +0.000 C 
ATOM      3  N   UNL     1       2.979   6.878  18.743  0.00  0.00    +0.000 N 
ATOM      4  H   UNL     1       2.759   6.352  19.581  0.00  0.00    +0.000 HD
ENDROOT
BRANCH   3   5
ATOM      5  C   UNL     1       3.758   6.220  17.755  0.00  0.00    +0.000 A 
ATOM      6  C   UNL     1       4.765   6.908  17.068  0.00  0.00    +0.000 A 
ATOM      7  C   UNL     1       5.523   6.304  16.069  0.00  0.00    +0.000 A 
ATOM      8  C   UNL     1       5.321   4.961  15.752  0.00  0.00    +0.000 A 
ATOM      9  C   UNL     1       4.318   4.259  16.441  0.00  0.00    +0.000 A 
ATOM     10  C   UNL     1       3.529   4.880  17.414  0.00  0.00    +0.000 A 
ATOM     11 CL   UNL     1       2.204   3.980  18.067  0.00  0.00    +0.000 Cl
BRANCH   8  12
ATOM     12  C   UNL     1       6.135   4.295  14.666  0.00  0.00    +0.000 C 
ATOM     13  C   UNL     1       7.246   5.235  14.127  0.00  0.00    +0.000 C 
ATOM     14  N   UNL     1       7.988   4.656  12.986  0.00  0.00    +0.000 NA
ATOM     15  C   UNL     1       7.010   4.260  11.955  0.00  0.00    +0.000 C 
ATOM     16  C   UNL     1       5.938   3.315  12.516  0.00  0.00    +0.000 C 
ATOM     17  O   UNL     1       5.234   3.912  13.609  0.00  0.00    +0.000 OA
ATOM     18  H   UNL     1       8.479   3.821  13.306  0.00  0.00    +0.000 HD
ENDBRANCH   8  12
ENDBRANCH   3   5
BRANCH   2  19
ATOM     19  C   UNL     1       1.540   8.584  19.616  0.00  0.00    +0.000 A 
ATOM     20  C   UNL     1       1.483   8.040  20.911  0.00  0.00    +0.000 A 
ATOM     21  N   UNL     1       0.769   8.800  21.753  0.00  0.00    +0.000 NA
ATOM     22  N   UNL     1       0.267   9.776  20.960  0.00  0.00    +0.000 N 
ATOM     23  C   UNL     1       0.731   9.686  19.669  0.00  0.00    +0.000 A 
BRANCH  22  24
ATOM     24  C   UNL     1      -0.656  10.721  21.462  0.00  0.00    +0.000 A 
ATOM     25  C   UNL     1      -1.204  11.681  20.599  0.00  0.00    +0.000 A 
ATOM     26  C   UNL     1      -2.087  12.631  21.108  0.00  0.00    +0.000 A 
ATOM     27  C   UNL     1      -2.392  12.629  22.462  0.00  0.00    +0.000 A 
ATOM     28  F   UNL     1      -3.223  13.556  22.953  0.00  0.00    +0.000 F 
ATOM     29  C   UNL     1      -1.854  11.679  23.324  0.00  0.00    +0.000 A 
ATOM     30  C   UNL     1      -0.994  10.708  22.819  0.00  0.00    +0.000 A 
ENDBRANCH  22  24
ENDBRANCH   2  19
TORSDOF 4
ENDMDL
MODEL 4
REMARK VINA RESULT:      -8.0      4.355     10.862
REMARK  Name = 
REMARK  4 active torsions:
REMARK  status: ('A' for Active; 'I' for Inactive)
REMARK    1  A    between atoms: C_2  and  C_17
REMARK    2  A    between atoms: N_3  and  C_4
REMARK    3  A    between atoms: C_7  and  C_8
REMARK    4  A    between atoms: N_20  and  C_21
REMARK                            x       y       z     vdW  Elec       q    Type
REMARK                         _______ _______ _______ _____ _____    ______ ____
ROOT
ATOM      1  O   UNL     1       1.363   6.021  20.826  0.00  0.00    +0.000 OA
ATOM      2  C   UNL     1       2.122   6.624  20.066  0.00  0.00    +0.000 C 
ATOM      3  N   UNL     1       2.111   7.982  19.819  0.00  0.00    +0.000 N 
ATOM      4  H   UNL     1       2.585   8.320  18.989  0.00  0.00    +0.000 HD
ENDROOT
BRANCH   3   5
ATOM      5  C   UNL     1       1.248   8.893  20.485  0.00  0.00    +0.000 A 
ATOM      6  C   UNL     1       1.149   8.886  21.881  0.00  0.00    +0.000 A 
ATOM      7  C   UNL     1       0.287   9.739  22.565  0.00  0.00    +0.000 A 
ATOM      8  C   UNL     1      -0.480  10.668  21.862  0.00  0.00    +0.000 A 
ATOM      9  C   UNL     1      -0.382  10.689  20.461  0.00  0.00    +0.000 A 
ATOM     10  C   UNL     1       0.452   9.801  19.774  0.00  0.00    +0.000 A 
ATOM     11 CL   UNL     1       0.359   9.785  18.047  0.00  0.00    +0.000 Cl
BRANCH   8  12
ATOM     12  C   UNL     1      -1.423  11.598  22.592  0.00  0.00    +0.000 C 
ATOM     13  C   UNL     1      -2.550  12.117  21.659  0.00  0.00    +0.000 C 
ATOM     14  N   UNL     1      -3.423  13.117  22.311  0.00  0.00    +0.000 NA
ATOM     15  C   UNL     1      -2.569  14.194  22.847  0.00  0.00    +0.000 C 
ATOM     16  C   UNL     1      -1.480  13.648  23.780  0.00  0.00    +0.000 C 
ATOM     17  O   UNL     1      -0.648  12.695  23.114  0.00  0.00    +0.000 OA
ATOM     18  H   UNL     1      -3.908  12.669  23.089  0.00  0.00    +0.000 HD
ENDBRANCH   8  12
ENDBRANCH   3   5
BRANCH   2  19
ATOM     19  C   UNL     1       3.047   5.838  19.297  0.00  0.00    +0.000 A 
ATOM     20  C   UNL     1       3.568   4.586  19.665  0.00  0.00    +0.000 A 
ATOM     21  N   UNL     1       4.341   4.053  18.709  0.00  0.00    +0.000 NA
ATOM     22  N   UNL     1       4.410   5.027  17.771  0.00  0.00    +0.000 N 
ATOM     23  C   UNL     1       3.622   6.109  18.086  0.00  0.00    +0.000 A 
BRANCH  22  24
ATOM     24  C   UNL     1       5.249   4.893  16.642  0.00  0.00    +0.000 A 
ATOM     25  C   UNL     1       6.580   5.330  16.711  0.00  0.00    +0.000 A 
ATOM     26  C   UNL     1       7.392   5.227  15.584  0.00  0.00    +0.000 A 
ATOM     27  C   UNL     1       6.867   4.718  14.404  0.00  0.00    +0.000 A 
ATOM     28  F   UNL     1       7.642   4.640  13.316  0.00  0.00    +0.000 F 
ATOM     29  C   UNL     1       5.549   4.281  14.328  0.00  0.00    +0.000 A 
ATOM     30  C   UNL     1       4.739   4.352  15.457  0.00  0.00    +0.000 A 
ENDBRANCH  22  24
ENDBRANCH   2  19
TORSDOF 4
ENDMDL
MODEL 5
REMARK VINA RESULT:      -8.0      4.327     10.783
REMARK  Name = 
REMARK  4 active torsions:
REMARK  status: ('A' for Active; 'I' for Inactive)
REMARK    1  A    between atoms: C_2  and  C_17
REMARK    2  A    between atoms: N_3  and  C_4
REMARK    3  A    between atoms: C_7  and  C_8
REMARK    4  A    between atoms: N_20  and  C_21
REMARK                            x       y       z     vdW  Elec       q    Type
REMARK                         _______ _______ _______ _____ _____    ______ ____
ROOT
ATOM      1  O   UNL     1       0.777   6.282  21.039  0.00  0.00    +0.000 OA
ATOM      2  C   UNL     1       1.659   6.878  20.420  0.00  0.00    +0.000 C 
ATOM      3  N   UNL     1       1.776   8.248  20.294  0.00  0.00    +0.000 N 
ATOM      4  H   UNL     1       2.363   8.611  19.551  0.00  0.00    +0.000 HD
ENDROOT
BRANCH   3   5
ATOM      5  C   UNL     1       0.914   9.171  20.944  0.00  0.00    +0.000 A 
ATOM      6  C   UNL     1       0.778   9.157  22.337  0.00  0.00    +0.000 A 
ATOM      7  C   UNL     1      -0.084  10.022  23.004  0.00  0.00    +0.000 A 
ATOM      8  C   UNL     1      -0.814  10.972  22.288  0.00  0.00    +0.000 A 
ATOM      9  C   UNL     1      -0.678  11.000  20.891  0.00  0.00    +0.000 A 
ATOM     10  C   UNL     1       0.155  10.101  20.220  0.00  0.00    +0.000 A 
ATOM     11 CL   UNL     1       0.108  10.099  18.491  0.00  0.00    +0.000 Cl
BRANCH   8  12
ATOM     12  C   UNL     1      -1.757  11.915  23.001  0.00  0.00    +0.000 C 
ATOM     13  C   UNL     1      -2.967  12.296  22.106  0.00  0.00    +0.000 C 
ATOM     14  N   UNL     1      -3.850  13.306  22.730  0.00  0.00    +0.000 NA
ATOM     15  C   UNL     1      -3.023  14.465  23.115  0.00  0.00    +0.000 C 
ATOM     16  C   UNL     1      -1.848  14.056  24.014  0.00  0.00    +0.000 C 
ATOM     17  O   UNL     1      -1.011  13.089  23.375  0.00  0.00    +0.000 OA
ATOM     18  H   UNL     1      -4.260  12.904  23.574  0.00  0.00    +0.000 HD
ENDBRANCH   8  12
ENDBRANCH   3   5
BRANCH   2  19
ATOM     19  C   UNL     1       2.604   6.083  19.685  0.00  0.00    +0.000 A 
ATOM     20  C   UNL     1       3.014   4.780  20.015  0.00  0.00    +0.000 A 
ATOM     21  N   UNL     1       3.840   4.257  19.098  0.00  0.00    +0.000 NA
ATOM     22  N   UNL     1       4.051   5.279  18.235  0.00  0.00    +0.000 N 
ATOM     23  C   UNL     1       3.302   6.388  18.549  0.00  0.00    +0.000 A 
BRANCH  22  24
ATOM     24  C   UNL     1       4.981   5.159  17.177  0.00  0.00    +0.000 A 
ATOM     25  C   UNL     1       4.807   4.159  16.210  0.00  0.00    +0.000 A 
ATOM     26  C   UNL     1       5.746   4.025  15.190  0.00  0.00    +0.000 A 
ATOM     27  C   UNL     1       6.850   4.866  15.160  0.00  0.00    +0.000 A 
ATOM     28  F   UNL     1       7.763   4.722  14.192  0.00  0.00    +0.000 F 
ATOM     29  C   UNL     1       7.029   5.861  16.114  0.00  0.00    +0.000 A 
ATOM     30  C   UNL     1       6.081   6.022  17.120  0.00  0.00    +0.000 A 
ENDBRANCH  22  24
ENDBRANCH   2  19
TORSDOF 4
ENDMDL
MODEL 6
REMARK VINA RESULT:      -8.0      4.256     10.766
REMARK  Name = 
REMARK  4 active torsions:
REMARK  status: ('A' for Active; 'I' for Inactive)
REMARK    1  A    between atoms: C_2  and  C_17
REMARK    2  A    between atoms: N_3  and  C_4
REMARK    3  A    between atoms: C_7  and  C_8
REMARK    4  A    between atoms: N_20  and  C_21
REMARK                            x       y       z     vdW  Elec       q    Type
REMARK                         _______ _______ _______ _____ _____    ______ ____
ROOT
ATOM      1  O   UNL     1       1.480  10.673  18.839  0.00  0.00    +0.000 OA
ATOM      2  C   UNL     1       1.206   9.571  19.316  0.00  0.00    +0.000 C 
ATOM      3  N   UNL     1       0.331   9.333  20.357  0.00  0.00    +0.000 N 
ATOM      4  H   UNL     1       0.392   8.443  20.838  0.00  0.00    +0.000 HD
ENDROOT
BRANCH   3   5
ATOM      5  C   UNL     1      -0.442  10.349  20.978  0.00  0.00    +0.000 A 
ATOM      6  C   UNL     1      -1.088  11.323  20.206  0.00  0.00    +0.000 A 
ATOM      7  C   UNL     1      -1.824  12.354  20.782  0.00  0.00    +0.000 A 
ATOM      8  C   UNL     1      -1.975  12.417  22.168  0.00  0.00    +0.000 A 
ATOM      9  C   UNL     1      -1.338  11.440  22.951  0.00  0.00    +0.000 A 
ATOM     10  C   UNL     1      -0.563  10.431  22.372  0.00  0.00    +0.000 A 
ATOM     11 CL   UNL     1       0.326   9.393  23.432  0.00  0.00    +0.000 Cl
BRANCH   8  12
ATOM     12  C   UNL     1      -2.769  13.534  22.806  0.00  0.00    +0.000 C 
ATOM     13  C   UNL     1      -3.582  13.030  24.029  0.00  0.00    +0.000 C 
ATOM     14  N   UNL     1      -4.458  14.072  24.607  0.00  0.00    +0.000 NA
ATOM     15  C   UNL     1      -5.305  14.612  23.528  0.00  0.00    +0.000 C 
ATOM     16  C   UNL     1      -4.469  15.120  22.345  0.00  0.00    +0.000 C 
ATOM     17  O   UNL     1      -3.645  14.084  21.803  0.00  0.00    +0.000 OA
ATOM     18  H   UNL     1      -3.873  14.825  24.970  0.00  0.00    +0.000 HD
ENDBRANCH   8  12
ENDBRANCH   3   5
BRANCH   2  19
ATOM     19  C   UNL     1       1.924   8.435  18.808  0.00  0.00    +0.000 A 
ATOM     20  C   UNL     1       2.845   8.451  17.746  0.00  0.00    +0.000 A 
ATOM     21  N   UNL     1       3.421   7.257  17.552  0.00  0.00    +0.000 NA
ATOM     22  N   UNL     1       2.776   6.443  18.420  0.00  0.00    +0.000 N 
ATOM     23  C   UNL     1       1.882   7.128  19.208  0.00  0.00    +0.000 A 
BRANCH  22  24
ATOM     24  C   UNL     1       3.017   5.050  18.431  0.00  0.00    +0.000 A 
ATOM     25  C   UNL     1       4.112   4.542  19.144  0.00  0.00    +0.000 A 
ATOM     26  C   UNL     1       4.364   3.171  19.123  0.00  0.00    +0.000 A 
ATOM     27  C   UNL     1       3.544   2.335  18.377  0.00  0.00    +0.000 A 
ATOM     28  F   UNL     1       3.801   1.022  18.339  0.00  0.00    +0.000 F 
ATOM     29  C   UNL     1       2.457   2.832  17.668  0.00  0.00    +0.000 A 
ATOM     30  C   UNL     1       2.179   4.195  17.708  0.00  0.00    +0.000 A 
ENDBRANCH  22  24
ENDBRANCH   2  19
TORSDOF 4
ENDMDL
MODEL 7
REMARK VINA RESULT:      -7.9      4.200     10.966
REMARK  Name = 
REMARK  4 active torsions:
REMARK  status: ('A' for Active; 'I' for Inactive)
REMARK    1  A    between atoms: C_2  and  C_17
REMARK    2  A    between atoms: N_3  and  C_4
REMARK    3  A    between atoms: C_7  and  C_8
REMARK    4  A    between atoms: N_20  and  C_21
REMARK                            x       y       z     vdW  Elec       q    Type
REMARK                         _______ _______ _______ _____ _____    ______ ____
ROOT
ATOM      1  O   UNL     1       1.559  11.378  20.275  0.00  0.00    +0.000 OA
ATOM      2  C   UNL     1       0.878  10.407  19.944  0.00  0.00    +0.000 C 
ATOM      3  N   UNL     1      -0.408  10.136  20.366  0.00  0.00    +0.000 N 
ATOM      4  H   UNL     1      -0.759   9.192  20.253  0.00  0.00    +0.000 HD
ENDROOT
BRANCH   3   5
ATOM      5  C   UNL     1      -1.158  11.008  21.200  0.00  0.00    +0.000 A 
ATOM      6  C   UNL     1      -1.887  12.068  20.647  0.00  0.00    +0.000 A 
ATOM      7  C   UNL     1      -2.604  12.962  21.436  0.00  0.00    +0.000 A 
ATOM      8  C   UNL     1      -2.648  12.794  22.820  0.00  0.00    +0.000 A 
ATOM      9  C   UNL     1      -1.927  11.729  23.384  0.00  0.00    +0.000 A 
ATOM     10  C   UNL     1      -1.172  10.858  22.593  0.00  0.00    +0.000 A 
ATOM     11 CL   UNL     1      -0.176   9.698  23.401  0.00  0.00    +0.000 Cl
BRANCH   8  12
ATOM     12  C   UNL     1      -3.420  13.762  23.689  0.00  0.00    +0.000 C 
ATOM     13  C   UNL     1      -4.949  13.656  23.441  0.00  0.00    +0.000 C 
ATOM     14  N   UNL     1      -5.725  14.667  24.192  0.00  0.00    +0.000 NA
ATOM     15  C   UNL     1      -5.175  15.998  23.875  0.00  0.00    +0.000 C 
ATOM     16  C   UNL     1      -3.667  16.074  24.150  0.00  0.00    +0.000 C 
ATOM     17  O   UNL     1      -2.947  15.091  23.399  0.00  0.00    +0.000 OA
ATOM     18  H   UNL     1      -5.605  14.495  25.191  0.00  0.00    +0.000 HD
ENDBRANCH   8  12
ENDBRANCH   3   5
BRANCH   2  19
ATOM     19  C   UNL     1       1.504   9.414  19.114  0.00  0.00    +0.000 A 
ATOM     20  C   UNL     1       1.935   9.602  17.790  0.00  0.00    +0.000 A 
ATOM     21  N   UNL     1       2.560   8.522  17.299  0.00  0.00    +0.000 NA
ATOM     22  N   UNL     1       2.422   7.597  18.277  0.00  0.00    +0.000 N 
ATOM     23  C   UNL     1       1.808   8.110  19.395  0.00  0.00    +0.000 A 
BRANCH  22  24
ATOM     24  C   UNL     1       2.848   6.263  18.085  0.00  0.00    +0.000 A 
ATOM     25  C   UNL     1       4.204   5.996  17.850  0.00  0.00    +0.000 A 
ATOM     26  C   UNL     1       4.613   4.682  17.627  0.00  0.00    +0.000 A 
ATOM     27  C   UNL     1       3.670   3.664  17.617  0.00  0.00    +0.000 A 
ATOM     28  F   UNL     1       4.060   2.406  17.380  0.00  0.00    +0.000 F 
ATOM     29  C   UNL     1       2.323   3.921  17.850  0.00  0.00    +0.000 A 
ATOM     30  C   UNL     1       1.911   5.225  18.103  0.00  0.00    +0.000 A 
ENDBRANCH  22  24
ENDBRANCH   2  19
TORSDOF 4
ENDMDL
MODEL 8
REMARK VINA RESULT:      -7.9      4.190     10.922
REMARK  Name = 
REMARK  4 active torsions:
REMARK  status: ('A' for Active; 'I' for Inactive)
REMARK    1  A    between atoms: C_2  and  C_17
REMARK    2  A    between atoms: N_3  and  C_4
REMARK    3  A    between atoms: C_7  and  C_8
REMARK    4  A    between atoms: N_20  and  C_21
REMARK                            x       y       z     vdW  Elec       q    Type
REMARK                         _______ _______ _______ _____ _____    ______ ____
ROOT
ATOM      1  O   UNL     1       1.651  10.438  19.329  0.00  0.00    +0.000 OA
ATOM      2  C   UNL     1       1.221   9.366  19.758  0.00  0.00    +0.000 C 
ATOM      3  N   UNL     1       0.180   9.210  20.652  0.00  0.00    +0.000 N 
ATOM      4  H   UNL     1       0.096   8.324  21.137  0.00  0.00    +0.000 HD
ENDROOT
BRANCH   3   5
ATOM      5  C   UNL     1      -0.598  10.291  21.145  0.00  0.00    +0.000 A 
ATOM      6  C   UNL     1      -1.197  11.198  20.262  0.00  0.00    +0.000 A 
ATOM      7  C   UNL     1      -1.935  12.288  20.711  0.00  0.00    +0.000 A 
ATOM      8  C   UNL     1      -2.136  12.483  22.077  0.00  0.00    +0.000 A 
ATOM      9  C   UNL     1      -1.547  11.574  22.972  0.00  0.00    +0.000 A 
ATOM     10  C   UNL     1      -0.768  10.505  22.520  0.00  0.00    +0.000 A 
ATOM     11 CL   UNL     1       0.062   9.558  23.706  0.00  0.00    +0.000 Cl
BRANCH   8  12
ATOM     12  C   UNL     1      -2.933  13.666  22.578  0.00  0.00    +0.000 C 
ATOM     13  C   UNL     1      -3.458  13.432  24.020  0.00  0.00    +0.000 C 
ATOM     14  N   UNL     1      -4.337  14.522  24.497  0.00  0.00    +0.000 NA
ATOM     15  C   UNL     1      -5.415  14.710  23.509  0.00  0.00    +0.000 C 
ATOM     16  C   UNL     1      -4.862  14.959  22.099  0.00  0.00    +0.000 C 
ATOM     17  O   UNL     1      -4.027  13.881  21.666  0.00  0.00    +0.000 OA
ATOM     18  H   UNL     1      -3.790  15.382  24.550  0.00  0.00    +0.000 HD
ENDBRANCH   8  12
ENDBRANCH   3   5
BRANCH   2  19
ATOM     19  C   UNL     1       1.917   8.171  19.368  0.00  0.00    +0.000 A 
ATOM     20  C   UNL     1       2.056   7.010  20.146  0.00  0.00    +0.000 A 
ATOM     21  N   UNL     1       2.684   6.026  19.486  0.00  0.00    +0.000 NA
ATOM     22  N   UNL     1       3.052   6.604  18.319  0.00  0.00    +0.000 N 
ATOM     23  C   UNL     1       2.586   7.893  18.208  0.00  0.00    +0.000 A 
BRANCH  22  24
ATOM     24  C   UNL     1       3.860   5.915  17.386  0.00  0.00    +0.000 A 
ATOM     25  C   UNL     1       3.861   4.513  17.374  0.00  0.00    +0.000 A 
ATOM     26  C   UNL     1       4.685   3.839  16.474  0.00  0.00    +0.000 A 
ATOM     27  C   UNL     1       5.509   4.563  15.624  0.00  0.00    +0.000 A 
ATOM     28  F   UNL     1       6.316   3.915  14.776  0.00  0.00    +0.000 F 
ATOM     29  C   UNL     1       5.512   5.954  15.630  0.00  0.00    +0.000 A 
ATOM     30  C   UNL     1       4.670   6.635  16.503  0.00  0.00    +0.000 A 
ENDBRANCH  22  24
ENDBRANCH   2  19
TORSDOF 4
ENDMDL
MODEL 9
REMARK VINA RESULT:      -7.9      4.408     11.227
REMARK  Name = 
REMARK  4 active torsions:
REMARK  status: ('A' for Active; 'I' for Inactive)
REMARK    1  A    between atoms: C_2  and  C_17
REMARK    2  A    between atoms: N_3  and  C_4
REMARK    3  A    between atoms: C_7  and  C_8
REMARK    4  A    between atoms: N_20  and  C_21
REMARK                            x       y       z     vdW  Elec       q    Type
REMARK                         _______ _______ _______ _____ _____    ______ ____
ROOT
ATOM      1  O   UNL     1      -0.227   9.015  21.216  0.00  0.00    +0.000 OA
ATOM      2  C   UNL     1       0.228   9.754  20.342  0.00  0.00    +0.000 C 
ATOM      3  N   UNL     1      -0.099  11.083  20.152  0.00  0.00    +0.000 N 
ATOM      4  H   UNL     1       0.119  11.505  19.257  0.00  0.00    +0.000 HD
ENDROOT
BRANCH   3   5
ATOM      5  C   UNL     1      -0.967  11.806  21.012  0.00  0.00    +0.000 A 
ATOM      6  C   UNL     1      -0.619  12.030  22.349  0.00  0.00    +0.000 A 
ATOM      7  C   UNL     1      -1.462  12.704  23.229  0.00  0.00    +0.000 A 
ATOM      8  C   UNL     1      -2.678  13.218  22.778  0.00  0.00    +0.000 A 
ATOM      9  C   UNL     1      -3.033  13.006  21.436  0.00  0.00    +0.000 A 
ATOM     10  C   UNL     1      -2.204  12.291  20.565  0.00  0.00    +0.000 A 
ATOM     11 CL   UNL     1      -2.817  11.928  18.990  0.00  0.00    +0.000 Cl
BRANCH   8  12
ATOM     12  C   UNL     1      -3.603  13.948  23.725  0.00  0.00    +0.000 C 
ATOM     13  C   UNL     1      -5.093  13.743  23.338  0.00  0.00    +0.000 C 
ATOM     14  N   UNL     1      -6.020  14.536  24.175  0.00  0.00    +0.000 NA
ATOM     15  C   UNL     1      -5.593  15.947  24.124  0.00  0.00    +0.000 C 
ATOM     16  C   UNL     1      -4.124  16.115  24.531  0.00  0.00    +0.000 C 
ATOM     17  O   UNL     1      -3.256  15.346  23.694  0.00  0.00    +0.000 OA
ATOM     18  H   UNL     1      -5.949  14.209  25.139  0.00  0.00    +0.000 HD
ENDBRANCH   8  12
ENDBRANCH   3   5
BRANCH   2  19
ATOM     19  C   UNL     1       1.111   9.165  19.373  0.00  0.00    +0.000 A 
ATOM     20  C   UNL     1       1.475   9.733  18.140  0.00  0.00    +0.000 A 
ATOM     21  N   UNL     1       2.381   8.993  17.485  0.00  0.00    +0.000 NA
ATOM     22  N   UNL     1       2.507   7.885  18.252  0.00  0.00    +0.000 N 
ATOM     23  C   UNL     1       1.770   7.967  19.410  0.00  0.00    +0.000 A 
BRANCH  22  24
ATOM     24  C   UNL     1       3.293   6.789  17.828  0.00  0.00    +0.000 A 
ATOM     25  C   UNL     1       4.481   7.022  17.121  0.00  0.00    +0.000 A 
ATOM     26  C   UNL     1       5.234   5.937  16.675  0.00  0.00    +0.000 A 
ATOM     27  C   UNL     1       4.784   4.646  16.916  0.00  0.00    +0.000 A 
ATOM     28  F   UNL     1       5.496   3.605  16.468  0.00  0.00    +0.000 F 
ATOM     29  C   UNL     1       3.607   4.407  17.617  0.00  0.00    +0.000 A 
ATOM     30  C   UNL     1       2.865   5.484  18.092  0.00  0.00    +0.000 A 
ENDBRANCH  22  24
ENDBRANCH   2  19
TORSDOF 4
ENDMDL
