MODEL 1
REMARK VINA RESULT:      -7.1      0.000      0.000
REMARK  Name = 
REMARK  3 active torsions:
REMARK  status: ('A' for Active; 'I' for Inactive)
REMARK    1  A    between atoms: C_2  and  O_9
REMARK    2  A    between atoms: N_3  and  C_4
REMARK    3  A    between atoms: O_9  and  C_10
REMARK                            x       y       z     vdW  Elec       q    Type
REMARK                         _______ _______ _______ _____ _____    ______ ____
ROOT
ATOM      1  C   UNL     1       3.903   2.771  17.824  0.00  0.00    +0.000 C 
ATOM      2  C   UNL     1       4.168   1.747  18.934  0.00  0.00    +0.000 C 
ATOM      3  O   UNL     1       4.374   2.364  20.200  0.00  0.00    +0.000 OA
ATOM      4  C   UNL     1       3.217   2.613  20.996  0.00  0.00    +0.000 C 
ATOM      5  C   UNL     1       1.934   3.096  20.302  0.00  0.00    +0.000 C 
ATOM      6  N   UNL     1       2.183   3.981  19.176  0.00  0.00    +0.000 N 
ATOM      7  C   UNL     1       2.032   5.319  19.251  0.00  0.00    +0.000 A 
ATOM      8  N   UNL     1       2.201   6.211  18.293  0.00  0.00    +0.000 NA
ATOM      9  C   UNL     1       1.915   7.406  18.894  0.00  0.00    +0.000 A 
ATOM     10  C   UNL     1       1.945   8.716  18.399  0.00  0.00    +0.000 A 
ATOM     11  C   UNL     1       1.618   9.760  19.278  0.00  0.00    +0.000 A 
ATOM     12  C   UNL     1       1.251   9.500  20.605  0.00  0.00    +0.000 A 
ATOM     13  C   UNL     1       1.199   8.192  21.106  0.00  0.00    +0.000 A 
ATOM     14  C   UNL     1       1.553   7.192  20.211  0.00  0.00    +0.000 A 
ATOM     15  O   UNL     1       1.624   5.851  20.448  0.00  0.00    +0.000 OA
ATOM     16  C   UNL     1       2.496   3.372  17.889  0.00  0.00    +0.000 C 
ENDROOT
BRANCH   1  17
ATOM     17  O   UNL     1       4.899   3.826  17.853  0.00  0.00    +0.000 OA
BRANCH  17  19
ATOM     18  O   UNL     1       4.765   5.598  16.445  0.00  0.00    +0.000 OA
ATOM     19  C   UNL     1       5.123   4.449  16.662  0.00  0.00    +0.000 C 
ATOM     20  N   UNL     1       5.745   3.588  15.801  0.00  0.00    +0.000 N 
ATOM     21  H   UNL     1       5.752   2.621  16.094  0.00  0.00    +0.000 HD
BRANCH  20  22
ATOM     22  C   UNL     1       6.225   3.909  14.545  0.00  0.00    +0.000 A 
ATOM     23  C   UNL     1       5.899   3.311  13.345  0.00  0.00    +0.000 A 
ATOM     24  C   UNL     1       6.586   3.905  12.241  0.00  0.00    +0.000 A 
ATOM     25  C   UNL     1       7.462   4.887  12.648  0.00  0.00    +0.000 A 
ATOM     26  S   UNL     1       7.424   5.104  14.340  0.00  0.00    +0.000 S 
ENDBRANCH  20  22
ENDBRANCH  17  19
ENDBRANCH   1  17
TORSDOF 3
ENDMDL
MODEL 2
REMARK VINA RESULT:      -7.0      8.174     11.082
REMARK  Name = 
REMARK  3 active torsions:
REMARK  status: ('A' for Active; 'I' for Inactive)
REMARK    1  A    between atoms: C_2  and  O_9
REMARK    2  A    between atoms: N_3  and  C_4
REMARK    3  A    between atoms: O_9  and  C_10
REMARK                            x       y       z     vdW  Elec       q    Type
REMARK                         _______ _______ _______ _____ _____    ______ ____
ROOT
ATOM      1  C   UNL     1      -5.131  13.656  21.608  0.00  0.00    +0.000 C 
ATOM      2  C   UNL     1      -5.946  13.677  22.907  0.00  0.00    +0.000 C 
ATOM      3  O   UNL     1      -5.752  12.501  23.685  0.00  0.00    +0.000 OA
ATOM      4  C   UNL     1      -4.669  12.508  24.612  0.00  0.00    +0.000 C 
ATOM      5  C   UNL     1      -3.346  13.170  24.197  0.00  0.00    +0.000 C 
ATOM      6  N   UNL     1      -3.028  12.995  22.789  0.00  0.00    +0.000 N 
ATOM      7  C   UNL     1      -2.123  12.097  22.349  0.00  0.00    +0.000 A 
ATOM      8  N   UNL     1      -1.738  11.872  21.108  0.00  0.00    +0.000 NA
ATOM      9  C   UNL     1      -0.806  10.877  21.221  0.00  0.00    +0.000 A 
ATOM     10  C   UNL     1      -0.063  10.196  20.248  0.00  0.00    +0.000 A 
ATOM     11  C   UNL     1       0.813   9.186  20.676  0.00  0.00    +0.000 A 
ATOM     12  C   UNL     1       0.958   8.882  22.036  0.00  0.00    +0.000 A 
ATOM     13  C   UNL     1       0.234   9.569  23.020  0.00  0.00    +0.000 A 
ATOM     14  C   UNL     1      -0.639  10.543  22.552  0.00  0.00    +0.000 A 
ATOM     15  O   UNL     1      -1.482  11.325  23.285  0.00  0.00    +0.000 OA
ATOM     16  C   UNL     1      -3.639  13.913  21.835  0.00  0.00    +0.000 C 
ENDROOT
BRANCH   1  17
ATOM     17  O   UNL     1      -5.321  12.401  20.906  0.00  0.00    +0.000 OA
BRANCH  17  19
ATOM     18  O   UNL     1      -5.796  13.294  18.877  0.00  0.00    +0.000 OA
ATOM     19  C   UNL     1      -5.199  12.467  19.550  0.00  0.00    +0.000 C 
ATOM     20  N   UNL     1      -4.368  11.472  19.113  0.00  0.00    +0.000 N 
ATOM     21  H   UNL     1      -4.156  10.760  19.799  0.00  0.00    +0.000 HD
BRANCH  20  22
ATOM     22  C   UNL     1      -3.926  11.303  17.814  0.00  0.00    +0.000 A 
ATOM     23  C   UNL     1      -4.697  11.148  16.680  0.00  0.00    +0.000 A 
ATOM     24  C   UNL     1      -3.902  11.001  15.502  0.00  0.00    +0.000 A 
ATOM     25  C   UNL     1      -2.555  10.980  15.789  0.00  0.00    +0.000 A 
ATOM     26  S   UNL     1      -2.264  11.169  17.460  0.00  0.00    +0.000 S 
ENDBRANCH  20  22
ENDBRANCH  17  19
ENDBRANCH   1  17
TORSDOF 3
ENDMDL
MODEL 3
REMARK VINA RESULT:      -6.7      0.925      1.119
REMARK  Name = 
REMARK  3 active torsions:
REMARK  status: ('A' for Active; 'I' for Inactive)
REMARK    1  A    between atoms: C_2  and  O_9
REMARK    2  A    between atoms: N_3  and  C_4
REMARK    3  A    between atoms: O_9  and  C_10
REMARK                            x       y       z     vdW  Elec       q    Type
REMARK                         _______ _______ _______ _____ _____    ______ ____
ROOT
ATOM      1  C   UNL     1       4.188   3.260  17.563  0.00  0.00    +0.000 C 
ATOM      2  C   UNL     1       4.531   2.180  18.596  0.00  0.00    +0.000 C 
ATOM      3  O   UNL     1       4.701   2.719  19.903  0.00  0.00    +0.000 OA
ATOM      4  C   UNL     1       3.535   2.830  20.716  0.00  0.00    +0.000 C 
ATOM      5  C   UNL     1       2.217   3.269  20.060  0.00  0.00    +0.000 C 
ATOM      6  N   UNL     1       2.396   4.247  19.000  0.00  0.00    +0.000 N 
ATOM      7  C   UNL     1       2.153   5.563  19.170  0.00  0.00    +0.000 A 
ATOM      8  N   UNL     1       2.254   6.530  18.278  0.00  0.00    +0.000 NA
ATOM      9  C   UNL     1       1.889   7.657  18.962  0.00  0.00    +0.000 A 
ATOM     10  C   UNL     1       1.824   8.998  18.562  0.00  0.00    +0.000 A 
ATOM     11  C   UNL     1       1.431   9.951  19.513  0.00  0.00    +0.000 A 
ATOM     12  C   UNL     1       1.091   9.573  20.819  0.00  0.00    +0.000 A 
ATOM     13  C   UNL     1       1.134   8.232  21.226  0.00  0.00    +0.000 A 
ATOM     14  C   UNL     1       1.551   7.325  20.262  0.00  0.00    +0.000 A 
ATOM     15  O   UNL     1       1.717   5.979  20.403  0.00  0.00    +0.000 OA
ATOM     16  C   UNL     1       2.743   3.755  17.672  0.00  0.00    +0.000 C 
ENDROOT
BRANCH   1  17
ATOM     17  O   UNL     1       5.108   4.377  17.665  0.00  0.00    +0.000 OA
BRANCH  17  19
ATOM     18  O   UNL     1       7.284   4.327  17.030  0.00  0.00    +0.000 OA
ATOM     19  C   UNL     1       6.101   4.402  16.732  0.00  0.00    +0.000 C 
ATOM     20  N   UNL     1       5.558   4.559  15.486  0.00  0.00    +0.000 N 
ATOM     21  H   UNL     1       4.583   4.825  15.475  0.00  0.00    +0.000 HD
BRANCH  20  22
ATOM     22  C   UNL     1       6.253   4.516  14.292  0.00  0.00    +0.000 A 
ATOM     23  C   UNL     1       7.343   5.279  13.929  0.00  0.00    +0.000 A 
ATOM     24  C   UNL     1       7.811   4.963  12.616  0.00  0.00    +0.000 A 
ATOM     25  C   UNL     1       7.018   4.021  12.000  0.00  0.00    +0.000 A 
ATOM     26  S   UNL     1       5.747   3.506  13.015  0.00  0.00    +0.000 S 
ENDBRANCH  20  22
ENDBRANCH  17  19
ENDBRANCH   1  17
TORSDOF 3
ENDMDL
MODEL 4
REMARK VINA RESULT:      -6.6      2.444      6.933
REMARK  Name = 
REMARK  3 active torsions:
REMARK  status: ('A' for Active; 'I' for Inactive)
REMARK    1  A    between atoms: C_2  and  O_9
REMARK    2  A    between atoms: N_3  and  C_4
REMARK    3  A    between atoms: O_9  and  C_10
REMARK                            x       y       z     vdW  Elec       q    Type
REMARK                         _______ _______ _______ _____ _____    ______ ____
ROOT
ATOM      1  C   UNL     1       2.371   5.166  20.526  0.00  0.00    +0.000 C 
ATOM      2  C   UNL     1       1.116   4.285  20.474  0.00  0.00    +0.000 C 
ATOM      3  O   UNL     1       0.762   3.931  19.141  0.00  0.00    +0.000 OA
ATOM      4  C   UNL     1       1.356   2.752  18.603  0.00  0.00    +0.000 C 
ATOM      5  C   UNL     1       2.830   2.456  18.923  0.00  0.00    +0.000 C 
ATOM      6  N   UNL     1       3.654   3.650  19.007  0.00  0.00    +0.000 N 
ATOM      7  C   UNL     1       4.482   4.039  18.016  0.00  0.00    +0.000 A 
ATOM      8  N   UNL     1       5.291   5.081  17.994  0.00  0.00    +0.000 NA
ATOM      9  C   UNL     1       5.900   5.008  16.771  0.00  0.00    +0.000 A 
ATOM     10  C   UNL     1       6.838   5.847  16.158  0.00  0.00    +0.000 A 
ATOM     11  C   UNL     1       7.266   5.519  14.862  0.00  0.00    +0.000 A 
ATOM     12  C   UNL     1       6.788   4.375  14.209  0.00  0.00    +0.000 A 
ATOM     13  C   UNL     1       5.864   3.518  14.821  0.00  0.00    +0.000 A 
ATOM     14  C   UNL     1       5.448   3.891  16.092  0.00  0.00    +0.000 A 
ATOM     15  O   UNL     1       4.537   3.262  16.887  0.00  0.00    +0.000 OA
ATOM     16  C   UNL     1       3.662   4.384  20.268  0.00  0.00    +0.000 C 
ENDROOT
BRANCH   1  17
ATOM     17  O   UNL     1       2.260   6.271  19.592  0.00  0.00    +0.000 OA
BRANCH  17  19
ATOM     18  O   UNL     1       1.575   7.580  21.312  0.00  0.00    +0.000 OA
ATOM     19  C   UNL     1       1.763   7.427  20.114  0.00  0.00    +0.000 C 
ATOM     20  N   UNL     1       1.492   8.310  19.104  0.00  0.00    +0.000 N 
ATOM     21  H   UNL     1       1.507   7.913  18.174  0.00  0.00    +0.000 HD
BRANCH  20  22
ATOM     22  C   UNL     1       1.084   9.620  19.265  0.00  0.00    +0.000 A 
ATOM     23  C   UNL     1       0.028  10.081  20.025  0.00  0.00    +0.000 A 
ATOM     24  C   UNL     1      -0.101  11.503  19.965  0.00  0.00    +0.000 A 
ATOM     25  C   UNL     1       0.816  12.067  19.107  0.00  0.00    +0.000 A 
ATOM     26  S   UNL     1       1.838  10.890  18.414  0.00  0.00    +0.000 S 
ENDBRANCH  20  22
ENDBRANCH  17  19
ENDBRANCH   1  17
TORSDOF 3
ENDMDL
MODEL 5
REMARK VINA RESULT:      -6.6      2.818      7.280
REMARK  Name = 
REMARK  3 active torsions:
REMARK  status: ('A' for Active; 'I' for Inactive)
REMARK    1  A    between atoms: C_2  and  O_9
REMARK    2  A    between atoms: N_3  and  C_4
REMARK    3  A    between atoms: O_9  and  C_10
REMARK                            x       y       z     vdW  Elec       q    Type
REMARK                         _______ _______ _______ _____ _____    ______ ____
ROOT
ATOM      1  C   UNL     1       1.951   4.805  20.700  0.00  0.00    +0.000 C 
ATOM      2  C   UNL     1       0.912   3.677  20.697  0.00  0.00    +0.000 C 
ATOM      3  O   UNL     1       0.670   3.171  19.388  0.00  0.00    +0.000 OA
ATOM      4  C   UNL     1       1.511   2.112  18.937  0.00  0.00    +0.000 C 
ATOM      5  C   UNL     1       3.006   2.156  19.289  0.00  0.00    +0.000 C 
ATOM      6  N   UNL     1       3.559   3.500  19.299  0.00  0.00    +0.000 N 
ATOM      7  C   UNL     1       4.308   3.991  18.290  0.00  0.00    +0.000 A 
ATOM      8  N   UNL     1       4.880   5.176  18.205  0.00  0.00    +0.000 NA
ATOM      9  C   UNL     1       5.518   5.154  16.995  0.00  0.00    +0.000 A 
ATOM     10  C   UNL     1       6.273   6.132  16.334  0.00  0.00    +0.000 A 
ATOM     11  C   UNL     1       6.789   5.820  15.067  0.00  0.00    +0.000 A 
ATOM     12  C   UNL     1       6.578   4.561  14.489  0.00  0.00    +0.000 A 
ATOM     13  C   UNL     1       5.841   3.568  15.150  0.00  0.00    +0.000 A 
ATOM     14  C   UNL     1       5.327   3.926  16.389  0.00  0.00    +0.000 A 
ATOM     15  O   UNL     1       4.551   3.171  17.217  0.00  0.00    +0.000 OA
ATOM     16  C   UNL     1       3.383   4.298  20.506  0.00  0.00    +0.000 C 
ENDROOT
BRANCH   1  17
ATOM     17  O   UNL     1       1.631   5.799  19.693  0.00  0.00    +0.000 OA
BRANCH  17  19
ATOM     18  O   UNL     1       2.595   7.845  19.840  0.00  0.00    +0.000 OA
ATOM     19  C   UNL     1       1.672   7.093  20.117  0.00  0.00    +0.000 C 
ATOM     20  N   UNL     1       0.577   7.358  20.893  0.00  0.00    +0.000 N 
ATOM     21  H   UNL     1       0.052   6.545  21.183  0.00  0.00    +0.000 HD
BRANCH  20  22
ATOM     22  C   UNL     1       0.230   8.596  21.401  0.00  0.00    +0.000 A 
ATOM     23  C   UNL     1      -0.080   8.908  22.709  0.00  0.00    +0.000 A 
ATOM     24  C   UNL     1      -0.389  10.293  22.876  0.00  0.00    +0.000 A 
ATOM     25  C   UNL     1      -0.371  10.972  21.679  0.00  0.00    +0.000 A 
ATOM     26  S   UNL     1       0.048   9.948  20.379  0.00  0.00    +0.000 S 
ENDBRANCH  20  22
ENDBRANCH  17  19
ENDBRANCH   1  17
TORSDOF 3
ENDMDL
MODEL 6
REMARK VINA RESULT:      -6.6      2.775      7.484
REMARK  Name = 
REMARK  3 active torsions:
REMARK  status: ('A' for Active; 'I' for Inactive)
REMARK    1  A    between atoms: C_2  and  O_9
REMARK    2  A    between atoms: N_3  and  C_4
REMARK    3  A    between atoms: O_9  and  C_10
REMARK                            x       y       z     vdW  Elec       q    Type
REMARK                         _______ _______ _______ _____ _____    ______ ____
ROOT
ATOM      1  C   UNL     1       3.614   5.960  18.798  0.00  0.00    +0.000 C 
ATOM      2  C   UNL     1       2.322   5.167  19.028  0.00  0.00    +0.000 C 
ATOM      3  O   UNL     1       1.779   4.657  17.814  0.00  0.00    +0.000 OA
ATOM      4  C   UNL     1       2.238   3.377  17.386  0.00  0.00    +0.000 C 
ATOM      5  C   UNL     1       3.724   3.029  17.563  0.00  0.00    +0.000 C 
ATOM      6  N   UNL     1       4.612   4.165  17.371  0.00  0.00    +0.000 N 
ATOM      7  C   UNL     1       5.321   4.356  16.240  0.00  0.00    +0.000 A 
ATOM      8  N   UNL     1       6.171   5.327  15.968  0.00  0.00    +0.000 NA
ATOM      9  C   UNL     1       6.610   5.044  14.703  0.00  0.00    +0.000 A 
ATOM     10  C   UNL     1       7.501   5.725  13.863  0.00  0.00    +0.000 A 
ATOM     11  C   UNL     1       7.739   5.193  12.587  0.00  0.00    +0.000 A 
ATOM     12  C   UNL     1       7.124   4.004  12.171  0.00  0.00    +0.000 A 
ATOM     13  C   UNL     1       6.246   3.304  13.010  0.00  0.00    +0.000 A 
ATOM     14  C   UNL     1       6.019   3.877  14.255  0.00  0.00    +0.000 A 
ATOM     15  O   UNL     1       5.188   3.427  15.238  0.00  0.00    +0.000 OA
ATOM     16  C   UNL     1       4.820   5.064  18.500  0.00  0.00    +0.000 C 
ENDROOT
BRANCH   1  17
ATOM     17  O   UNL     1       3.437   6.930  17.733  0.00  0.00    +0.000 OA
BRANCH  17  19
ATOM     18  O   UNL     1       2.400   8.884  17.239  0.00  0.00    +0.000 OA
ATOM     19  C   UNL     1       2.649   7.997  18.042  0.00  0.00    +0.000 C 
ATOM     20  N   UNL     1       2.250   7.913  19.348  0.00  0.00    +0.000 N 
ATOM     21  H   UNL     1       2.742   7.225  19.901  0.00  0.00    +0.000 HD
BRANCH  20  22
ATOM     22  C   UNL     1       1.354   8.758  19.974  0.00  0.00    +0.000 A 
ATOM     23  C   UNL     1       0.560   9.722  19.386  0.00  0.00    +0.000 A 
ATOM     24  C   UNL     1      -0.252  10.410  20.340  0.00  0.00    +0.000 A 
ATOM     25  C   UNL     1       0.002   9.993  21.627  0.00  0.00    +0.000 A 
ATOM     26  S   UNL     1       1.185   8.764  21.670  0.00  0.00    +0.000 S 
ENDBRANCH  20  22
ENDBRANCH  17  19
ENDBRANCH   1  17
TORSDOF 3
ENDMDL
MODEL 7
REMARK VINA RESULT:      -6.5      9.549     12.853
REMARK  Name = 
REMARK  3 active torsions:
REMARK  status: ('A' for Active; 'I' for Inactive)
REMARK    1  A    between atoms: C_2  and  O_9
REMARK    2  A    between atoms: N_3  and  C_4
REMARK    3  A    between atoms: O_9  and  C_10
REMARK                            x       y       z     vdW  Elec       q    Type
REMARK                         _______ _______ _______ _____ _____    ______ ____
ROOT
ATOM      1  C   UNL     1      -6.482  14.536  20.519  0.00  0.00    +0.000 C 
ATOM      2  C   UNL     1      -7.214  15.687  19.816  0.00  0.00    +0.000 C 
ATOM      3  O   UNL     1      -6.637  16.001  18.553  0.00  0.00    +0.000 OA
ATOM      4  C   UNL     1      -7.123  15.281  17.422  0.00  0.00    +0.000 C 
ATOM      5  C   UNL     1      -7.434  13.784  17.577  0.00  0.00    +0.000 C 
ATOM      6  N   UNL     1      -6.523  13.094  18.476  0.00  0.00    +0.000 N 
ATOM      7  C   UNL     1      -5.514  12.314  18.038  0.00  0.00    +0.000 A 
ATOM      8  N   UNL     1      -4.650  11.624  18.757  0.00  0.00    +0.000 NA
ATOM      9  C   UNL     1      -3.855  11.010  17.827  0.00  0.00    +0.000 A 
ATOM     10  C   UNL     1      -2.745  10.169  17.976  0.00  0.00    +0.000 A 
ATOM     11  C   UNL     1      -2.108   9.707  16.814  0.00  0.00    +0.000 A 
ATOM     12  C   UNL     1      -2.581  10.057  15.541  0.00  0.00    +0.000 A 
ATOM     13  C   UNL     1      -3.702  10.883  15.380  0.00  0.00    +0.000 A 
ATOM     14  C   UNL     1      -4.288  11.337  16.555  0.00  0.00    +0.000 A 
ATOM     15  O   UNL     1      -5.356  12.175  16.682  0.00  0.00    +0.000 OA
ATOM     16  C   UNL     1      -6.795  13.168  19.907  0.00  0.00    +0.000 C 
ENDROOT
BRANCH   1  17
ATOM     17  O   UNL     1      -5.050  14.767  20.522  0.00  0.00    +0.000 OA
BRANCH  17  19
ATOM     18  O   UNL     1      -4.673  14.068  22.645  0.00  0.00    +0.000 OA
ATOM     19  C   UNL     1      -4.351  14.077  21.466  0.00  0.00    +0.000 C 
ATOM     20  N   UNL     1      -3.269  13.471  20.888  0.00  0.00    +0.000 N 
ATOM     21  H   UNL     1      -3.055  13.783  19.951  0.00  0.00    +0.000 HD
BRANCH  20  22
ATOM     22  C   UNL     1      -2.401  12.598  21.517  0.00  0.00    +0.000 A 
ATOM     23  C   UNL     1      -2.490  12.112  22.805  0.00  0.00    +0.000 A 
ATOM     24  C   UNL     1      -1.416  11.223  23.123  0.00  0.00    +0.000 A 
ATOM     25  C   UNL     1      -0.512  11.119  22.089  0.00  0.00    +0.000 A 
ATOM     26  S   UNL     1      -0.980  12.060  20.745  0.00  0.00    +0.000 S 
ENDBRANCH  20  22
ENDBRANCH  17  19
ENDBRANCH   1  17
TORSDOF 3
ENDMDL
MODEL 8
REMARK VINA RESULT:      -6.4      2.942      5.872
REMARK  Name = 
REMARK  3 active torsions:
REMARK  status: ('A' for Active; 'I' for Inactive)
REMARK    1  A    between atoms: C_2  and  O_9
REMARK    2  A    between atoms: N_3  and  C_4
REMARK    3  A    between atoms: O_9  and  C_10
REMARK                            x       y       z     vdW  Elec       q    Type
REMARK                         _______ _______ _______ _____ _____    ______ ____
ROOT
ATOM      1  C   UNL     1       2.545   2.497  20.316  0.00  0.00    +0.000 C 
ATOM      2  C   UNL     1       1.232   2.501  19.522  0.00  0.00    +0.000 C 
ATOM      3  O   UNL     1       1.049   3.709  18.790  0.00  0.00    +0.000 OA
ATOM      4  C   UNL     1       1.600   3.761  17.476  0.00  0.00    +0.000 C 
ATOM      5  C   UNL     1       2.972   3.117  17.224  0.00  0.00    +0.000 C 
ATOM      6  N   UNL     1       3.888   3.250  18.346  0.00  0.00    +0.000 N 
ATOM      7  C   UNL     1       4.889   4.154  18.369  0.00  0.00    +0.000 A 
ATOM      8  N   UNL     1       5.790   4.344  19.314  0.00  0.00    +0.000 NA
ATOM      9  C   UNL     1       6.566   5.365  18.837  0.00  0.00    +0.000 A 
ATOM     10  C   UNL     1       7.663   6.028  19.400  0.00  0.00    +0.000 A 
ATOM     11  C   UNL     1       8.247   7.073  18.669  0.00  0.00    +0.000 A 
ATOM     12  C   UNL     1       7.763   7.429  17.402  0.00  0.00    +0.000 A 
ATOM     13  C   UNL     1       6.678   6.760  16.820  0.00  0.00    +0.000 A 
ATOM     14  C   UNL     1       6.114   5.749  17.588  0.00  0.00    +0.000 A 
ATOM     15  O   UNL     1       5.036   4.973  17.279  0.00  0.00    +0.000 OA
ATOM     16  C   UNL     1       3.777   2.284  19.432  0.00  0.00    +0.000 C 
ENDROOT
BRANCH   1  17
ATOM     17  O   UNL     1       2.684   3.722  21.081  0.00  0.00    +0.000 OA
BRANCH  17  19
ATOM     18  O   UNL     1       0.692   4.761  20.780  0.00  0.00    +0.000 OA
ATOM     19  C   UNL     1       1.909   4.761  20.663  0.00  0.00    +0.000 C 
ATOM     20  N   UNL     1       2.696   5.722  20.089  0.00  0.00    +0.000 N 
ATOM     21  H   UNL     1       3.644   5.434  19.890  0.00  0.00    +0.000 HD
BRANCH  20  22
ATOM     22  C   UNL     1       2.268   6.962  19.655  0.00  0.00    +0.000 A 
ATOM     23  C   UNL     1       2.450   7.522  18.407  0.00  0.00    +0.000 A 
ATOM     24  C   UNL     1       1.868   8.824  18.309  0.00  0.00    +0.000 A 
ATOM     25  C   UNL     1       1.325   9.237  19.505  0.00  0.00    +0.000 A 
ATOM     26  S   UNL     1       1.491   8.047  20.717  0.00  0.00    +0.000 S 
ENDBRANCH  20  22
ENDBRANCH  17  19
ENDBRANCH   1  17
TORSDOF 3
ENDMDL
MODEL 9
REMARK VINA RESULT:      -6.3      4.018      5.900
REMARK  Name = 
REMARK  3 active torsions:
REMARK  status: ('A' for Active; 'I' for Inactive)
REMARK    1  A    between atoms: C_2  and  O_9
REMARK    2  A    between atoms: N_3  and  C_4
REMARK    3  A    between atoms: O_9  and  C_10
REMARK                            x       y       z     vdW  Elec       q    Type
REMARK                         _______ _______ _______ _____ _____    ______ ____
ROOT
ATOM      1  C   UNL     1       6.679   6.665  16.466  0.00  0.00    +0.000 C 
ATOM      2  C   UNL     1       7.416   5.800  15.436  0.00  0.00    +0.000 C 
ATOM      3  O   UNL     1       7.368   4.415  15.762  0.00  0.00    +0.000 OA
ATOM      4  C   UNL     1       6.253   3.673  15.274  0.00  0.00    +0.000 C 
ATOM      5  C   UNL     1       4.865   4.333  15.284  0.00  0.00    +0.000 C 
ATOM      6  N   UNL     1       4.649   5.206  16.426  0.00  0.00    +0.000 N 
ATOM      7  C   UNL     1       3.916   4.841  17.498  0.00  0.00    +0.000 A 
ATOM      8  N   UNL     1       3.631   5.556  18.569  0.00  0.00    +0.000 NA
ATOM      9  C   UNL     1       2.860   4.722  19.333  0.00  0.00    +0.000 A 
ATOM     10  C   UNL     1       2.280   4.903  20.595  0.00  0.00    +0.000 A 
ATOM     11  C   UNL     1       1.551   3.837  21.144  0.00  0.00    +0.000 A 
ATOM     12  C   UNL     1       1.388   2.635  20.442  0.00  0.00    +0.000 A 
ATOM     13  C   UNL     1       1.948   2.449  19.171  0.00  0.00    +0.000 A 
ATOM     14  C   UNL     1       2.681   3.519  18.675  0.00  0.00    +0.000 A 
ATOM     15  O   UNL     1       3.356   3.588  17.493  0.00  0.00    +0.000 OA
ATOM     16  C   UNL     1       5.155   6.571  16.344  0.00  0.00    +0.000 C 
ENDROOT
BRANCH   1  17
ATOM     17  O   UNL     1       7.095   6.323  17.813  0.00  0.00    +0.000 OA
BRANCH  17  19
ATOM     18  O   UNL     1       8.654   6.941  19.338  0.00  0.00    +0.000 OA
ATOM     19  C   UNL     1       7.897   7.238  18.426  0.00  0.00    +0.000 C 
ATOM     20  N   UNL     1       7.678   8.476  17.888  0.00  0.00    +0.000 N 
ATOM     21  H   UNL     1       6.857   8.549  17.303  0.00  0.00    +0.000 HD
BRANCH  20  22
ATOM     22  C   UNL     1       8.392   9.622  18.184  0.00  0.00    +0.000 A 
ATOM     23  C   UNL     1       9.407   9.761  19.108  0.00  0.00    +0.000 A 
ATOM     24  C   UNL     1       9.924  11.094  19.147  0.00  0.00    +0.000 A 
ATOM     25  C   UNL     1       9.237  11.936  18.302  0.00  0.00    +0.000 A 
ATOM     26  S   UNL     1       8.008  11.113  17.452  0.00  0.00    +0.000 S 
ENDBRANCH  20  22
ENDBRANCH  17  19
ENDBRANCH   1  17
TORSDOF 3
ENDMDL
