MODEL 1
REMARK VINA RESULT:      -8.5      0.000      0.000
REMARK  Name = 
REMARK  5 active torsions:
REMARK  status: ('A' for Active; 'I' for Inactive)
REMARK    1  A    between atoms: C_7  and  C_8
REMARK    2  A    between atoms: C_8  and  C_9
REMARK    3  A    between atoms: C_9  and  N_10
REMARK    4  A    between atoms: C_13  and  C_14
REMARK    5  A    between atoms: C_16  and  C_17
REMARK                            x       y       z     vdW  Elec       q    Type
REMARK                         _______ _______ _______ _____ _____    ______ ____
ROOT
ATOM      1  N   UNL     1       1.468   8.988  18.806  0.00  0.00    +0.000 N 
ATOM      2  C   UNL     1       1.552   8.424  20.051  0.00  0.00    +0.000 A 
ATOM      3  N   UNL     1       2.165   7.261  20.016  0.00  0.00    +0.000 NA
ATOM      4  C   UNL     1       2.514   7.071  18.695  0.00  0.00    +0.000 A 
ATOM      5  C   UNL     1       2.086   8.140  17.934  0.00  0.00    +0.000 A 
ENDROOT
BRANCH   4   6
ATOM      6  C   UNL     1       3.264   5.927  18.191  0.00  0.00    +0.000 A 
ATOM      7  C   UNL     1       4.273   6.110  17.256  0.00  0.00    +0.000 A 
ATOM      8  C   UNL     1       4.928   4.988  16.740  0.00  0.00    +0.000 A 
ATOM      9  C   UNL     1       4.548   3.721  17.189  0.00  0.00    +0.000 A 
ATOM     10  C   UNL     1       3.547   3.632  18.139  0.00  0.00    +0.000 A 
ATOM     11  N   UNL     1       2.898   4.701  18.648  0.00  0.00    +0.000 NA
BRANCH   8  12
ATOM     12  C   UNL     1       5.979   5.135  15.745  0.00  0.00    +0.000 A 
ATOM     13  N   UNL     1       5.844   4.718  14.440  0.00  0.00    +0.000 NA
ATOM     14  N   UNL     1       6.983   5.002  13.826  0.00  0.00    +0.000 NA
ATOM     15  N   UNL     1       7.742   5.566  14.771  0.00  0.00    +0.000 N 
ATOM     16  N   UNL     1       7.183   5.684  15.982  0.00  0.00    +0.000 NA
ATOM     17  H   UNL     1       8.688   5.884  14.578  0.00  0.00    +0.000 HD
ENDBRANCH   8  12
ENDBRANCH   4   6
BRANCH   1  18
ATOM     18  C   UNL     1       0.896  10.293  18.516  0.00  0.00    +0.000 C 
BRANCH  18  19
ATOM     19  C   UNL     1      -0.411  10.588  19.258  0.00  0.00    +0.000 C 
BRANCH  19  26
ATOM     20 CL   UNL     1      -2.774  12.544  19.996  0.00  0.00    +0.000 Cl
ATOM     21  C   UNL     1      -2.715  11.523  18.605  0.00  0.00    +0.000 A 
ATOM     22  C   UNL     1      -3.814  11.539  17.742  0.00  0.00    +0.000 A 
ATOM     23  C   UNL     1      -3.828  10.736  16.601  0.00  0.00    +0.000 A 
ATOM     24  C   UNL     1      -2.736   9.922  16.319  0.00  0.00    +0.000 A 
ATOM     25  C   UNL     1      -1.637   9.903  17.178  0.00  0.00    +0.000 A 
ATOM     26  C   UNL     1      -1.612  10.694  18.342  0.00  0.00    +0.000 A 
ENDBRANCH  19  26
ENDBRANCH  18  19
ENDBRANCH   1  18
TORSDOF 5
ENDMDL
MODEL 2
REMARK VINA RESULT:      -8.4      4.013      8.417
REMARK  Name = 
REMARK  5 active torsions:
REMARK  status: ('A' for Active; 'I' for Inactive)
REMARK    1  A    between atoms: C_7  and  C_8
REMARK    2  A    between atoms: C_8  and  C_9
REMARK    3  A    between atoms: C_9  and  N_10
REMARK    4  A    between atoms: C_13  and  C_14
REMARK    5  A    between atoms: C_16  and  C_17
REMARK                            x       y       z     vdW  Elec       q    Type
REMARK                         _______ _______ _______ _____ _____    ______ ____
ROOT
ATOM      1  N   UNL     1       4.018   4.384  17.812  0.00  0.00    +0.000 N 
ATOM      2  C   UNL     1       4.908   4.866  18.734  0.00  0.00    +0.000 A 
ATOM      3  N   UNL     1       4.527   6.030  19.214  0.00  0.00    +0.000 NA
ATOM      4  C   UNL     1       3.326   6.306  18.595  0.00  0.00    +0.000 A 
ATOM      5  C   UNL     1       3.000   5.288  17.721  0.00  0.00    +0.000 A 
ENDROOT
BRANCH   4   6
ATOM      6  C   UNL     1       2.506   7.481  18.861  0.00  0.00    +0.000 A 
ATOM      7  C   UNL     1       1.992   7.702  20.131  0.00  0.00    +0.000 A 
ATOM      8  C   UNL     1       1.152   8.799  20.339  0.00  0.00    +0.000 A 
ATOM      9  C   UNL     1       0.866   9.641  19.262  0.00  0.00    +0.000 A 
ATOM     10  C   UNL     1       1.438   9.359  18.036  0.00  0.00    +0.000 A 
ATOM     11  N   UNL     1       2.248   8.303  17.811  0.00  0.00    +0.000 NA
BRANCH   8  12
ATOM     12  C   UNL     1       0.579   9.055  21.651  0.00  0.00    +0.000 A 
ATOM     13  N   UNL     1       1.308   9.560  22.705  0.00  0.00    +0.000 NA
ATOM     14  N   UNL     1       0.478   9.660  23.734  0.00  0.00    +0.000 NA
ATOM     15  N   UNL     1      -0.693   9.217  23.264  0.00  0.00    +0.000 N 
ATOM     16  N   UNL     1      -0.704   8.830  21.982  0.00  0.00    +0.000 NA
ATOM     17  H   UNL     1      -1.523   9.177  23.849  0.00  0.00    +0.000 HD
ENDBRANCH   8  12
ENDBRANCH   4   6
BRANCH   1  18
ATOM     18  C   UNL     1       4.124   3.101  17.138  0.00  0.00    +0.000 C 
BRANCH  18  19
ATOM     19  C   UNL     1       3.301   1.981  17.781  0.00  0.00    +0.000 C 
BRANCH  19  26
ATOM     20 CL   UNL     1       4.910   1.800  20.489  0.00  0.00    +0.000 Cl
ATOM     21  C   UNL     1       3.272   2.321  20.328  0.00  0.00    +0.000 A 
ATOM     22  C   UNL     1       2.586   2.670  21.495  0.00  0.00    +0.000 A 
ATOM     23  C   UNL     1       1.260   3.099  21.433  0.00  0.00    +0.000 A 
ATOM     24  C   UNL     1       0.622   3.188  20.200  0.00  0.00    +0.000 A 
ATOM     25  C   UNL     1       1.304   2.840  19.033  0.00  0.00    +0.000 A 
ATOM     26  C   UNL     1       2.637   2.390  19.078  0.00  0.00    +0.000 A 
ENDBRANCH  19  26
ENDBRANCH  18  19
ENDBRANCH   1  18
TORSDOF 5
ENDMDL
MODEL 3
REMARK VINA RESULT:      -8.2      6.440      8.830
REMARK  Name = 
REMARK  5 active torsions:
REMARK  status: ('A' for Active; 'I' for Inactive)
REMARK    1  A    between atoms: C_7  and  C_8
REMARK    2  A    between atoms: C_8  and  C_9
REMARK    3  A    between atoms: C_9  and  N_10
REMARK    4  A    between atoms: C_13  and  C_14
REMARK    5  A    between atoms: C_16  and  C_17
REMARK                            x       y       z     vdW  Elec       q    Type
REMARK                         _______ _______ _______ _____ _____    ______ ____
ROOT
ATOM      1  N   UNL     1       8.164   8.563  18.124  0.00  0.00    +0.000 N 
ATOM      2  C   UNL     1       8.514   7.597  19.027  0.00  0.00    +0.000 A 
ATOM      3  N   UNL     1       7.993   6.430  18.717  0.00  0.00    +0.000 NA
ATOM      4  C   UNL     1       7.292   6.642  17.548  0.00  0.00    +0.000 A 
ATOM      5  C   UNL     1       7.392   7.965  17.170  0.00  0.00    +0.000 A 
ENDROOT
BRANCH   4   6
ATOM      6  C   UNL     1       6.587   5.606  16.804  0.00  0.00    +0.000 A 
ATOM      7  C   UNL     1       5.506   4.949  17.373  0.00  0.00    +0.000 A 
ATOM      8  C   UNL     1       4.893   3.913  16.662  0.00  0.00    +0.000 A 
ATOM      9  C   UNL     1       5.387   3.580  15.399  0.00  0.00    +0.000 A 
ATOM     10  C   UNL     1       6.456   4.301  14.899  0.00  0.00    +0.000 A 
ATOM     11  N   UNL     1       7.065   5.302  15.568  0.00  0.00    +0.000 NA
BRANCH   8  12
ATOM     12  C   UNL     1       3.768   3.188  17.231  0.00  0.00    +0.000 A 
ATOM     13  N   UNL     1       2.458   3.572  17.053  0.00  0.00    +0.000 NA
ATOM     14  N   UNL     1       1.707   2.697  17.707  0.00  0.00    +0.000 NA
ATOM     15  N   UNL     1       2.583   1.839  18.242  0.00  0.00    +0.000 N 
ATOM     16  N   UNL     1       3.875   2.080  17.986  0.00  0.00    +0.000 NA
ATOM     17  H   UNL     1       2.282   1.053  18.811  0.00  0.00    +0.000 HD
ENDBRANCH   8  12
ENDBRANCH   4   6
BRANCH   1  18
ATOM     18  C   UNL     1       8.619   9.944  18.155  0.00  0.00    +0.000 C 
BRANCH  18  19
ATOM     19  C   UNL     1       9.400  10.321  19.417  0.00  0.00    +0.000 C 
BRANCH  19  26
ATOM     20 CL   UNL     1       9.822  12.432  21.725  0.00  0.00    +0.000 Cl
ATOM     21  C   UNL     1      10.585  12.472  20.177  0.00  0.00    +0.000 A 
ATOM     22  C   UNL     1      11.445  13.541  19.906  0.00  0.00    +0.000 A 
ATOM     23  C   UNL     1      12.092  13.631  18.673  0.00  0.00    +0.000 A 
ATOM     24  C   UNL     1      11.886  12.645  17.713  0.00  0.00    +0.000 A 
ATOM     25  C   UNL     1      11.028  11.577  17.980  0.00  0.00    +0.000 A 
ATOM     26  C   UNL     1      10.354  11.478  19.212  0.00  0.00    +0.000 A 
ENDBRANCH  19  26
ENDBRANCH  18  19
ENDBRANCH   1  18
TORSDOF 5
ENDMDL
MODEL 4
REMARK VINA RESULT:      -8.2      3.635      8.348
REMARK  Name = 
REMARK  5 active torsions:
REMARK  status: ('A' for Active; 'I' for Inactive)
REMARK    1  A    between atoms: C_7  and  C_8
REMARK    2  A    between atoms: C_8  and  C_9
REMARK    3  A    between atoms: C_9  and  N_10
REMARK    4  A    between atoms: C_13  and  C_14
REMARK    5  A    between atoms: C_16  and  C_17
REMARK                            x       y       z     vdW  Elec       q    Type
REMARK                         _______ _______ _______ _____ _____    ______ ____
ROOT
ATOM      1  N   UNL     1       4.560   5.071  18.726  0.00  0.00    +0.000 N 
ATOM      2  C   UNL     1       4.598   5.471  17.418  0.00  0.00    +0.000 A 
ATOM      3  N   UNL     1       3.815   6.506  17.203  0.00  0.00    +0.000 NA
ATOM      4  C   UNL     1       3.262   6.806  18.431  0.00  0.00    +0.000 A 
ATOM      5  C   UNL     1       3.719   5.920  19.385  0.00  0.00    +0.000 A 
ENDROOT
BRANCH   4   6
ATOM      6  C   UNL     1       2.361   7.923  18.684  0.00  0.00    +0.000 A 
ATOM      7  C   UNL     1       1.822   8.114  19.948  0.00  0.00    +0.000 A 
ATOM      8  C   UNL     1       0.908   9.153  20.143  0.00  0.00    +0.000 A 
ATOM      9  C   UNL     1       0.573   9.968  19.059  0.00  0.00    +0.000 A 
ATOM     10  C   UNL     1       1.174   9.719  17.839  0.00  0.00    +0.000 A 
ATOM     11  N   UNL     1       2.055   8.720  17.626  0.00  0.00    +0.000 NA
BRANCH   8  12
ATOM     12  C   UNL     1       0.307   9.377  21.449  0.00  0.00    +0.000 A 
ATOM     13  N   UNL     1       0.532  10.511  22.197  0.00  0.00    +0.000 NA
ATOM     14  N   UNL     1      -0.161  10.377  23.318  0.00  0.00    +0.000 NA
ATOM     15  N   UNL     1      -0.761   9.188  23.201  0.00  0.00    +0.000 N 
ATOM     16  N   UNL     1      -0.519   8.515  22.068  0.00  0.00    +0.000 NA
ATOM     17  H   UNL     1      -1.364   8.818  23.931  0.00  0.00    +0.000 HD
ENDBRANCH   8  12
ENDBRANCH   4   6
BRANCH   1  18
ATOM     18  C   UNL     1       5.351   3.991  19.295  0.00  0.00    +0.000 C 
BRANCH  18  19
ATOM     19  C   UNL     1       4.647   2.631  19.304  0.00  0.00    +0.000 C 
BRANCH  19  26
ATOM     20 CL   UNL     1       2.370   2.686  17.120  0.00  0.00    +0.000 Cl
ATOM     21  C   UNL     1       2.124   2.756  18.828  0.00  0.00    +0.000 A 
ATOM     22  C   UNL     1       0.809   2.872  19.288  0.00  0.00    +0.000 A 
ATOM     23  C   UNL     1       0.544   2.934  20.657  0.00  0.00    +0.000 A 
ATOM     24  C   UNL     1       1.595   2.870  21.566  0.00  0.00    +0.000 A 
ATOM     25  C   UNL     1       2.909   2.754  21.109  0.00  0.00    +0.000 A 
ATOM     26  C   UNL     1       3.197   2.706  19.732  0.00  0.00    +0.000 A 
ENDBRANCH  19  26
ENDBRANCH  18  19
ENDBRANCH   1  18
TORSDOF 5
ENDMDL
MODEL 5
REMARK VINA RESULT:      -8.1      3.767      8.772
REMARK  Name = 
REMARK  5 active torsions:
REMARK  status: ('A' for Active; 'I' for Inactive)
REMARK    1  A    between atoms: C_7  and  C_8
REMARK    2  A    between atoms: C_8  and  C_9
REMARK    3  A    between atoms: C_9  and  N_10
REMARK    4  A    between atoms: C_13  and  C_14
REMARK    5  A    between atoms: C_16  and  C_17
REMARK                            x       y       z     vdW  Elec       q    Type
REMARK                         _______ _______ _______ _____ _____    ______ ____
ROOT
ATOM      1  N   UNL     1       3.544   4.493  18.485  0.00  0.00    +0.000 N 
ATOM      2  C   UNL     1       3.235   4.363  19.813  0.00  0.00    +0.000 A 
ATOM      3  N   UNL     1       2.697   5.462  20.296  0.00  0.00    +0.000 NA
ATOM      4  C   UNL     1       2.633   6.337  19.232  0.00  0.00    +0.000 A 
ATOM      5  C   UNL     1       3.156   5.744  18.100  0.00  0.00    +0.000 A 
ENDROOT
BRANCH   4   6
ATOM      6  C   UNL     1       2.055   7.673  19.290  0.00  0.00    +0.000 A 
ATOM      7  C   UNL     1       1.436   8.118  20.449  0.00  0.00    +0.000 A 
ATOM      8  C   UNL     1       0.831   9.378  20.452  0.00  0.00    +0.000 A 
ATOM      9  C   UNL     1       0.877  10.150  19.289  0.00  0.00    +0.000 A 
ATOM     10  C   UNL     1       1.534   9.637  18.185  0.00  0.00    +0.000 A 
ATOM     11  N   UNL     1       2.121   8.423  18.158  0.00  0.00    +0.000 NA
BRANCH   8  12
ATOM     12  C   UNL     1       0.156   9.873  21.642  0.00  0.00    +0.000 A 
ATOM     13  N   UNL     1       0.116  11.206  21.984  0.00  0.00    +0.000 NA
ATOM     14  N   UNL     1      -0.569  11.292  23.116  0.00  0.00    +0.000 NA
ATOM     15  N   UNL     1      -0.904  10.030  23.402  0.00  0.00    +0.000 N 
ATOM     16  N   UNL     1      -0.491   9.100  22.531  0.00  0.00    +0.000 NA
ATOM     17  H   UNL     1      -1.439   9.794  24.233  0.00  0.00    +0.000 HD
ENDBRANCH   8  12
ENDBRANCH   4   6
BRANCH   1  18
ATOM     18  C   UNL     1       4.101   3.443  17.649  0.00  0.00    +0.000 C 
BRANCH  18  19
ATOM     19  C   UNL     1       5.167   3.923  16.660  0.00  0.00    +0.000 C 
BRANCH  19  26
ATOM     20 CL   UNL     1       5.155   6.810  15.387  0.00  0.00    +0.000 Cl
ATOM     21  C   UNL     1       6.145   6.299  16.706  0.00  0.00    +0.000 A 
ATOM     22  C   UNL     1       7.038   7.231  17.244  0.00  0.00    +0.000 A 
ATOM     23  C   UNL     1       7.866   6.881  18.312  0.00  0.00    +0.000 A 
ATOM     24  C   UNL     1       7.793   5.598  18.847  0.00  0.00    +0.000 A 
ATOM     25  C   UNL     1       6.903   4.666  18.311  0.00  0.00    +0.000 A 
ATOM     26  C   UNL     1       6.072   4.997  17.225  0.00  0.00    +0.000 A 
ENDBRANCH  19  26
ENDBRANCH  18  19
ENDBRANCH   1  18
TORSDOF 5
ENDMDL
MODEL 6
REMARK VINA RESULT:      -8.0      5.154      6.824
REMARK  Name = 
REMARK  5 active torsions:
REMARK  status: ('A' for Active; 'I' for Inactive)
REMARK    1  A    between atoms: C_7  and  C_8
REMARK    2  A    between atoms: C_8  and  C_9
REMARK    3  A    between atoms: C_9  and  N_10
REMARK    4  A    between atoms: C_13  and  C_14
REMARK    5  A    between atoms: C_16  and  C_17
REMARK                            x       y       z     vdW  Elec       q    Type
REMARK                         _______ _______ _______ _____ _____    ______ ____
ROOT
ATOM      1  N   UNL     1       5.826   5.331  18.265  0.00  0.00    +0.000 N 
ATOM      2  C   UNL     1       7.156   5.038  18.395  0.00  0.00    +0.000 A 
ATOM      3  N   UNL     1       7.719   4.809  17.228  0.00  0.00    +0.000 NA
ATOM      4  C   UNL     1       6.715   4.982  16.298  0.00  0.00    +0.000 A 
ATOM      5  C   UNL     1       5.534   5.309  16.932  0.00  0.00    +0.000 A 
ENDROOT
BRANCH   4   6
ATOM      6  C   UNL     1       6.894   4.879  14.855  0.00  0.00    +0.000 A 
ATOM      7  C   UNL     1       6.025   4.108  14.096  0.00  0.00    +0.000 A 
ATOM      8  C   UNL     1       6.263   3.972  12.726  0.00  0.00    +0.000 A 
ATOM      9  C   UNL     1       7.364   4.624  12.165  0.00  0.00    +0.000 A 
ATOM     10  C   UNL     1       8.166   5.389  12.992  0.00  0.00    +0.000 A 
ATOM     11  N   UNL     1       7.958   5.531  14.317  0.00  0.00    +0.000 NA
BRANCH   8  12
ATOM     12  C   UNL     1       5.385   3.158  11.899  0.00  0.00    +0.000 A 
ATOM     13  N   UNL     1       4.155   3.589  11.457  0.00  0.00    +0.000 NA
ATOM     14  N   UNL     1       3.635   2.602  10.742  0.00  0.00    +0.000 NA
ATOM     15  N   UNL     1       4.557   1.635  10.785  0.00  0.00    +0.000 N 
ATOM     16  N   UNL     1       5.667   1.912  11.480  0.00  0.00    +0.000 NA
ATOM     17  H   UNL     1       4.419   0.743  10.318  0.00  0.00    +0.000 HD
ENDBRANCH   8  12
ENDBRANCH   4   6
BRANCH   1  18
ATOM     18  C   UNL     1       4.936   5.683  19.360  0.00  0.00    +0.000 C 
BRANCH  18  19
ATOM     19  C   UNL     1       3.455   5.742  18.975  0.00  0.00    +0.000 C 
BRANCH  19  26
ATOM     20 CL   UNL     1       1.232   4.234  17.318  0.00  0.00    +0.000 Cl
ATOM     21  C   UNL     1       1.594   3.969  18.986  0.00  0.00    +0.000 A 
ATOM     22  C   UNL     1       0.824   3.027  19.674  0.00  0.00    +0.000 A 
ATOM     23  C   UNL     1       1.066   2.767  21.023  0.00  0.00    +0.000 A 
ATOM     24  C   UNL     1       2.086   3.445  21.683  0.00  0.00    +0.000 A 
ATOM     25  C   UNL     1       2.856   4.387  20.999  0.00  0.00    +0.000 A 
ATOM     26  C   UNL     1       2.616   4.673  19.642  0.00  0.00    +0.000 A 
ENDBRANCH  19  26
ENDBRANCH  18  19
ENDBRANCH   1  18
TORSDOF 5
ENDMDL
MODEL 7
REMARK VINA RESULT:      -8.0      1.068      1.213
REMARK  Name = 
REMARK  5 active torsions:
REMARK  status: ('A' for Active; 'I' for Inactive)
REMARK    1  A    between atoms: C_7  and  C_8
REMARK    2  A    between atoms: C_8  and  C_9
REMARK    3  A    between atoms: C_9  and  N_10
REMARK    4  A    between atoms: C_13  and  C_14
REMARK    5  A    between atoms: C_16  and  C_17
REMARK                            x       y       z     vdW  Elec       q    Type
REMARK                         _______ _______ _______ _____ _____    ______ ____
ROOT
ATOM      1  N   UNL     1       1.315   8.951  19.993  0.00  0.00    +0.000 N 
ATOM      2  C   UNL     1       1.202   8.087  21.049  0.00  0.00    +0.000 A 
ATOM      3  N   UNL     1       1.622   6.880  20.736  0.00  0.00    +0.000 NA
ATOM      4  C   UNL     1       2.049   6.970  19.427  0.00  0.00    +0.000 A 
ATOM      5  C   UNL     1       1.863   8.254  18.956  0.00  0.00    +0.000 A 
ENDROOT
BRANCH   4   6
ATOM      6  C   UNL     1       2.647   5.876  18.673  0.00  0.00    +0.000 A 
ATOM      7  C   UNL     1       3.884   6.039  18.066  0.00  0.00    +0.000 A 
ATOM      8  C   UNL     1       4.401   4.997  17.292  0.00  0.00    +0.000 A 
ATOM      9  C   UNL     1       3.657   3.822  17.163  0.00  0.00    +0.000 A 
ATOM     10  C   UNL     1       2.443   3.736  17.820  0.00  0.00    +0.000 A 
ATOM     11  N   UNL     1       1.923   4.731  18.568  0.00  0.00    +0.000 NA
BRANCH   8  12
ATOM     12  C   UNL     1       5.686   5.135  16.625  0.00  0.00    +0.000 A 
ATOM     13  N   UNL     1       6.655   4.157  16.647  0.00  0.00    +0.000 NA
ATOM     14  N   UNL     1       7.683   4.618  15.949  0.00  0.00    +0.000 NA
ATOM     15  N   UNL     1       7.297   5.833  15.546  0.00  0.00    +0.000 N 
ATOM     16  N   UNL     1       6.071   6.216  15.924  0.00  0.00    +0.000 NA
ATOM     17  H   UNL     1       7.902   6.428  14.986  0.00  0.00    +0.000 HD
ENDBRANCH   8  12
ENDBRANCH   4   6
BRANCH   1  18
ATOM     18  C   UNL     1       0.986  10.367  20.032  0.00  0.00    +0.000 C 
BRANCH  18  19
ATOM     19  C   UNL     1       0.626  10.967  18.670  0.00  0.00    +0.000 C 
BRANCH  19  26
ATOM     20 CL   UNL     1      -1.279  13.081  20.035  0.00  0.00    +0.000 Cl
ATOM     21  C   UNL     1      -1.778  11.832  18.954  0.00  0.00    +0.000 A 
ATOM     22  C   UNL     1      -3.144  11.725  18.674  0.00  0.00    +0.000 A 
ATOM     23  C   UNL     1      -3.612  10.736  17.808  0.00  0.00    +0.000 A 
ATOM     24  C   UNL     1      -2.711   9.858  17.214  0.00  0.00    +0.000 A 
ATOM     25  C   UNL     1      -1.347   9.962  17.491  0.00  0.00    +0.000 A 
ATOM     26  C   UNL     1      -0.859  10.942  18.374  0.00  0.00    +0.000 A 
ENDBRANCH  19  26
ENDBRANCH  18  19
ENDBRANCH   1  18
TORSDOF 5
ENDMDL
MODEL 8
REMARK VINA RESULT:      -8.0      5.985      8.614
REMARK  Name = 
REMARK  5 active torsions:
REMARK  status: ('A' for Active; 'I' for Inactive)
REMARK    1  A    between atoms: C_7  and  C_8
REMARK    2  A    between atoms: C_8  and  C_9
REMARK    3  A    between atoms: C_9  and  N_10
REMARK    4  A    between atoms: C_13  and  C_14
REMARK    5  A    between atoms: C_16  and  C_17
REMARK                            x       y       z     vdW  Elec       q    Type
REMARK                         _______ _______ _______ _____ _____    ______ ____
ROOT
ATOM      1  N   UNL     1       7.671   7.737  17.954  0.00  0.00    +0.000 N 
ATOM      2  C   UNL     1       8.207   6.802  18.799  0.00  0.00    +0.000 A 
ATOM      3  N   UNL     1       7.408   5.768  18.948  0.00  0.00    +0.000 NA
ATOM      4  C   UNL     1       6.315   6.032  18.149  0.00  0.00    +0.000 A 
ATOM      5  C   UNL     1       6.469   7.254  17.525  0.00  0.00    +0.000 A 
ENDROOT
BRANCH   4   6
ATOM      6  C   UNL     1       5.187   5.128  17.960  0.00  0.00    +0.000 A 
ATOM      7  C   UNL     1       4.392   4.768  19.039  0.00  0.00    +0.000 A 
ATOM      8  C   UNL     1       3.360   3.846  18.840  0.00  0.00    +0.000 A 
ATOM      9  C   UNL     1       3.160   3.325  17.560  0.00  0.00    +0.000 A 
ATOM     10  C   UNL     1       3.986   3.756  16.538  0.00  0.00    +0.000 A 
ATOM     11  N   UNL     1       4.990   4.641  16.707  0.00  0.00    +0.000 NA
BRANCH   8  12
ATOM     12  C   UNL     1       2.515   3.429  19.949  0.00  0.00    +0.000 A 
ATOM     13  N   UNL     1       3.011   3.102  21.191  0.00  0.00    +0.000 NA
ATOM     14  N   UNL     1       1.973   2.769  21.944  0.00  0.00    +0.000 NA
ATOM     15  N   UNL     1       0.916   2.906  21.137  0.00  0.00    +0.000 N 
ATOM     16  N   UNL     1       1.177   3.315  19.889  0.00  0.00    +0.000 NA
ATOM     17  H   UNL     1      -0.030   2.709  21.455  0.00  0.00    +0.000 HD
ENDBRANCH   8  12
ENDBRANCH   4   6
BRANCH   1  18
ATOM     18  C   UNL     1       8.327   8.968  17.543  0.00  0.00    +0.000 C 
BRANCH  18  19
ATOM     19  C   UNL     1       8.420  10.030  18.642  0.00  0.00    +0.000 C 
BRANCH  19  26
ATOM     20 CL   UNL     1       7.563  12.653  17.111  0.00  0.00    +0.000 Cl
ATOM     21  C   UNL     1       9.158  12.290  17.663  0.00  0.00    +0.000 A 
ATOM     22  C   UNL     1      10.165  13.220  17.391  0.00  0.00    +0.000 A 
ATOM     23  C   UNL     1      11.475  12.985  17.810  0.00  0.00    +0.000 A 
ATOM     24  C   UNL     1      11.776  11.822  18.511  0.00  0.00    +0.000 A 
ATOM     25  C   UNL     1      10.772  10.891  18.785  0.00  0.00    +0.000 A 
ATOM     26  C   UNL     1       9.449  11.103  18.356  0.00  0.00    +0.000 A 
ENDBRANCH  19  26
ENDBRANCH  18  19
ENDBRANCH   1  18
TORSDOF 5
ENDMDL
MODEL 9
REMARK VINA RESULT:      -7.9      1.711      2.432
REMARK  Name = 
REMARK  5 active torsions:
REMARK  status: ('A' for Active; 'I' for Inactive)
REMARK    1  A    between atoms: C_7  and  C_8
REMARK    2  A    between atoms: C_8  and  C_9
REMARK    3  A    between atoms: C_9  and  N_10
REMARK    4  A    between atoms: C_13  and  C_14
REMARK    5  A    between atoms: C_16  and  C_17
REMARK                            x       y       z     vdW  Elec       q    Type
REMARK                         _______ _______ _______ _____ _____    ______ ____
ROOT
ATOM      1  N   UNL     1       1.180   9.527  19.076  0.00  0.00    +0.000 N 
ATOM      2  C   UNL     1       1.754   9.595  17.835  0.00  0.00    +0.000 A 
ATOM      3  N   UNL     1       2.509   8.545  17.591  0.00  0.00    +0.000 NA
ATOM      4  C   UNL     1       2.403   7.750  18.713  0.00  0.00    +0.000 A 
ATOM      5  C   UNL     1       1.578   8.351  19.643  0.00  0.00    +0.000 A 
ENDROOT
BRANCH   4   6
ATOM      6  C   UNL     1       3.038   6.448  18.870  0.00  0.00    +0.000 A 
ATOM      7  C   UNL     1       4.285   6.205  18.313  0.00  0.00    +0.000 A 
ATOM      8  C   UNL     1       4.837   4.926  18.420  0.00  0.00    +0.000 A 
ATOM      9  C   UNL     1       4.116   3.937  19.093  0.00  0.00    +0.000 A 
ATOM     10  C   UNL     1       2.890   4.271  19.637  0.00  0.00    +0.000 A 
ATOM     11  N   UNL     1       2.336   5.497  19.542  0.00  0.00    +0.000 NA
BRANCH   8  12
ATOM     12  C   UNL     1       6.134   4.627  17.834  0.00  0.00    +0.000 A 
ATOM     13  N   UNL     1       7.291   4.531  18.576  0.00  0.00    +0.000 NA
ATOM     14  N   UNL     1       8.270   4.255  17.727  0.00  0.00    +0.000 NA
ATOM     15  N   UNL     1       7.673   4.200  16.532  0.00  0.00    +0.000 N 
ATOM     16  N   UNL     1       6.351   4.416  16.525  0.00  0.00    +0.000 NA
ATOM     17  H   UNL     1       8.194   4.006  15.682  0.00  0.00    +0.000 HD
ENDBRANCH   8  12
ENDBRANCH   4   6
BRANCH   1  18
ATOM     18  C   UNL     1       0.252  10.503  19.623  0.00  0.00    +0.000 C 
BRANCH  18  19
ATOM     19  C   UNL     1      -0.382  11.425  18.578  0.00  0.00    +0.000 C 
BRANCH  19  26
ATOM     20 CL   UNL     1      -2.353   9.963  16.594  0.00  0.00    +0.000 Cl
ATOM     21  C   UNL     1      -2.823  10.992  17.898  0.00  0.00    +0.000 A 
ATOM     22  C   UNL     1      -4.190  11.223  18.081  0.00  0.00    +0.000 A 
ATOM     23  C   UNL     1      -4.635  12.045  19.117  0.00  0.00    +0.000 A 
ATOM     24  C   UNL     1      -3.710  12.631  19.977  0.00  0.00    +0.000 A 
ATOM     25  C   UNL     1      -2.345  12.403  19.796  0.00  0.00    +0.000 A 
ATOM     26  C   UNL     1      -1.877  11.590  18.747  0.00  0.00    +0.000 A 
ENDBRANCH  19  26
ENDBRANCH  18  19
ENDBRANCH   1  18
TORSDOF 5
ENDMDL
