MODEL 1
REMARK VINA RESULT:      -7.7      0.000      0.000
REMARK  Name = 
REMARK  5 active torsions:
REMARK  status: ('A' for Active; 'I' for Inactive)
REMARK    1  A    between atoms: C_2  and  C_3
REMARK    2  A    between atoms: C_5  and  N_6
REMARK    3  A    between atoms: C_11  and  O_12
REMARK    4  A    between atoms: O_12  and  C_13
REMARK    5  A    between atoms: C_16  and  C_17
REMARK                            x       y       z     vdW  Elec       q    Type
REMARK                         _______ _______ _______ _____ _____    ______ ____
ROOT
ATOM      1  O   UNL     1       4.574   4.207  17.794  0.00  0.00    +0.000 OA
ENDROOT
BRANCH   1   7
ATOM      2  C   UNL     1       6.784   4.780  16.825  0.00  0.00    +0.000 A 
ATOM      3  C   UNL     1       7.525   4.978  15.647  0.00  0.00    +0.000 A 
ATOM      4  C   UNL     1       6.918   4.808  14.396  0.00  0.00    +0.000 A 
ATOM      5  C   UNL     1       5.575   4.431  14.307  0.00  0.00    +0.000 A 
ATOM      6  C   UNL     1       4.848   4.208  15.479  0.00  0.00    +0.000 A 
ATOM      7  C   UNL     1       5.447   4.360  16.741  0.00  0.00    +0.000 A 
BRANCH   4   8
ATOM      8  N   UNL     1       7.695   5.051  13.174  0.00  0.00    +0.000 N 
ATOM      9  O   UNL     1       8.626   5.862  13.240  0.00  0.00    +0.000 OA
ATOM     10  O   UNL     1       7.368   4.430  12.153  0.00  0.00    +0.000 OA
ENDBRANCH   4   8
BRANCH   2  12
ATOM     11  N   UNL     1       7.922   5.273  19.100  0.00  0.00    +0.000 NA
ATOM     12  C   UNL     1       7.448   5.044  18.065  0.00  0.00    +0.000 C 
ENDBRANCH   2  12
ENDBRANCH   1   7
BRANCH   1  13
ATOM     13  C   UNL     1       3.841   5.257  18.291  0.00  0.00    +0.000 A 
ATOM     14  C   UNL     1       3.235   5.015  19.526  0.00  0.00    +0.000 A 
ATOM     15  C   UNL     1       2.454   5.998  20.141  0.00  0.00    +0.000 A 
ATOM     16  C   UNL     1       2.258   7.242  19.525  0.00  0.00    +0.000 A 
ATOM     17  C   UNL     1       2.883   7.480  18.291  0.00  0.00    +0.000 A 
ATOM     18  C   UNL     1       3.700   6.510  17.696  0.00  0.00    +0.000 A 
BRANCH  16  19
ATOM     19  C   UNL     1       1.456   8.261  20.190  0.00  0.00    +0.000 A 
ATOM     20  N   UNL     1       1.045   9.437  19.757  0.00  0.00    +0.000 NA
ATOM     21  N   UNL     1       0.265   9.977  20.760  0.00  0.00    +0.000 NA
ATOM     22  C   UNL     1       0.267   9.096  21.731  0.00  0.00    +0.000 A 
ATOM     23  O   UNL     1       0.996   7.981  21.454  0.00  0.00    +0.000 OA
ENDBRANCH  16  19
ENDBRANCH   1  13
TORSDOF 5
ENDMDL
MODEL 2
REMARK VINA RESULT:      -7.6      0.766      1.007
REMARK  Name = 
REMARK  5 active torsions:
REMARK  status: ('A' for Active; 'I' for Inactive)
REMARK    1  A    between atoms: C_2  and  C_3
REMARK    2  A    between atoms: C_5  and  N_6
REMARK    3  A    between atoms: C_11  and  O_12
REMARK    4  A    between atoms: O_12  and  C_13
REMARK    5  A    between atoms: C_16  and  C_17
REMARK                            x       y       z     vdW  Elec       q    Type
REMARK                         _______ _______ _______ _____ _____    ______ ____
ROOT
ATOM      1  O   UNL     1       4.593   4.133  17.746  0.00  0.00    +0.000 OA
ENDROOT
BRANCH   1   7
ATOM      2  C   UNL     1       6.799   4.740  16.790  0.00  0.00    +0.000 A 
ATOM      3  C   UNL     1       7.541   4.960  15.616  0.00  0.00    +0.000 A 
ATOM      4  C   UNL     1       6.938   4.800  14.361  0.00  0.00    +0.000 A 
ATOM      5  C   UNL     1       5.599   4.411  14.265  0.00  0.00    +0.000 A 
ATOM      6  C   UNL     1       4.872   4.167  15.433  0.00  0.00    +0.000 A 
ATOM      7  C   UNL     1       5.466   4.308  16.697  0.00  0.00    +0.000 A 
BRANCH   4   8
ATOM      8  N   UNL     1       7.715   5.066  13.145  0.00  0.00    +0.000 N 
ATOM      9  O   UNL     1       7.397   4.455  12.118  0.00  0.00    +0.000 OA
ATOM     10  O   UNL     1       8.643   5.884  13.223  0.00  0.00    +0.000 OA
ENDBRANCH   4   8
BRANCH   2  12
ATOM     11  N   UNL     1       7.979   5.132  19.063  0.00  0.00    +0.000 NA
ATOM     12  C   UNL     1       7.458   4.995  18.035  0.00  0.00    +0.000 C 
ENDBRANCH   2  12
ENDBRANCH   1   7
BRANCH   1  13
ATOM     13  C   UNL     1       3.874   5.177  18.278  0.00  0.00    +0.000 A 
ATOM     14  C   UNL     1       3.314   4.922  19.532  0.00  0.00    +0.000 A 
ATOM     15  C   UNL     1       2.552   5.897  20.182  0.00  0.00    +0.000 A 
ATOM     16  C   UNL     1       2.329   7.145  19.584  0.00  0.00    +0.000 A 
ATOM     17  C   UNL     1       2.908   7.395  18.330  0.00  0.00    +0.000 A 
ATOM     18  C   UNL     1       3.708   6.433  17.698  0.00  0.00    +0.000 A 
BRANCH  16  19
ATOM     19  C   UNL     1       1.548   8.156  20.285  0.00  0.00    +0.000 A 
ATOM     20  N   UNL     1       1.157   8.206  21.544  0.00  0.00    +0.000 NA
ATOM     21  N   UNL     1       0.495   9.407  21.704  0.00  0.00    +0.000 NA
ATOM     22  C   UNL     1       0.524   9.993  20.531  0.00  0.00    +0.000 A 
ATOM     23  O   UNL     1       1.170   9.269  19.576  0.00  0.00    +0.000 OA
ENDBRANCH  16  19
ENDBRANCH   1  13
TORSDOF 5
ENDMDL
MODEL 3
REMARK VINA RESULT:      -7.5      2.630      3.455
REMARK  Name = 
REMARK  5 active torsions:
REMARK  status: ('A' for Active; 'I' for Inactive)
REMARK    1  A    between atoms: C_2  and  C_3
REMARK    2  A    between atoms: C_5  and  N_6
REMARK    3  A    between atoms: C_11  and  O_12
REMARK    4  A    between atoms: O_12  and  C_13
REMARK    5  A    between atoms: C_16  and  C_17
REMARK                            x       y       z     vdW  Elec       q    Type
REMARK                         _______ _______ _______ _____ _____    ______ ____
ROOT
ATOM      1  O   UNL     1       3.356   6.048  19.104  0.00  0.00    +0.000 OA
ENDROOT
BRANCH   1   7
ATOM      2  C   UNL     1       3.868   4.523  17.216  0.00  0.00    +0.000 A 
ATOM      3  C   UNL     1       4.744   4.234  16.155  0.00  0.00    +0.000 A 
ATOM      4  C   UNL     1       5.843   5.064  15.903  0.00  0.00    +0.000 A 
ATOM      5  C   UNL     1       6.074   6.192  16.696  0.00  0.00    +0.000 A 
ATOM      6  C   UNL     1       5.187   6.493  17.733  0.00  0.00    +0.000 A 
ATOM      7  C   UNL     1       4.072   5.678  17.988  0.00  0.00    +0.000 A 
BRANCH   4   8
ATOM      8  N   UNL     1       6.769   4.730  14.813  0.00  0.00    +0.000 N 
ATOM      9  O   UNL     1       6.468   3.783  14.077  0.00  0.00    +0.000 OA
ATOM     10  O   UNL     1       7.794   5.416  14.700  0.00  0.00    +0.000 OA
ENDBRANCH   4   8
BRANCH   2  12
ATOM     11  N   UNL     1       1.933   2.841  17.591  0.00  0.00    +0.000 NA
ATOM     12  C   UNL     1       2.810   3.590  17.462  0.00  0.00    +0.000 C 
ENDBRANCH   2  12
ENDBRANCH   1   7
BRANCH   1  13
ATOM     13  C   UNL     1       2.568   7.174  19.124  0.00  0.00    +0.000 A 
ATOM     14  C   UNL     1       2.432   7.815  17.890  0.00  0.00    +0.000 A 
ATOM     15  C   UNL     1       1.663   8.977  17.772  0.00  0.00    +0.000 A 
ATOM     16  C   UNL     1       1.022   9.524  18.892  0.00  0.00    +0.000 A 
ATOM     17  C   UNL     1       1.154   8.864  20.124  0.00  0.00    +0.000 A 
ATOM     18  C   UNL     1       1.889   7.677  20.233  0.00  0.00    +0.000 A 
BRANCH  16  19
ATOM     19  C   UNL     1       0.209  10.725  18.746  0.00  0.00    +0.000 A 
ATOM     20  N   UNL     1       0.495  11.984  19.020  0.00  0.00    +0.000 NA
ATOM     21  N   UNL     1      -0.603  12.729  18.639  0.00  0.00    +0.000 NA
ATOM     22  C   UNL     1      -1.477  11.870  18.172  0.00  0.00    +0.000 A 
ATOM     23  O   UNL     1      -1.044  10.580  18.204  0.00  0.00    +0.000 OA
ENDBRANCH  16  19
ENDBRANCH   1  13
TORSDOF 5
ENDMDL
MODEL 4
REMARK VINA RESULT:      -7.5      0.372      1.249
REMARK  Name = 
REMARK  5 active torsions:
REMARK  status: ('A' for Active; 'I' for Inactive)
REMARK    1  A    between atoms: C_2  and  C_3
REMARK    2  A    between atoms: C_5  and  N_6
REMARK    3  A    between atoms: C_11  and  O_12
REMARK    4  A    between atoms: O_12  and  C_13
REMARK    5  A    between atoms: C_16  and  C_17
REMARK                            x       y       z     vdW  Elec       q    Type
REMARK                         _______ _______ _______ _____ _____    ______ ____
ROOT
ATOM      1  O   UNL     1       4.591   3.793  17.632  0.00  0.00    +0.000 OA
ENDROOT
BRANCH   1   7
ATOM      2  C   UNL     1       6.762   4.613  16.759  0.00  0.00    +0.000 A 
ATOM      3  C   UNL     1       7.512   4.936  15.615  0.00  0.00    +0.000 A 
ATOM      4  C   UNL     1       6.956   4.775  14.339  0.00  0.00    +0.000 A 
ATOM      5  C   UNL     1       5.656   4.282  14.192  0.00  0.00    +0.000 A 
ATOM      6  C   UNL     1       4.923   3.936  15.330  0.00  0.00    +0.000 A 
ATOM      7  C   UNL     1       5.472   4.077  16.614  0.00  0.00    +0.000 A 
BRANCH   4   8
ATOM      8  N   UNL     1       7.739   5.149  13.154  0.00  0.00    +0.000 N 
ATOM      9  O   UNL     1       7.422   4.636  12.075  0.00  0.00    +0.000 OA
ATOM     10  O   UNL     1       8.669   5.951  13.311  0.00  0.00    +0.000 OA
ENDBRANCH   4   8
BRANCH   2  12
ATOM     11  N   UNL     1       7.894   5.139  19.030  0.00  0.00    +0.000 NA
ATOM     12  C   UNL     1       7.367   4.873  18.030  0.00  0.00    +0.000 C 
ENDBRANCH   2  12
ENDBRANCH   1   7
BRANCH   1  13
ATOM     13  C   UNL     1       3.871   4.775  18.269  0.00  0.00    +0.000 A 
ATOM     14  C   UNL     1       3.777   5.980  17.566  0.00  0.00    +0.000 A 
ATOM     15  C   UNL     1       3.079   7.065  18.105  0.00  0.00    +0.000 A 
ATOM     16  C   UNL     1       2.467   6.967  19.362  0.00  0.00    +0.000 A 
ATOM     17  C   UNL     1       2.556   5.748  20.052  0.00  0.00    +0.000 A 
ATOM     18  C   UNL     1       3.219   4.647  19.494  0.00  0.00    +0.000 A 
BRANCH  16  19
ATOM     19  C   UNL     1       1.728   8.102  19.899  0.00  0.00    +0.000 A 
ATOM     20  N   UNL     1       1.283   9.188  19.296  0.00  0.00    +0.000 NA
ATOM     21  N   UNL     1       0.595   9.914  20.249  0.00  0.00    +0.000 NA
ATOM     22  C   UNL     1       0.681   9.222  21.359  0.00  0.00    +0.000 A 
ATOM     23  O   UNL     1       1.381   8.062  21.227  0.00  0.00    +0.000 OA
ENDBRANCH  16  19
ENDBRANCH   1  13
TORSDOF 5
ENDMDL
MODEL 5
REMARK VINA RESULT:      -7.5      2.630      3.437
REMARK  Name = 
REMARK  5 active torsions:
REMARK  status: ('A' for Active; 'I' for Inactive)
REMARK    1  A    between atoms: C_2  and  C_3
REMARK    2  A    between atoms: C_5  and  N_6
REMARK    3  A    between atoms: C_11  and  O_12
REMARK    4  A    between atoms: O_12  and  C_13
REMARK    5  A    between atoms: C_16  and  C_17
REMARK                            x       y       z     vdW  Elec       q    Type
REMARK                         _______ _______ _______ _____ _____    ______ ____
ROOT
ATOM      1  O   UNL     1       3.252   6.358  19.077  0.00  0.00    +0.000 OA
ENDROOT
BRANCH   1   7
ATOM      2  C   UNL     1       3.724   4.739  17.258  0.00  0.00    +0.000 A 
ATOM      3  C   UNL     1       4.608   4.363  16.232  0.00  0.00    +0.000 A 
ATOM      4  C   UNL     1       5.758   5.121  15.980  0.00  0.00    +0.000 A 
ATOM      5  C   UNL     1       6.032   6.263  16.738  0.00  0.00    +0.000 A 
ATOM      6  C   UNL     1       5.138   6.650  17.740  0.00  0.00    +0.000 A 
ATOM      7  C   UNL     1       3.973   5.909  17.994  0.00  0.00    +0.000 A 
BRANCH   4   8
ATOM      8  N   UNL     1       6.690   4.698  14.927  0.00  0.00    +0.000 N 
ATOM      9  O   UNL     1       6.405   3.678  14.288  0.00  0.00    +0.000 OA
ATOM     10  O   UNL     1       7.703   5.386  14.746  0.00  0.00    +0.000 OA
ENDBRANCH   4   8
BRANCH   2  12
ATOM     11  N   UNL     1       1.663   3.233  17.704  0.00  0.00    +0.000 NA
ATOM     12  C   UNL     1       2.610   3.875  17.509  0.00  0.00    +0.000 C 
ENDBRANCH   2  12
ENDBRANCH   1   7
BRANCH   1  13
ATOM     13  C   UNL     1       2.436   7.461  19.002  0.00  0.00    +0.000 A 
ATOM     14  C   UNL     1       1.879   7.860  20.219  0.00  0.00    +0.000 A 
ATOM     15  C   UNL     1       1.024   8.964  20.282  0.00  0.00    +0.000 A 
ATOM     16  C   UNL     1       0.704   9.687  19.125  0.00  0.00    +0.000 A 
ATOM     17  C   UNL     1       1.281   9.286  17.910  0.00  0.00    +0.000 A 
ATOM     18  C   UNL     1       2.172   8.206  17.853  0.00  0.00    +0.000 A 
BRANCH  16  19
ATOM     19  C   UNL     1      -0.174  10.847  19.214  0.00  0.00    +0.000 A 
ATOM     20  N   UNL     1       0.019  12.017  19.792  0.00  0.00    +0.000 NA
ATOM     21  N   UNL     1      -1.104  12.776  19.529  0.00  0.00    +0.000 NA
ATOM     22  C   UNL     1      -1.899  12.010  18.820  0.00  0.00    +0.000 A 
ATOM     23  O   UNL     1      -1.388  10.773  18.576  0.00  0.00    +0.000 OA
ENDBRANCH  16  19
ENDBRANCH   1  13
TORSDOF 5
ENDMDL
MODEL 6
REMARK VINA RESULT:      -7.5      2.566      3.270
REMARK  Name = 
REMARK  5 active torsions:
REMARK  status: ('A' for Active; 'I' for Inactive)
REMARK    1  A    between atoms: C_2  and  C_3
REMARK    2  A    between atoms: C_5  and  N_6
REMARK    3  A    between atoms: C_11  and  O_12
REMARK    4  A    between atoms: O_12  and  C_13
REMARK    5  A    between atoms: C_16  and  C_17
REMARK                            x       y       z     vdW  Elec       q    Type
REMARK                         _______ _______ _______ _____ _____    ______ ____
ROOT
ATOM      1  O   UNL     1       3.296   6.321  19.023  0.00  0.00    +0.000 OA
ENDROOT
BRANCH   1   7
ATOM      2  C   UNL     1       3.796   4.708  17.207  0.00  0.00    +0.000 A 
ATOM      3  C   UNL     1       4.682   4.350  16.177  0.00  0.00    +0.000 A 
ATOM      4  C   UNL     1       5.814   5.134  15.916  0.00  0.00    +0.000 A 
ATOM      5  C   UNL     1       6.066   6.284  16.670  0.00  0.00    +0.000 A 
ATOM      6  C   UNL     1       5.168   6.653  17.676  0.00  0.00    +0.000 A 
ATOM      7  C   UNL     1       4.022   5.886  17.938  0.00  0.00    +0.000 A 
BRANCH   4   8
ATOM      8  N   UNL     1       6.749   4.729  14.860  0.00  0.00    +0.000 N 
ATOM      9  O   UNL     1       7.787   5.390  14.730  0.00  0.00    +0.000 OA
ATOM     10  O   UNL     1       6.440   3.753  14.163  0.00  0.00    +0.000 OA
ENDBRANCH   4   8
BRANCH   2  12
ATOM     11  N   UNL     1       1.779   3.157  17.699  0.00  0.00    +0.000 NA
ATOM     12  C   UNL     1       2.703   3.820  17.465  0.00  0.00    +0.000 C 
ENDBRANCH   2  12
ENDBRANCH   1   7
BRANCH   1  13
ATOM     13  C   UNL     1       2.492   7.434  18.963  0.00  0.00    +0.000 A 
ATOM     14  C   UNL     1       1.910   7.802  20.179  0.00  0.00    +0.000 A 
ATOM     15  C   UNL     1       1.064   8.911  20.256  0.00  0.00    +0.000 A 
ATOM     16  C   UNL     1       0.777   9.671  19.113  0.00  0.00    +0.000 A 
ATOM     17  C   UNL     1       1.377   9.301  17.900  0.00  0.00    +0.000 A 
ATOM     18  C   UNL     1       2.259   8.214  17.832  0.00  0.00    +0.000 A 
BRANCH  16  19
ATOM     19  C   UNL     1      -0.093  10.835  19.217  0.00  0.00    +0.000 A 
ATOM     20  N   UNL     1      -1.084  11.229  18.440  0.00  0.00    +0.000 NA
ATOM     21  N   UNL     1      -1.615  12.363  19.022  0.00  0.00    +0.000 NA
ATOM     22  C   UNL     1      -0.905  12.580  20.102  0.00  0.00    +0.000 A 
ATOM     23  O   UNL     1       0.080  11.661  20.301  0.00  0.00    +0.000 OA
ENDBRANCH  16  19
ENDBRANCH   1  13
TORSDOF 5
ENDMDL
MODEL 7
REMARK VINA RESULT:      -7.4      0.917      1.374
REMARK  Name = 
REMARK  5 active torsions:
REMARK  status: ('A' for Active; 'I' for Inactive)
REMARK    1  A    between atoms: C_2  and  C_3
REMARK    2  A    between atoms: C_5  and  N_6
REMARK    3  A    between atoms: C_11  and  O_12
REMARK    4  A    between atoms: O_12  and  C_13
REMARK    5  A    between atoms: C_16  and  C_17
REMARK                            x       y       z     vdW  Elec       q    Type
REMARK                         _______ _______ _______ _____ _____    ______ ____
ROOT
ATOM      1  O   UNL     1       4.624   4.124  17.970  0.00  0.00    +0.000 OA
ENDROOT
BRANCH   1   7
ATOM      2  C   UNL     1       6.800   4.751  16.959  0.00  0.00    +0.000 A 
ATOM      3  C   UNL     1       7.513   4.969  15.768  0.00  0.00    +0.000 A 
ATOM      4  C   UNL     1       6.886   4.790  14.528  0.00  0.00    +0.000 A 
ATOM      5  C   UNL     1       5.550   4.382  14.465  0.00  0.00    +0.000 A 
ATOM      6  C   UNL     1       4.851   4.139  15.651  0.00  0.00    +0.000 A 
ATOM      7  C   UNL     1       5.472   4.300  16.900  0.00  0.00    +0.000 A 
BRANCH   4   8
ATOM      8  N   UNL     1       7.633   5.054  13.293  0.00  0.00    +0.000 N 
ATOM      9  O   UNL     1       8.562   5.868  13.349  0.00  0.00    +0.000 OA
ATOM     10  O   UNL     1       7.284   4.448  12.270  0.00  0.00    +0.000 OA
ENDBRANCH   4   8
BRANCH   2  12
ATOM     11  N   UNL     1       7.977   5.287  19.205  0.00  0.00    +0.000 NA
ATOM     12  C   UNL     1       7.483   5.026  18.188  0.00  0.00    +0.000 C 
ENDBRANCH   2  12
ENDBRANCH   1   7
BRANCH   1  13
ATOM     13  C   UNL     1       3.841   5.144  18.455  0.00  0.00    +0.000 A 
ATOM     14  C   UNL     1       3.837   6.301  17.672  0.00  0.00    +0.000 A 
ATOM     15  C   UNL     1       3.087   7.417  18.055  0.00  0.00    +0.000 A 
ATOM     16  C   UNL     1       2.331   7.398  19.235  0.00  0.00    +0.000 A 
ATOM     17  C   UNL     1       2.331   6.225  20.006  0.00  0.00    +0.000 A 
ATOM     18  C   UNL     1       3.048   5.092  19.600  0.00  0.00    +0.000 A 
BRANCH  16  19
ATOM     19  C   UNL     1       1.540   8.564  19.608  0.00  0.00    +0.000 A 
ATOM     20  N   UNL     1       0.991   8.884  20.764  0.00  0.00    +0.000 NA
ATOM     21  N   UNL     1       0.405  10.123  20.592  0.00  0.00    +0.000 NA
ATOM     22  C   UNL     1       0.633  10.459  19.345  0.00  0.00    +0.000 A 
ATOM     23  O   UNL     1       1.344   9.529  18.651  0.00  0.00    +0.000 OA
ENDBRANCH  16  19
ENDBRANCH   1  13
TORSDOF 5
ENDMDL
MODEL 8
REMARK VINA RESULT:      -7.4      2.705      3.509
REMARK  Name = 
REMARK  5 active torsions:
REMARK  status: ('A' for Active; 'I' for Inactive)
REMARK    1  A    between atoms: C_2  and  C_3
REMARK    2  A    between atoms: C_5  and  N_6
REMARK    3  A    between atoms: C_11  and  O_12
REMARK    4  A    between atoms: O_12  and  C_13
REMARK    5  A    between atoms: C_16  and  C_17
REMARK                            x       y       z     vdW  Elec       q    Type
REMARK                         _______ _______ _______ _____ _____    ______ ____
ROOT
ATOM      1  O   UNL     1       3.240   6.125  19.162  0.00  0.00    +0.000 OA
ENDROOT
BRANCH   1   7
ATOM      2  C   UNL     1       3.746   4.595  17.277  0.00  0.00    +0.000 A 
ATOM      3  C   UNL     1       4.634   4.284  16.234  0.00  0.00    +0.000 A 
ATOM      4  C   UNL     1       5.764   5.081  16.010  0.00  0.00    +0.000 A 
ATOM      5  C   UNL     1       6.013   6.197  16.814  0.00  0.00    +0.000 A 
ATOM      6  C   UNL     1       5.113   6.520  17.833  0.00  0.00    +0.000 A 
ATOM      7  C   UNL     1       3.968   5.739  18.060  0.00  0.00    +0.000 A 
BRANCH   4   8
ATOM      8  N   UNL     1       6.702   4.724  14.938  0.00  0.00    +0.000 N 
ATOM      9  O   UNL     1       7.748   5.377  14.852  0.00  0.00    +0.000 OA
ATOM     10  O   UNL     1       6.386   3.793  14.184  0.00  0.00    +0.000 OA
ENDBRANCH   4   8
BRANCH   2  12
ATOM     11  N   UNL     1       1.812   2.927  17.717  0.00  0.00    +0.000 NA
ATOM     12  C   UNL     1       2.654   3.694  17.495  0.00  0.00    +0.000 C 
ENDBRANCH   2  12
ENDBRANCH   1   7
BRANCH   1  13
ATOM     13  C   UNL     1       2.470   7.263  19.164  0.00  0.00    +0.000 A 
ATOM     14  C   UNL     1       2.330   7.878  17.917  0.00  0.00    +0.000 A 
ATOM     15  C   UNL     1       1.578   9.048  17.781  0.00  0.00    +0.000 A 
ATOM     16  C   UNL     1       0.955   9.630  18.894  0.00  0.00    +0.000 A 
ATOM     17  C   UNL     1       1.090   8.996  20.139  0.00  0.00    +0.000 A 
ATOM     18  C   UNL     1       1.809   7.801  20.268  0.00  0.00    +0.000 A 
BRANCH  16  19
ATOM     19  C   UNL     1       0.159  10.839  18.728  0.00  0.00    +0.000 A 
ATOM     20  N   UNL     1      -1.149  10.995  18.668  0.00  0.00    +0.000 NA
ATOM     21  N   UNL     1      -1.382  12.352  18.567  0.00  0.00    +0.000 NA
ATOM     22  C   UNL     1      -0.199  12.920  18.563  0.00  0.00    +0.000 A 
ATOM     23  O   UNL     1       0.830  12.036  18.661  0.00  0.00    +0.000 OA
ENDBRANCH  16  19
ENDBRANCH   1  13
TORSDOF 5
ENDMDL
MODEL 9
REMARK VINA RESULT:      -7.3      1.977      7.929
REMARK  Name = 
REMARK  5 active torsions:
REMARK  status: ('A' for Active; 'I' for Inactive)
REMARK    1  A    between atoms: C_2  and  C_3
REMARK    2  A    between atoms: C_5  and  N_6
REMARK    3  A    between atoms: C_11  and  O_12
REMARK    4  A    between atoms: O_12  and  C_13
REMARK    5  A    between atoms: C_16  and  C_17
REMARK                            x       y       z     vdW  Elec       q    Type
REMARK                         _______ _______ _______ _____ _____    ______ ____
ROOT
ATOM      1  O   UNL     1       4.174   4.116  19.308  0.00  0.00    +0.000 OA
ENDROOT
BRANCH   1   7
ATOM      2  C   UNL     1       2.314   4.914  20.741  0.00  0.00    +0.000 A 
ATOM      3  C   UNL     1       1.466   5.989  21.062  0.00  0.00    +0.000 A 
ATOM      4  C   UNL     1       1.597   7.213  20.393  0.00  0.00    +0.000 A 
ATOM      5  C   UNL     1       2.577   7.380  19.410  0.00  0.00    +0.000 A 
ATOM      6  C   UNL     1       3.436   6.318  19.113  0.00  0.00    +0.000 A 
ATOM      7  C   UNL     1       3.327   5.090  19.785  0.00  0.00    +0.000 A 
BRANCH   4   8
ATOM      8  N   UNL     1       0.683   8.316  20.714  0.00  0.00    +0.000 N 
ATOM      9  O   UNL     1      -0.114   8.146  21.644  0.00  0.00    +0.000 OA
ATOM     10  O   UNL     1       0.765   9.347  20.032  0.00  0.00    +0.000 OA
ENDBRANCH   4   8
BRANCH   2  12
ATOM     11  N   UNL     1       1.941   2.675  21.992  0.00  0.00    +0.000 NA
ATOM     12  C   UNL     1       2.073   3.672  21.411  0.00  0.00    +0.000 C 
ENDBRANCH   2  12
ENDBRANCH   1   7
BRANCH   1  13
ATOM     13  C   UNL     1       4.916   4.292  18.165  0.00  0.00    +0.000 A 
ATOM     14  C   UNL     1       4.203   4.132  16.974  0.00  0.00    +0.000 A 
ATOM     15  C   UNL     1       4.841   4.276  15.738  0.00  0.00    +0.000 A 
ATOM     16  C   UNL     1       6.208   4.577  15.672  0.00  0.00    +0.000 A 
ATOM     17  C   UNL     1       6.911   4.750  16.874  0.00  0.00    +0.000 A 
ATOM     18  C   UNL     1       6.263   4.648  18.112  0.00  0.00    +0.000 A 
BRANCH  16  19
ATOM     19  C   UNL     1       6.851   4.742  14.374  0.00  0.00    +0.000 A 
ATOM     20  N   UNL     1       7.856   5.519  14.016  0.00  0.00    +0.000 NA
ATOM     21  N   UNL     1       8.110   5.246  12.686  0.00  0.00    +0.000 NA
ATOM     22  C   UNL     1       7.238   4.332  12.333  0.00  0.00    +0.000 A 
ATOM     23  O   UNL     1       6.403   3.958  13.340  0.00  0.00    +0.000 OA
ENDBRANCH  16  19
ENDBRANCH   1  13
TORSDOF 5
ENDMDL
