MODEL 1
REMARK VINA RESULT:      -7.0      0.000      0.000
REMARK  Name = 
REMARK  11 active torsions:
REMARK  status: ('A' for Active; 'I' for Inactive)
REMARK    1  A    between atoms: C_1  and  C_2
REMARK    2  A    between atoms: C_2  and  C_3
REMARK    3  A    between atoms: C_2  and  O_4
REMARK    4  A    between atoms: C_2  and  C_5
REMARK    5  A    between atoms: C_5  and  C_6
REMARK    6  A    between atoms: C_6  and  O_7
REMARK    7  A    between atoms: O_7  and  C_8
REMARK    8  A    between atoms: C_10  and  C_11
REMARK    9  A    between atoms: C_17  and  N_18
REMARK   10  A    between atoms: N_21  and  C_22
REMARK   11  A    between atoms: C_25  and  C_26
REMARK                            x       y       z     vdW  Elec       q    Type
REMARK                         _______ _______ _______ _____ _____    ______ ____
ROOT
ATOM      1  C   UNL     1       1.644   6.576  20.747  0.00  0.00    +0.000 A 
ATOM      2  C   UNL     1       0.793   7.544  21.224  0.00  0.00    +0.000 A 
ATOM      3  C   UNL     1       1.209   8.764  20.642  0.00  0.00    +0.000 A 
ATOM      4  N   UNL     1       2.261   8.546  19.820  0.00  0.00    +0.000 NA
ATOM      5  N   UNL     1       2.454   7.207  19.819  0.00  0.00    +0.000 N 
ENDROOT
BRANCH   3   6
ATOM      6  C   UNL     1       0.577  10.103  20.837  0.00  0.00    +0.000 C 
ATOM      7  O   UNL     1       0.937  10.836  21.758  0.00  0.00    +0.000 OA
ATOM      8  N   UNL     1      -0.438  10.489  19.939  0.00  0.00    +0.000 N 
ATOM      9  C   UNL     1      -0.866   9.616  18.854  0.00  0.00    +0.000 C 
ATOM     10  C   UNL     1      -1.447  10.400  17.685  0.00  0.00    +0.000 C 
ATOM     11  C   UNL     1      -2.571  11.326  18.141  0.00  0.00    +0.000 C 
ATOM     12  C   UNL     1      -2.093  12.241  19.279  0.00  0.00    +0.000 C 
ATOM     13  C   UNL     1      -1.470  11.407  20.421  0.00  0.00    +0.000 C 
BRANCH  12  14
ATOM     14  N   UNL     1      -3.199  13.089  19.735  0.00  0.00    +0.000 NA
ATOM     15  H   UNL     1      -3.308  13.896  19.120  0.00  0.00    +0.000 HD
ATOM     16  H   UNL     1      -2.980  13.467  20.657  0.00  0.00    +0.000 HD
ENDBRANCH  12  14
ENDBRANCH   3   6
BRANCH   5  17
ATOM     17  C   UNL     1       3.391   6.594  18.939  0.00  0.00    +0.000 A 
ATOM     18  C   UNL     1       3.512   7.039  17.617  0.00  0.00    +0.000 A 
ATOM     19  C   UNL     1       4.371   6.391  16.724  0.00  0.00    +0.000 A 
ATOM     20  C   UNL     1       5.114   5.293  17.149  0.00  0.00    +0.000 A 
ATOM     21  C   UNL     1       5.025   4.868  18.484  0.00  0.00    +0.000 A 
ATOM     22  C   UNL     1       4.175   5.527  19.383  0.00  0.00    +0.000 A 
BRANCH  20  23
ATOM     23  C   UNL     1       5.962   4.588  16.215  0.00  0.00    +0.000 C 
ATOM     24  N   UNL     1       6.633   4.016  15.479  0.00  0.00    +0.000 NA
ENDBRANCH  20  23
ENDBRANCH   5  17
BRANCH   1  25
ATOM     25  O   UNL     1       1.769   5.271  20.993  0.00  0.00    +0.000 OA
BRANCH  25  26
ATOM     26  C   UNL     1       0.821   4.432  20.355  0.00  0.00    +0.000 C 
BRANCH  26  27
ATOM     27  C   UNL     1       1.464   3.072  20.087  0.00  0.00    +0.000 C 
BRANCH  27  29
ATOM     28  C   UNL     1       2.734   1.939  18.236  0.00  0.00    +0.000 C 
ATOM     29  C   UNL     1       1.467   2.718  18.592  0.00  0.00    +0.000 C 
ATOM     30  C   UNL     1       1.353   3.962  17.706  0.00  0.00    +0.000 C 
BRANCH  29  31
ATOM     31  O   UNL     1       0.338   1.880  18.335  0.00  0.00    +0.000 OA
ATOM     32  H   UNL     1       0.511   1.379  17.519  0.00  0.00    +0.000 HD
ENDBRANCH  29  31
ENDBRANCH  27  29
ENDBRANCH  26  27
ENDBRANCH  25  26
ENDBRANCH   1  25
TORSDOF 9
ENDMDL
MODEL 2
REMARK VINA RESULT:      -6.8      2.462      8.294
REMARK  Name = 
REMARK  11 active torsions:
REMARK  status: ('A' for Active; 'I' for Inactive)
REMARK    1  A    between atoms: C_1  and  C_2
REMARK    2  A    between atoms: C_2  and  C_3
REMARK    3  A    between atoms: C_2  and  O_4
REMARK    4  A    between atoms: C_2  and  C_5
REMARK    5  A    between atoms: C_5  and  C_6
REMARK    6  A    between atoms: C_6  and  O_7
REMARK    7  A    between atoms: O_7  and  C_8
REMARK    8  A    between atoms: C_10  and  C_11
REMARK    9  A    between atoms: C_17  and  N_18
REMARK   10  A    between atoms: N_21  and  C_22
REMARK   11  A    between atoms: C_25  and  C_26
REMARK                            x       y       z     vdW  Elec       q    Type
REMARK                         _______ _______ _______ _____ _____    ______ ____
ROOT
ATOM      1  C   UNL     1       1.531   8.708  18.369  0.00  0.00    +0.000 A 
ATOM      2  C   UNL     1       2.275   7.649  17.907  0.00  0.00    +0.000 A 
ATOM      3  C   UNL     1       2.789   6.992  19.049  0.00  0.00    +0.000 A 
ATOM      4  N   UNL     1       2.356   7.614  20.170  0.00  0.00    +0.000 NA
ATOM      5  N   UNL     1       1.520   8.591  19.748  0.00  0.00    +0.000 N 
ENDROOT
BRANCH   3   6
ATOM      6  C   UNL     1       3.640   5.766  19.062  0.00  0.00    +0.000 C 
ATOM      7  O   UNL     1       4.868   5.857  19.067  0.00  0.00    +0.000 OA
ATOM      8  N   UNL     1       2.992   4.514  19.063  0.00  0.00    +0.000 N 
ATOM      9  C   UNL     1       1.540   4.410  19.050  0.00  0.00    +0.000 C 
ATOM     10  C   UNL     1       1.054   3.110  19.677  0.00  0.00    +0.000 C 
ATOM     11  C   UNL     1       1.713   1.899  19.024  0.00  0.00    +0.000 C 
ATOM     12  C   UNL     1       3.243   2.028  19.057  0.00  0.00    +0.000 C 
ATOM     13  C   UNL     1       3.687   3.380  18.454  0.00  0.00    +0.000 C 
BRANCH  12  14
ATOM     14  N   UNL     1       3.856   0.879  18.383  0.00  0.00    +0.000 NA
ATOM     15  H   UNL     1       3.303   0.604  17.570  0.00  0.00    +0.000 HD
ATOM     16  H   UNL     1       3.850   0.073  19.010  0.00  0.00    +0.000 HD
ENDBRANCH  12  14
ENDBRANCH   3   6
BRANCH   5  17
ATOM     17  C   UNL     1       0.754   9.359  20.670  0.00  0.00    +0.000 A 
ATOM     18  C   UNL     1      -0.093   8.723  21.586  0.00  0.00    +0.000 A 
ATOM     19  C   UNL     1      -0.909   9.472  22.439  0.00  0.00    +0.000 A 
ATOM     20  C   UNL     1      -0.882  10.863  22.381  0.00  0.00    +0.000 A 
ATOM     21  C   UNL     1      -0.006  11.505  21.492  0.00  0.00    +0.000 A 
ATOM     22  C   UNL     1       0.822  10.754  20.647  0.00  0.00    +0.000 A 
BRANCH  20  23
ATOM     23  C   UNL     1      -1.763  11.639  23.224  0.00  0.00    +0.000 C 
ATOM     24  N   UNL     1      -2.456  12.267  23.891  0.00  0.00    +0.000 NA
ENDBRANCH  20  23
ENDBRANCH   5  17
BRANCH   1  25
ATOM     25  O   UNL     1       0.872   9.694  17.759  0.00  0.00    +0.000 OA
BRANCH  25  26
ATOM     26  C   UNL     1      -0.502   9.452  17.509  0.00  0.00    +0.000 C 
BRANCH  26  27
ATOM     27  C   UNL     1      -1.295  10.716  17.838  0.00  0.00    +0.000 C 
BRANCH  27  29
ATOM     28  C   UNL     1      -2.808  10.866  15.834  0.00  0.00    +0.000 C 
ATOM     29  C   UNL     1      -2.748  10.632  17.344  0.00  0.00    +0.000 C 
ATOM     30  C   UNL     1      -3.657  11.633  18.063  0.00  0.00    +0.000 C 
BRANCH  29  31
ATOM     31  O   UNL     1      -3.231   9.314  17.614  0.00  0.00    +0.000 OA
ATOM     32  H   UNL     1      -4.069   9.393  18.101  0.00  0.00    +0.000 HD
ENDBRANCH  29  31
ENDBRANCH  27  29
ENDBRANCH  26  27
ENDBRANCH  25  26
ENDBRANCH   1  25
TORSDOF 9
ENDMDL
MODEL 3
REMARK VINA RESULT:      -6.8      3.710      6.073
REMARK  Name = 
REMARK  11 active torsions:
REMARK  status: ('A' for Active; 'I' for Inactive)
REMARK    1  A    between atoms: C_1  and  C_2
REMARK    2  A    between atoms: C_2  and  C_3
REMARK    3  A    between atoms: C_2  and  O_4
REMARK    4  A    between atoms: C_2  and  C_5
REMARK    5  A    between atoms: C_5  and  C_6
REMARK    6  A    between atoms: C_6  and  O_7
REMARK    7  A    between atoms: O_7  and  C_8
REMARK    8  A    between atoms: C_10  and  C_11
REMARK    9  A    between atoms: C_17  and  N_18
REMARK   10  A    between atoms: N_21  and  C_22
REMARK   11  A    between atoms: C_25  and  C_26
REMARK                            x       y       z     vdW  Elec       q    Type
REMARK                         _______ _______ _______ _____ _____    ______ ____
ROOT
ATOM      1  C   UNL     1      -0.527  10.839  19.634  0.00  0.00    +0.000 A 
ATOM      2  C   UNL     1      -0.641  12.159  19.999  0.00  0.00    +0.000 A 
ATOM      3  C   UNL     1       0.613  12.536  20.534  0.00  0.00    +0.000 A 
ATOM      4  N   UNL     1       1.470  11.491  20.475  0.00  0.00    +0.000 NA
ATOM      5  N   UNL     1       0.799  10.501  19.843  0.00  0.00    +0.000 N 
ENDROOT
BRANCH   3   6
ATOM      6  C   UNL     1       0.991  13.886  21.046  0.00  0.00    +0.000 C 
ATOM      7  O   UNL     1       0.826  14.174  22.231  0.00  0.00    +0.000 OA
ATOM      8  N   UNL     1       1.535  14.810  20.130  0.00  0.00    +0.000 N 
ATOM      9  C   UNL     1       1.723  14.469  18.727  0.00  0.00    +0.000 C 
ATOM     10  C   UNL     1       2.842  15.279  18.086  0.00  0.00    +0.000 C 
ATOM     11  C   UNL     1       2.623  16.776  18.278  0.00  0.00    +0.000 C 
ATOM     12  C   UNL     1       2.435  17.112  19.765  0.00  0.00    +0.000 C 
ATOM     13  C   UNL     1       1.323  16.236  20.384  0.00  0.00    +0.000 C 
BRANCH  12  14
ATOM     14  N   UNL     1       2.179  18.548  19.925  0.00  0.00    +0.000 NA
ATOM     15  H   UNL     1       2.086  18.786  20.913  0.00  0.00    +0.000 HD
ATOM     16  H   UNL     1       1.284  18.784  19.495  0.00  0.00    +0.000 HD
ENDBRANCH  12  14
ENDBRANCH   3   6
BRANCH   5  17
ATOM     17  C   UNL     1       1.446   9.289  19.468  0.00  0.00    +0.000 A 
ATOM     18  C   UNL     1       1.966   9.139  18.176  0.00  0.00    +0.000 A 
ATOM     19  C   UNL     1       2.531   7.924  17.774  0.00  0.00    +0.000 A 
ATOM     20  C   UNL     1       2.580   6.854  18.663  0.00  0.00    +0.000 A 
ATOM     21  C   UNL     1       2.095   7.013  19.971  0.00  0.00    +0.000 A 
ATOM     22  C   UNL     1       1.542   8.235  20.378  0.00  0.00    +0.000 A 
BRANCH  20  23
ATOM     23  C   UNL     1       3.114   5.582  18.235  0.00  0.00    +0.000 C 
ATOM     24  N   UNL     1       3.528   4.568  17.885  0.00  0.00    +0.000 NA
ENDBRANCH  20  23
ENDBRANCH   5  17
BRANCH   1  25
ATOM     25  O   UNL     1      -1.391   9.953  19.138  0.00  0.00    +0.000 OA
BRANCH  25  26
ATOM     26  C   UNL     1      -1.464   9.890  17.723  0.00  0.00    +0.000 C 
BRANCH  26  27
ATOM     27  C   UNL     1      -2.931   9.808  17.306  0.00  0.00    +0.000 C 
BRANCH  27  29
ATOM     28  C   UNL     1      -4.580  11.591  16.652  0.00  0.00    +0.000 C 
ATOM     29  C   UNL     1      -3.293  10.867  16.252  0.00  0.00    +0.000 C 
ATOM     30  C   UNL     1      -3.450  10.257  14.857  0.00  0.00    +0.000 C 
BRANCH  29  31
ATOM     31  O   UNL     1      -2.234  11.825  16.207  0.00  0.00    +0.000 OA
ATOM     32  H   UNL     1      -1.493  11.433  15.712  0.00  0.00    +0.000 HD
ENDBRANCH  29  31
ENDBRANCH  27  29
ENDBRANCH  26  27
ENDBRANCH  25  26
ENDBRANCH   1  25
TORSDOF 9
ENDMDL
MODEL 4
REMARK VINA RESULT:      -6.8      1.409      2.121
REMARK  Name = 
REMARK  11 active torsions:
REMARK  status: ('A' for Active; 'I' for Inactive)
REMARK    1  A    between atoms: C_1  and  C_2
REMARK    2  A    between atoms: C_2  and  C_3
REMARK    3  A    between atoms: C_2  and  O_4
REMARK    4  A    between atoms: C_2  and  C_5
REMARK    5  A    between atoms: C_5  and  C_6
REMARK    6  A    between atoms: C_6  and  O_7
REMARK    7  A    between atoms: O_7  and  C_8
REMARK    8  A    between atoms: C_10  and  C_11
REMARK    9  A    between atoms: C_17  and  N_18
REMARK   10  A    between atoms: N_21  and  C_22
REMARK   11  A    between atoms: C_25  and  C_26
REMARK                            x       y       z     vdW  Elec       q    Type
REMARK                         _______ _______ _______ _____ _____    ______ ____
ROOT
ATOM      1  C   UNL     1       1.697   6.643  20.417  0.00  0.00    +0.000 A 
ATOM      2  C   UNL     1       0.692   7.562  20.603  0.00  0.00    +0.000 A 
ATOM      3  C   UNL     1       0.997   8.662  19.767  0.00  0.00    +0.000 A 
ATOM      4  N   UNL     1       2.134   8.414  19.077  0.00  0.00    +0.000 NA
ATOM      5  N   UNL     1       2.495   7.153  19.408  0.00  0.00    +0.000 N 
ENDROOT
BRANCH   3   6
ATOM      6  C   UNL     1       0.186   9.905  19.602  0.00  0.00    +0.000 C 
ATOM      7  O   UNL     1      -0.067  10.341  18.480  0.00  0.00    +0.000 OA
ATOM      8  N   UNL     1      -0.270  10.554  20.768  0.00  0.00    +0.000 N 
ATOM      9  C   UNL     1       0.037  10.038  22.095  0.00  0.00    +0.000 C 
ATOM     10  C   UNL     1      -1.007  10.450  23.124  0.00  0.00    +0.000 C 
ATOM     11  C   UNL     1      -1.205  11.963  23.138  0.00  0.00    +0.000 C 
ATOM     12  C   UNL     1      -1.535  12.481  21.731  0.00  0.00    +0.000 C 
ATOM     13  C   UNL     1      -0.476  12.001  20.713  0.00  0.00    +0.000 C 
BRANCH  12  14
ATOM     14  N   UNL     1      -1.675  13.941  21.756  0.00  0.00    +0.000 NA
ATOM     15  H   UNL     1      -2.517  14.228  21.256  0.00  0.00    +0.000 HD
ATOM     16  H   UNL     1      -0.894  14.367  21.256  0.00  0.00    +0.000 HD
ENDBRANCH  12  14
ENDBRANCH   3   6
BRANCH   5  17
ATOM     17  C   UNL     1       3.574   6.495  18.750  0.00  0.00    +0.000 A 
ATOM     18  C   UNL     1       4.472   5.708  19.482  0.00  0.00    +0.000 A 
ATOM     19  C   UNL     1       5.579   5.125  18.857  0.00  0.00    +0.000 A 
ATOM     20  C   UNL     1       5.793   5.325  17.496  0.00  0.00    +0.000 A 
ATOM     21  C   UNL     1       4.873   6.080  16.751  0.00  0.00    +0.000 A 
ATOM     22  C   UNL     1       3.756   6.653  17.374  0.00  0.00    +0.000 A 
BRANCH  20  23
ATOM     23  C   UNL     1       6.964   4.768  16.859  0.00  0.00    +0.000 C 
ATOM     24  N   UNL     1       7.896   4.337  16.345  0.00  0.00    +0.000 NA
ENDBRANCH  20  23
ENDBRANCH   5  17
BRANCH   1  25
ATOM     25  O   UNL     1       1.966   5.461  20.974  0.00  0.00    +0.000 OA
BRANCH  25  26
ATOM     26  C   UNL     1       1.156   4.380  20.544  0.00  0.00    +0.000 C 
BRANCH  26  27
ATOM     27  C   UNL     1       2.054   3.188  20.220  0.00  0.00    +0.000 C 
BRANCH  27  29
ATOM     28  C   UNL     1       3.318   2.347  18.214  0.00  0.00    +0.000 C 
ATOM     29  C   UNL     1       1.946   2.765  18.746  0.00  0.00    +0.000 C 
ATOM     30  C   UNL     1       1.364   3.878  17.871  0.00  0.00    +0.000 C 
BRANCH  29  31
ATOM     31  O   UNL     1       1.074   1.635  18.674  0.00  0.00    +0.000 OA
ATOM     32  H   UNL     1       0.708   1.479  19.562  0.00  0.00    +0.000 HD
ENDBRANCH  29  31
ENDBRANCH  27  29
ENDBRANCH  26  27
ENDBRANCH  25  26
ENDBRANCH   1  25
TORSDOF 9
ENDMDL
MODEL 5
REMARK VINA RESULT:      -6.8      1.800      7.205
REMARK  Name = 
REMARK  11 active torsions:
REMARK  status: ('A' for Active; 'I' for Inactive)
REMARK    1  A    between atoms: C_1  and  C_2
REMARK    2  A    between atoms: C_2  and  C_3
REMARK    3  A    between atoms: C_2  and  O_4
REMARK    4  A    between atoms: C_2  and  C_5
REMARK    5  A    between atoms: C_5  and  C_6
REMARK    6  A    between atoms: C_6  and  O_7
REMARK    7  A    between atoms: O_7  and  C_8
REMARK    8  A    between atoms: C_10  and  C_11
REMARK    9  A    between atoms: C_17  and  N_18
REMARK   10  A    between atoms: N_21  and  C_22
REMARK   11  A    between atoms: C_25  and  C_26
REMARK                            x       y       z     vdW  Elec       q    Type
REMARK                         _______ _______ _______ _____ _____    ______ ____
ROOT
ATOM      1  C   UNL     1       3.081   5.665  20.001  0.00  0.00    +0.000 A 
ATOM      2  C   UNL     1       4.284   5.160  19.568  0.00  0.00    +0.000 A 
ATOM      3  C   UNL     1       4.775   6.071  18.603  0.00  0.00    +0.000 A 
ATOM      4  N   UNL     1       3.915   7.107  18.469  0.00  0.00    +0.000 NA
ATOM      5  N   UNL     1       2.944   6.897  19.387  0.00  0.00    +0.000 N 
ENDROOT
BRANCH   3   6
ATOM      6  C   UNL     1       6.067   5.969  17.861  0.00  0.00    +0.000 C 
ATOM      7  O   UNL     1       7.115   6.361  18.374  0.00  0.00    +0.000 OA
ATOM      8  N   UNL     1       6.040   5.418  16.564  0.00  0.00    +0.000 N 
ATOM      9  C   UNL     1       4.797   4.961  15.957  0.00  0.00    +0.000 C 
ATOM     10  C   UNL     1       5.034   3.876  14.916  0.00  0.00    +0.000 C 
ATOM     11  C   UNL     1       6.043   4.327  13.864  0.00  0.00    +0.000 C 
ATOM     12  C   UNL     1       7.347   4.795  14.527  0.00  0.00    +0.000 C 
ATOM     13  C   UNL     1       7.054   5.861  15.607  0.00  0.00    +0.000 C 
BRANCH  12  14
ATOM     14  N   UNL     1       8.285   5.269  13.504  0.00  0.00    +0.000 NA
ATOM     15  H   UNL     1       8.176   4.732  12.643  0.00  0.00    +0.000 HD
ATOM     16  H   UNL     1       9.242   5.103  13.817  0.00  0.00    +0.000 HD
ENDBRANCH  12  14
ENDBRANCH   3   6
BRANCH   5  17
ATOM     17  C   UNL     1       1.939   7.875  19.638  0.00  0.00    +0.000 A 
ATOM     18  C   UNL     1       1.551   8.764  18.628  0.00  0.00    +0.000 A 
ATOM     19  C   UNL     1       0.625   9.778  18.889  0.00  0.00    +0.000 A 
ATOM     20  C   UNL     1       0.079   9.907  20.164  0.00  0.00    +0.000 A 
ATOM     21  C   UNL     1       0.435   8.994  21.169  0.00  0.00    +0.000 A 
ATOM     22  C   UNL     1       1.353   7.969  20.903  0.00  0.00    +0.000 A 
BRANCH  20  23
ATOM     23  C   UNL     1      -0.838  10.986  20.451  0.00  0.00    +0.000 C 
ATOM     24  N   UNL     1      -1.577  11.835  20.684  0.00  0.00    +0.000 NA
ENDBRANCH  20  23
ENDBRANCH   5  17
BRANCH   1  25
ATOM     25  O   UNL     1       2.155   5.212  20.847  0.00  0.00    +0.000 OA
BRANCH  25  26
ATOM     26  C   UNL     1       2.034   3.801  20.928  0.00  0.00    +0.000 C 
BRANCH  26  27
ATOM     27  C   UNL     1       0.840   3.358  20.084  0.00  0.00    +0.000 C 
BRANCH  27  29
ATOM     28  C   UNL     1       2.584   1.979  18.909  0.00  0.00    +0.000 C 
ATOM     29  C   UNL     1       1.274   2.750  18.741  0.00  0.00    +0.000 C 
ATOM     30  C   UNL     1       1.431   3.816  17.653  0.00  0.00    +0.000 C 
BRANCH  29  31
ATOM     31  O   UNL     1       0.262   1.831  18.326  0.00  0.00    +0.000 OA
ATOM     32  H   UNL     1      -0.573   2.322  18.229  0.00  0.00    +0.000 HD
ENDBRANCH  29  31
ENDBRANCH  27  29
ENDBRANCH  26  27
ENDBRANCH  25  26
ENDBRANCH   1  25
TORSDOF 9
ENDMDL
MODEL 6
REMARK VINA RESULT:      -6.7      2.407      8.569
REMARK  Name = 
REMARK  11 active torsions:
REMARK  status: ('A' for Active; 'I' for Inactive)
REMARK    1  A    between atoms: C_1  and  C_2
REMARK    2  A    between atoms: C_2  and  C_3
REMARK    3  A    between atoms: C_2  and  O_4
REMARK    4  A    between atoms: C_2  and  C_5
REMARK    5  A    between atoms: C_5  and  C_6
REMARK    6  A    between atoms: C_6  and  O_7
REMARK    7  A    between atoms: O_7  and  C_8
REMARK    8  A    between atoms: C_10  and  C_11
REMARK    9  A    between atoms: C_17  and  N_18
REMARK   10  A    between atoms: N_21  and  C_22
REMARK   11  A    between atoms: C_25  and  C_26
REMARK                            x       y       z     vdW  Elec       q    Type
REMARK                         _______ _______ _______ _____ _____    ______ ____
ROOT
ATOM      1  C   UNL     1       1.034   9.136  18.413  0.00  0.00    +0.000 A 
ATOM      2  C   UNL     1       1.687   7.996  18.008  0.00  0.00    +0.000 A 
ATOM      3  C   UNL     1       2.342   7.483  19.151  0.00  0.00    +0.000 A 
ATOM      4  N   UNL     1       2.079   8.267  20.222  0.00  0.00    +0.000 NA
ATOM      5  N   UNL     1       1.212   9.208  19.783  0.00  0.00    +0.000 N 
ENDROOT
BRANCH   3   6
ATOM      6  C   UNL     1       3.164   6.239  19.221  0.00  0.00    +0.000 C 
ATOM      7  O   UNL     1       2.923   5.377  20.065  0.00  0.00    +0.000 OA
ATOM      8  N   UNL     1       4.219   6.094  18.296  0.00  0.00    +0.000 N 
ATOM      9  C   UNL     1       4.506   7.119  17.303  0.00  0.00    +0.000 C 
ATOM     10  C   UNL     1       5.188   6.545  16.068  0.00  0.00    +0.000 C 
ATOM     11  C   UNL     1       6.438   5.754  16.442  0.00  0.00    +0.000 C 
ATOM     12  C   UNL     1       6.108   4.674  17.483  0.00  0.00    +0.000 C 
ATOM     13  C   UNL     1       5.378   5.295  18.696  0.00  0.00    +0.000 C 
BRANCH  12  14
ATOM     14  N   UNL     1       7.330   3.958  17.864  0.00  0.00    +0.000 NA
ATOM     15  H   UNL     1       7.349   3.032  17.434  0.00  0.00    +0.000 HD
ATOM     16  H   UNL     1       7.331   3.798  18.872  0.00  0.00    +0.000 HD
ENDBRANCH  12  14
ENDBRANCH   3   6
BRANCH   5  17
ATOM     17  C   UNL     1       0.594  10.123  20.683  0.00  0.00    +0.000 A 
ATOM     18  C   UNL     1      -0.149   9.649  21.772  0.00  0.00    +0.000 A 
ATOM     19  C   UNL     1      -0.825  10.538  22.613  0.00  0.00    +0.000 A 
ATOM     20  C   UNL     1      -0.761  11.908  22.370  0.00  0.00    +0.000 A 
ATOM     21  C   UNL     1       0.014  12.389  21.303  0.00  0.00    +0.000 A 
ATOM     22  C   UNL     1       0.703  11.499  20.469  0.00  0.00    +0.000 A 
BRANCH  20  23
ATOM     23  C   UNL     1      -1.501  12.825  23.205  0.00  0.00    +0.000 C 
ATOM     24  N   UNL     1      -2.085  13.549  23.880  0.00  0.00    +0.000 NA
ENDBRANCH  20  23
ENDBRANCH   5  17
BRANCH   1  25
ATOM     25  O   UNL     1       0.315  10.054  17.765  0.00  0.00    +0.000 OA
BRANCH  25  26
ATOM     26  C   UNL     1      -0.981   9.645  17.360  0.00  0.00    +0.000 C 
BRANCH  26  27
ATOM     27  C   UNL     1      -2.002  10.169  18.367  0.00  0.00    +0.000 C 
BRANCH  27  29
ATOM     28  C   UNL     1      -3.421  12.130  19.051  0.00  0.00    +0.000 C 
ATOM     29  C   UNL     1      -2.667  11.472  17.895  0.00  0.00    +0.000 C 
ATOM     30  C   UNL     1      -3.618  11.237  16.718  0.00  0.00    +0.000 C 
BRANCH  29  31
ATOM     31  O   UNL     1      -1.635  12.363  17.467  0.00  0.00    +0.000 OA
ATOM     32  H   UNL     1      -1.137  11.929  16.752  0.00  0.00    +0.000 HD
ENDBRANCH  29  31
ENDBRANCH  27  29
ENDBRANCH  26  27
ENDBRANCH  25  26
ENDBRANCH   1  25
TORSDOF 9
ENDMDL
MODEL 7
REMARK VINA RESULT:      -6.7      2.080      2.580
REMARK  Name = 
REMARK  11 active torsions:
REMARK  status: ('A' for Active; 'I' for Inactive)
REMARK    1  A    between atoms: C_1  and  C_2
REMARK    2  A    between atoms: C_2  and  C_3
REMARK    3  A    between atoms: C_2  and  O_4
REMARK    4  A    between atoms: C_2  and  C_5
REMARK    5  A    between atoms: C_5  and  C_6
REMARK    6  A    between atoms: C_6  and  O_7
REMARK    7  A    between atoms: O_7  and  C_8
REMARK    8  A    between atoms: C_10  and  C_11
REMARK    9  A    between atoms: C_17  and  N_18
REMARK   10  A    between atoms: N_21  and  C_22
REMARK   11  A    between atoms: C_25  and  C_26
REMARK                            x       y       z     vdW  Elec       q    Type
REMARK                         _______ _______ _______ _____ _____    ______ ____
ROOT
ATOM      1  C   UNL     1       1.892   7.735  19.894  0.00  0.00    +0.000 A 
ATOM      2  C   UNL     1       0.933   8.705  20.066  0.00  0.00    +0.000 A 
ATOM      3  C   UNL     1       0.909   9.461  18.871  0.00  0.00    +0.000 A 
ATOM      4  N   UNL     1       1.805   8.957  17.991  0.00  0.00    +0.000 NA
ATOM      5  N   UNL     1       2.324   7.858  18.585  0.00  0.00    +0.000 N 
ENDROOT
BRANCH   3   6
ATOM      6  C   UNL     1       0.011  10.614  18.566  0.00  0.00    +0.000 C 
ATOM      7  O   UNL     1      -0.995  10.457  17.876  0.00  0.00    +0.000 OA
ATOM      8  N   UNL     1       0.359  11.876  19.089  0.00  0.00    +0.000 N 
ATOM      9  C   UNL     1       1.555  12.061  19.900  0.00  0.00    +0.000 C 
ATOM     10  C   UNL     1       1.424  13.242  20.852  0.00  0.00    +0.000 C 
ATOM     11  C   UNL     1       1.046  14.517  20.105  0.00  0.00    +0.000 C 
ATOM     12  C   UNL     1      -0.221  14.300  19.265  0.00  0.00    +0.000 C 
ATOM     13  C   UNL     1      -0.061  13.066  18.348  0.00  0.00    +0.000 C 
BRANCH  12  14
ATOM     14  N   UNL     1      -0.541  15.522  18.519  0.00  0.00    +0.000 NA
ATOM     15  H   UNL     1      -0.916  15.290  17.598  0.00  0.00    +0.000 HD
ATOM     16  H   UNL     1       0.316  16.050  18.346  0.00  0.00    +0.000 HD
ENDBRANCH  12  14
ENDBRANCH   3   6
BRANCH   5  17
ATOM     17  C   UNL     1       3.198   6.980  17.883  0.00  0.00    +0.000 A 
ATOM     18  C   UNL     1       4.293   7.491  17.175  0.00  0.00    +0.000 A 
ATOM     19  C   UNL     1       5.108   6.645  16.417  0.00  0.00    +0.000 A 
ATOM     20  C   UNL     1       4.834   5.281  16.365  0.00  0.00    +0.000 A 
ATOM     21  C   UNL     1       3.761   4.758  17.104  0.00  0.00    +0.000 A 
ATOM     22  C   UNL     1       2.953   5.605  17.875  0.00  0.00    +0.000 A 
BRANCH  20  23
ATOM     23  C   UNL     1       5.642   4.412  15.540  0.00  0.00    +0.000 C 
ATOM     24  N   UNL     1       6.276   3.722  14.875  0.00  0.00    +0.000 NA
ENDBRANCH  20  23
ENDBRANCH   5  17
BRANCH   1  25
ATOM     25  O   UNL     1       2.385   6.789  20.694  0.00  0.00    +0.000 OA
BRANCH  25  26
ATOM     26  C   UNL     1       1.570   5.641  20.864  0.00  0.00    +0.000 C 
BRANCH  26  27
ATOM     27  C   UNL     1       2.420   4.512  21.443  0.00  0.00    +0.000 C 
BRANCH  27  29
ATOM     28  C   UNL     1       3.185   2.521  20.109  0.00  0.00    +0.000 C 
ATOM     29  C   UNL     1       2.018   3.139  20.881  0.00  0.00    +0.000 C 
ATOM     30  C   UNL     1       0.783   3.226  19.980  0.00  0.00    +0.000 C 
BRANCH  29  31
ATOM     31  O   UNL     1       1.708   2.285  21.985  0.00  0.00    +0.000 OA
ATOM     32  H   UNL     1       0.811   2.503  22.294  0.00  0.00    +0.000 HD
ENDBRANCH  29  31
ENDBRANCH  27  29
ENDBRANCH  26  27
ENDBRANCH  25  26
ENDBRANCH   1  25
TORSDOF 9
ENDMDL
MODEL 8
REMARK VINA RESULT:      -6.7      3.236      6.007
REMARK  Name = 
REMARK  11 active torsions:
REMARK  status: ('A' for Active; 'I' for Inactive)
REMARK    1  A    between atoms: C_1  and  C_2
REMARK    2  A    between atoms: C_2  and  C_3
REMARK    3  A    between atoms: C_2  and  O_4
REMARK    4  A    between atoms: C_2  and  C_5
REMARK    5  A    between atoms: C_5  and  C_6
REMARK    6  A    between atoms: C_6  and  O_7
REMARK    7  A    between atoms: O_7  and  C_8
REMARK    8  A    between atoms: C_10  and  C_11
REMARK    9  A    between atoms: C_17  and  N_18
REMARK   10  A    between atoms: N_21  and  C_22
REMARK   11  A    between atoms: C_25  and  C_26
REMARK                            x       y       z     vdW  Elec       q    Type
REMARK                         _______ _______ _______ _____ _____    ______ ____
ROOT
ATOM      1  C   UNL     1      -0.695  10.987  18.908  0.00  0.00    +0.000 A 
ATOM      2  C   UNL     1      -1.080  12.194  19.440  0.00  0.00    +0.000 A 
ATOM      3  C   UNL     1      -0.380  12.334  20.661  0.00  0.00    +0.000 A 
ATOM      4  N   UNL     1       0.424  11.263  20.855  0.00  0.00    +0.000 NA
ATOM      5  N   UNL     1       0.295  10.502  19.744  0.00  0.00    +0.000 N 
ENDROOT
BRANCH   3   6
ATOM      6  C   UNL     1      -0.446  13.496  21.596  0.00  0.00    +0.000 C 
ATOM      7  O   UNL     1       0.387  14.399  21.531  0.00  0.00    +0.000 OA
ATOM      8  N   UNL     1      -1.486  13.517  22.548  0.00  0.00    +0.000 N 
ATOM      9  C   UNL     1      -2.467  12.444  22.626  0.00  0.00    +0.000 C 
ATOM     10  C   UNL     1      -3.789  12.919  23.213  0.00  0.00    +0.000 C 
ATOM     11  C   UNL     1      -3.585  13.596  24.564  0.00  0.00    +0.000 C 
ATOM     12  C   UNL     1      -2.553  14.729  24.454  0.00  0.00    +0.000 C 
ATOM     13  C   UNL     1      -1.246  14.213  23.812  0.00  0.00    +0.000 C 
BRANCH  12  14
ATOM     14  N   UNL     1      -2.336  15.337  25.772  0.00  0.00    +0.000 NA
ATOM     15  H   UNL     1      -3.032  16.062  25.950  0.00  0.00    +0.000 HD
ATOM     16  H   UNL     1      -1.431  15.808  25.784  0.00  0.00    +0.000 HD
ENDBRANCH  12  14
ENDBRANCH   3   6
BRANCH   5  17
ATOM     17  C   UNL     1       1.117   9.359  19.530  0.00  0.00    +0.000 A 
ATOM     18  C   UNL     1       1.759   9.172  18.299  0.00  0.00    +0.000 A 
ATOM     19  C   UNL     1       2.501   8.013  18.053  0.00  0.00    +0.000 A 
ATOM     20  C   UNL     1       2.607   7.034  19.037  0.00  0.00    +0.000 A 
ATOM     21  C   UNL     1       1.997   7.235  20.286  0.00  0.00    +0.000 A 
ATOM     22  C   UNL     1       1.265   8.403  20.538  0.00  0.00    +0.000 A 
BRANCH  20  23
ATOM     23  C   UNL     1       3.328   5.812  18.767  0.00  0.00    +0.000 C 
ATOM     24  N   UNL     1       3.896   4.834  18.563  0.00  0.00    +0.000 NA
ENDBRANCH  20  23
ENDBRANCH   5  17
BRANCH   1  25
ATOM     25  O   UNL     1      -1.066  10.311  17.819  0.00  0.00    +0.000 OA
BRANCH  25  26
ATOM     26  C   UNL     1      -2.358   9.729  17.868  0.00  0.00    +0.000 C 
BRANCH  26  27
ATOM     27  C   UNL     1      -2.810   9.405  16.445  0.00  0.00    +0.000 C 
BRANCH  27  29
ATOM     28  C   UNL     1      -4.491  11.275  16.516  0.00  0.00    +0.000 C 
ATOM     29  C   UNL     1      -3.351  10.644  15.714  0.00  0.00    +0.000 C 
ATOM     30  C   UNL     1      -3.830  10.312  14.298  0.00  0.00    +0.000 C 
BRANCH  29  31
ATOM     31  O   UNL     1      -2.290  11.597  15.616  0.00  0.00    +0.000 OA
ATOM     32  H   UNL     1      -2.392  12.078  14.777  0.00  0.00    +0.000 HD
ENDBRANCH  29  31
ENDBRANCH  27  29
ENDBRANCH  26  27
ENDBRANCH  25  26
ENDBRANCH   1  25
TORSDOF 9
ENDMDL
MODEL 9
REMARK VINA RESULT:      -6.6      1.213      1.617
REMARK  Name = 
REMARK  11 active torsions:
REMARK  status: ('A' for Active; 'I' for Inactive)
REMARK    1  A    between atoms: C_1  and  C_2
REMARK    2  A    between atoms: C_2  and  C_3
REMARK    3  A    between atoms: C_2  and  O_4
REMARK    4  A    between atoms: C_2  and  C_5
REMARK    5  A    between atoms: C_5  and  C_6
REMARK    6  A    between atoms: C_6  and  O_7
REMARK    7  A    between atoms: O_7  and  C_8
REMARK    8  A    between atoms: C_10  and  C_11
REMARK    9  A    between atoms: C_17  and  N_18
REMARK   10  A    between atoms: N_21  and  C_22
REMARK   11  A    between atoms: C_25  and  C_26
REMARK                            x       y       z     vdW  Elec       q    Type
REMARK                         _______ _______ _______ _____ _____    ______ ____
ROOT
ATOM      1  C   UNL     1       1.714   6.240  20.748  0.00  0.00    +0.000 A 
ATOM      2  C   UNL     1       0.769   7.080  21.288  0.00  0.00    +0.000 A 
ATOM      3  C   UNL     1       1.039   8.369  20.772  0.00  0.00    +0.000 A 
ATOM      4  N   UNL     1       2.095   8.314  19.927  0.00  0.00    +0.000 NA
ATOM      5  N   UNL     1       2.434   7.007  19.849  0.00  0.00    +0.000 N 
ENDROOT
BRANCH   3   6
ATOM      6  C   UNL     1       0.268   9.617  21.048  0.00  0.00    +0.000 C 
ATOM      7  O   UNL     1      -0.486   9.684  22.018  0.00  0.00    +0.000 OA
ATOM      8  N   UNL     1       0.431  10.702  20.163  0.00  0.00    +0.000 N 
ATOM      9  C   UNL     1       1.319  10.618  19.012  0.00  0.00    +0.000 C 
ATOM     10  C   UNL     1       1.838  11.985  18.588  0.00  0.00    +0.000 C 
ATOM     11  C   UNL     1       0.692  12.963  18.346  0.00  0.00    +0.000 C 
ATOM     12  C   UNL     1      -0.225  13.041  19.576  0.00  0.00    +0.000 C 
ATOM     13  C   UNL     1      -0.690  11.628  19.997  0.00  0.00    +0.000 C 
BRANCH  12  14
ATOM     14  N   UNL     1      -1.345  13.949  19.307  0.00  0.00    +0.000 NA
ATOM     15  H   UNL     1      -1.565  13.959  18.311  0.00  0.00    +0.000 HD
ATOM     16  H   UNL     1      -1.073  14.904  19.543  0.00  0.00    +0.000 HD
ENDBRANCH  12  14
ENDBRANCH   3   6
BRANCH   5  17
ATOM     17  C   UNL     1       3.418   6.550  18.926  0.00  0.00    +0.000 A 
ATOM     18  C   UNL     1       4.303   5.527  19.287  0.00  0.00    +0.000 A 
ATOM     19  C   UNL     1       5.324   5.130  18.418  0.00  0.00    +0.000 A 
ATOM     20  C   UNL     1       5.462   5.753  17.180  0.00  0.00    +0.000 A 
ATOM     21  C   UNL     1       4.553   6.751  16.798  0.00  0.00    +0.000 A 
ATOM     22  C   UNL     1       3.522   7.140  17.664  0.00  0.00    +0.000 A 
BRANCH  20  23
ATOM     23  C   UNL     1       6.547   5.381  16.301  0.00  0.00    +0.000 C 
ATOM     24  N   UNL     1       7.404   5.074  15.600  0.00  0.00    +0.000 NA
ENDBRANCH  20  23
ENDBRANCH   5  17
BRANCH   1  25
ATOM     25  O   UNL     1       1.985   4.945  20.919  0.00  0.00    +0.000 OA
BRANCH  25  26
ATOM     26  C   UNL     1       0.983   4.044  20.478  0.00  0.00    +0.000 C 
BRANCH  26  27
ATOM     27  C   UNL     1       1.642   2.720  20.095  0.00  0.00    +0.000 C 
BRANCH  27  29
ATOM     28  C   UNL     1       3.090   1.995  18.170  0.00  0.00    +0.000 C 
ATOM     29  C   UNL     1       1.713   2.528  18.572  0.00  0.00    +0.000 C 
ATOM     30  C   UNL     1       1.415   3.825  17.815  0.00  0.00    +0.000 C 
BRANCH  29  31
ATOM     31  O   UNL     1       0.731   1.557  18.204  0.00  0.00    +0.000 OA
ATOM     32  H   UNL     1       0.842   0.781  18.780  0.00  0.00    +0.000 HD
ENDBRANCH  29  31
ENDBRANCH  27  29
ENDBRANCH  26  27
ENDBRANCH  25  26
ENDBRANCH   1  25
TORSDOF 9
ENDMDL
