MODEL 1
REMARK VINA RESULT:      -8.2      0.000      0.000
REMARK  Name = 
REMARK  6 active torsions:
REMARK  status: ('A' for Active; 'I' for Inactive)
REMARK    1  A    between atoms: C_2  and  C_3
REMARK    2  A    between atoms: C_3  and  C_4
REMARK    3  A    between atoms: C_4  and  C_5
REMARK    4  A    between atoms: N_7  and  C_8
REMARK    5  A    between atoms: C_8  and  C_9
REMARK    6  A    between atoms: N_23  and  C_24
REMARK                            x       y       z     vdW  Elec       q    Type
REMARK                         _______ _______ _______ _____ _____    ______ ____
ROOT
ATOM      1  C   UNL     1       4.968   5.939  18.608  0.00  0.00    +0.000 A 
ATOM      2  C   UNL     1       4.437   7.176  18.302  0.00  0.00    +0.000 A 
ATOM      3  N   UNL     1       3.102   7.023  18.016  0.00  0.00    +0.000 N 
ATOM      4  C   UNL     1       2.758   5.686  18.089  0.00  0.00    +0.000 A 
ATOM      5  C   UNL     1       1.557   5.011  17.808  0.00  0.00    +0.000 A 
ATOM      6  C   UNL     1       1.500   3.634  18.050  0.00  0.00    +0.000 A 
ATOM      7  C   UNL     1       2.594   2.960  18.577  0.00  0.00    +0.000 A 
ATOM      8 CL   UNL     1       2.480   1.275  18.918  0.00  0.00    +0.000 Cl
ATOM      9  C   UNL     1       3.792   3.625  18.829  0.00  0.00    +0.000 A 
ATOM     10  C   UNL     1       3.889   5.005  18.551  0.00  0.00    +0.000 A 
ENDROOT
BRANCH   1  11
ATOM     11  C   UNL     1       6.393   5.639  18.943  0.00  0.00    +0.000 C 
BRANCH  11  12
ATOM     12  C   UNL     1       7.369   6.160  17.884  0.00  0.00    +0.000 C 
BRANCH  12  14
ATOM     13  O   UNL     1       8.075   4.130  16.820  0.00  0.00    +0.000 OA
ATOM     14  C   UNL     1       7.475   5.192  16.721  0.00  0.00    +0.000 C 
ATOM     15  N   UNL     1       6.835   5.667  15.584  0.00  0.00    +0.000 N 
ATOM     16  H   UNL     1       6.508   6.627  15.599  0.00  0.00    +0.000 HD
BRANCH  15  17
ATOM     17  C   UNL     1       6.710   4.975  14.356  0.00  0.00    +0.000 A 
ATOM     18  C   UNL     1       5.706   4.048  14.096  0.00  0.00    +0.000 A 
ATOM     19  C   UNL     1       5.697   3.405  12.869  0.00  0.00    +0.000 A 
ATOM     20  N   UNL     1       6.607   3.626  11.899  0.00  0.00    +0.000 NA
ATOM     21  C   UNL     1       7.558   4.545  12.165  0.00  0.00    +0.000 A 
ATOM     22  C   UNL     1       7.647   5.246  13.357  0.00  0.00    +0.000 A 
ENDBRANCH  15  17
ENDBRANCH  12  14
ENDBRANCH  11  12
ENDBRANCH   1  11
BRANCH   3  23
ATOM     23  C   UNL     1       2.195   8.138  17.745  0.00  0.00    +0.000 C 
BRANCH  23  24
ATOM     24  C   UNL     1       1.608   8.677  19.026  0.00  0.00    +0.000 A 
ATOM     25  C   UNL     1       1.795   7.993  20.237  0.00  0.00    +0.000 A 
ATOM     26  C   UNL     1       1.123   8.401  21.389  0.00  0.00    +0.000 A 
ATOM     27  C   UNL     1       0.271   9.501  21.343  0.00  0.00    +0.000 A 
ATOM     28 CL   UNL     1      -0.630   9.944  22.738  0.00  0.00    +0.000 Cl
ATOM     29  C   UNL     1       0.123  10.229  20.163  0.00  0.00    +0.000 A 
ATOM     30  C   UNL     1       0.794   9.821  19.011  0.00  0.00    +0.000 A 
ENDBRANCH  23  24
ENDBRANCH   3  23
TORSDOF 6
ENDMDL
MODEL 2
REMARK VINA RESULT:      -8.2      3.501      8.391
REMARK  Name = 
REMARK  6 active torsions:
REMARK  status: ('A' for Active; 'I' for Inactive)
REMARK    1  A    between atoms: C_2  and  C_3
REMARK    2  A    between atoms: C_3  and  C_4
REMARK    3  A    between atoms: C_4  and  C_5
REMARK    4  A    between atoms: N_7  and  C_8
REMARK    5  A    between atoms: C_8  and  C_9
REMARK    6  A    between atoms: N_23  and  C_24
REMARK                            x       y       z     vdW  Elec       q    Type
REMARK                         _______ _______ _______ _____ _____    ______ ____
ROOT
ATOM      1  C   UNL     1       3.004   6.966  18.019  0.00  0.00    +0.000 A 
ATOM      2  C   UNL     1       4.256   7.089  17.450  0.00  0.00    +0.000 A 
ATOM      3  N   UNL     1       5.003   5.988  17.791  0.00  0.00    +0.000 N 
ATOM      4  C   UNL     1       4.267   5.159  18.617  0.00  0.00    +0.000 A 
ATOM      5  C   UNL     1       4.602   3.973  19.293  0.00  0.00    +0.000 A 
ATOM      6  C   UNL     1       3.597   3.315  20.012  0.00  0.00    +0.000 A 
ATOM      7  C   UNL     1       2.300   3.811  20.034  0.00  0.00    +0.000 A 
ATOM      8 CL   UNL     1       1.069   2.954  20.881  0.00  0.00    +0.000 Cl
ATOM      9  C   UNL     1       1.976   5.002  19.387  0.00  0.00    +0.000 A 
ATOM     10  C   UNL     1       2.982   5.707  18.692  0.00  0.00    +0.000 A 
ENDROOT
BRANCH   1  11
ATOM     11  C   UNL     1       1.886   7.955  17.936  0.00  0.00    +0.000 C 
BRANCH  11  12
ATOM     12  C   UNL     1       2.369   9.402  18.071  0.00  0.00    +0.000 C 
BRANCH  12  14
ATOM     13  O   UNL     1       1.350  11.507  18.603  0.00  0.00    +0.000 OA
ATOM     14  C   UNL     1       1.198  10.353  18.223  0.00  0.00    +0.000 C 
ATOM     15  N   UNL     1      -0.011   9.753  17.896  0.00  0.00    +0.000 N 
ATOM     16  H   UNL     1      -0.008   8.751  17.741  0.00  0.00    +0.000 HD
BRANCH  15  17
ATOM     17  C   UNL     1      -1.274  10.391  17.884  0.00  0.00    +0.000 A 
ATOM     18  C   UNL     1      -1.722  11.227  18.902  0.00  0.00    +0.000 A 
ATOM     19  C   UNL     1      -2.990  11.774  18.803  0.00  0.00    +0.000 A 
ATOM     20  N   UNL     1      -3.826  11.549  17.769  0.00  0.00    +0.000 NA
ATOM     21  C   UNL     1      -3.363  10.754  16.784  0.00  0.00    +0.000 A 
ATOM     22  C   UNL     1      -2.107  10.167  16.787  0.00  0.00    +0.000 A 
ENDBRANCH  15  17
ENDBRANCH  12  14
ENDBRANCH  11  12
ENDBRANCH   1  11
BRANCH   3  23
ATOM     23  C   UNL     1       6.351   5.730  17.283  0.00  0.00    +0.000 C 
BRANCH  23  24
ATOM     24  C   UNL     1       6.300   5.184  15.878  0.00  0.00    +0.000 A 
ATOM     25  C   UNL     1       5.260   4.328  15.484  0.00  0.00    +0.000 A 
ATOM     26  C   UNL     1       5.296   3.698  14.240  0.00  0.00    +0.000 A 
ATOM     27  C   UNL     1       6.364   3.929  13.377  0.00  0.00    +0.000 A 
ATOM     28 CL   UNL     1       6.456   3.077  11.886  0.00  0.00    +0.000 Cl
ATOM     29  C   UNL     1       7.373   4.824  13.727  0.00  0.00    +0.000 A 
ATOM     30  C   UNL     1       7.337   5.455  14.970  0.00  0.00    +0.000 A 
ENDBRANCH  23  24
ENDBRANCH   3  23
TORSDOF 6
ENDMDL
MODEL 3
REMARK VINA RESULT:      -8.1      3.275      8.717
REMARK  Name = 
REMARK  6 active torsions:
REMARK  status: ('A' for Active; 'I' for Inactive)
REMARK    1  A    between atoms: C_2  and  C_3
REMARK    2  A    between atoms: C_3  and  C_4
REMARK    3  A    between atoms: C_4  and  C_5
REMARK    4  A    between atoms: N_7  and  C_8
REMARK    5  A    between atoms: C_8  and  C_9
REMARK    6  A    between atoms: N_23  and  C_24
REMARK                            x       y       z     vdW  Elec       q    Type
REMARK                         _______ _______ _______ _____ _____    ______ ____
ROOT
ATOM      1  C   UNL     1       2.865   6.836  17.990  0.00  0.00    +0.000 A 
ATOM      2  C   UNL     1       4.117   7.032  17.440  0.00  0.00    +0.000 A 
ATOM      3  N   UNL     1       4.940   6.009  17.846  0.00  0.00    +0.000 N 
ATOM      4  C   UNL     1       4.251   5.162  18.694  0.00  0.00    +0.000 A 
ATOM      5  C   UNL     1       4.662   4.037  19.430  0.00  0.00    +0.000 A 
ATOM      6  C   UNL     1       3.695   3.335  20.160  0.00  0.00    +0.000 A 
ATOM      7  C   UNL     1       2.363   3.728  20.135  0.00  0.00    +0.000 A 
ATOM      8 CL   UNL     1       1.184   2.814  20.996  0.00  0.00    +0.000 Cl
ATOM      9  C   UNL     1       1.963   4.860  19.427  0.00  0.00    +0.000 A 
ATOM     10  C   UNL     1       2.926   5.610  18.720  0.00  0.00    +0.000 A 
ENDROOT
BRANCH   1  11
ATOM     11  C   UNL     1       1.676   7.729  17.840  0.00  0.00    +0.000 C 
BRANCH  11  12
ATOM     12  C   UNL     1       2.031   9.211  17.991  0.00  0.00    +0.000 C 
BRANCH  12  14
ATOM     13  O   UNL     1      -0.005  10.452  18.251  0.00  0.00    +0.000 OA
ATOM     14  C   UNL     1       0.970   9.944  18.790  0.00  0.00    +0.000 C 
ATOM     15  N   UNL     1       1.254   9.962  20.148  0.00  0.00    +0.000 N 
ATOM     16  H   UNL     1       2.169   9.632  20.438  0.00  0.00    +0.000 HD
BRANCH  15  17
ATOM     17  C   UNL     1       0.434  10.518  21.158  0.00  0.00    +0.000 A 
ATOM     18  C   UNL     1       0.125  11.873  21.236  0.00  0.00    +0.000 A 
ATOM     19  C   UNL     1      -0.663  12.315  22.285  0.00  0.00    +0.000 A 
ATOM     20  N   UNL     1      -1.158  11.507  23.244  0.00  0.00    +0.000 NA
ATOM     21  C   UNL     1      -0.864  10.195  23.137  0.00  0.00    +0.000 A 
ATOM     22  C   UNL     1      -0.093   9.655  22.120  0.00  0.00    +0.000 A 
ENDBRANCH  15  17
ENDBRANCH  12  14
ENDBRANCH  11  12
ENDBRANCH   1  11
BRANCH   3  23
ATOM     23  C   UNL     1       6.314   5.836  17.376  0.00  0.00    +0.000 C 
BRANCH  23  24
ATOM     24  C   UNL     1       6.344   5.086  16.067  0.00  0.00    +0.000 A 
ATOM     25  C   UNL     1       7.328   5.369  15.108  0.00  0.00    +0.000 A 
ATOM     26  C   UNL     1       7.265   4.794  13.839  0.00  0.00    +0.000 A 
ATOM     27  C   UNL     1       6.224   3.923  13.524  0.00  0.00    +0.000 A 
ATOM     28 CL   UNL     1       6.092   3.291  11.930  0.00  0.00    +0.000 Cl
ATOM     29  C   UNL     1       5.274   3.583  14.485  0.00  0.00    +0.000 A 
ATOM     30  C   UNL     1       5.338   4.158  15.754  0.00  0.00    +0.000 A 
ENDBRANCH  23  24
ENDBRANCH   3  23
TORSDOF 6
ENDMDL
MODEL 4
REMARK VINA RESULT:      -8.1      3.247      8.332
REMARK  Name = 
REMARK  6 active torsions:
REMARK  status: ('A' for Active; 'I' for Inactive)
REMARK    1  A    between atoms: C_2  and  C_3
REMARK    2  A    between atoms: C_3  and  C_4
REMARK    3  A    between atoms: C_4  and  C_5
REMARK    4  A    between atoms: N_7  and  C_8
REMARK    5  A    between atoms: C_8  and  C_9
REMARK    6  A    between atoms: N_23  and  C_24
REMARK                            x       y       z     vdW  Elec       q    Type
REMARK                         _______ _______ _______ _____ _____    ______ ____
ROOT
ATOM      1  C   UNL     1       3.274   6.410  18.752  0.00  0.00    +0.000 A 
ATOM      2  C   UNL     1       4.503   6.440  18.122  0.00  0.00    +0.000 A 
ATOM      3  N   UNL     1       5.161   5.264  18.387  0.00  0.00    +0.000 N 
ATOM      4  C   UNL     1       4.393   4.474  19.222  0.00  0.00    +0.000 A 
ATOM      5  C   UNL     1       4.650   3.238  19.840  0.00  0.00    +0.000 A 
ATOM      6  C   UNL     1       3.625   2.648  20.589  0.00  0.00    +0.000 A 
ATOM      7  C   UNL     1       2.382   3.258  20.697  0.00  0.00    +0.000 A 
ATOM      8 CL   UNL     1       1.121   2.484  21.578  0.00  0.00    +0.000 Cl
ATOM      9  C   UNL     1       2.139   4.497  20.106  0.00  0.00    +0.000 A 
ATOM     10  C   UNL     1       3.170   5.133  19.383  0.00  0.00    +0.000 A 
ENDROOT
BRANCH   1  11
ATOM     11  C   UNL     1       2.250   7.498  18.760  0.00  0.00    +0.000 C 
BRANCH  11  12
ATOM     12  C   UNL     1       2.593   8.635  17.793  0.00  0.00    +0.000 C 
BRANCH  12  14
ATOM     13  O   UNL     1       2.216  11.001  17.912  0.00  0.00    +0.000 OA
ATOM     14  C   UNL     1       1.775   9.875  18.103  0.00  0.00    +0.000 C 
ATOM     15  N   UNL     1       0.524   9.564  18.616  0.00  0.00    +0.000 N 
ATOM     16  H   UNL     1       0.348   8.595  18.861  0.00  0.00    +0.000 HD
BRANCH  15  17
ATOM     17  C   UNL     1      -0.487  10.495  18.952  0.00  0.00    +0.000 A 
ATOM     18  C   UNL     1      -0.547  11.156  20.174  0.00  0.00    +0.000 A 
ATOM     19  C   UNL     1      -1.600  12.025  20.409  0.00  0.00    +0.000 A 
ATOM     20  N   UNL     1      -2.579  12.275  19.517  0.00  0.00    +0.000 NA
ATOM     21  C   UNL     1      -2.489  11.640  18.331  0.00  0.00    +0.000 A 
ATOM     22  C   UNL     1      -1.471  10.761  17.998  0.00  0.00    +0.000 A 
ENDBRANCH  15  17
ENDBRANCH  12  14
ENDBRANCH  11  12
ENDBRANCH   1  11
BRANCH   3  23
ATOM     23  C   UNL     1       6.452   4.904  17.800  0.00  0.00    +0.000 C 
BRANCH  23  24
ATOM     24  C   UNL     1       6.320   4.663  16.317  0.00  0.00    +0.000 A 
ATOM     25  C   UNL     1       5.336   3.793  15.822  0.00  0.00    +0.000 A 
ATOM     26  C   UNL     1       5.314   3.446  14.471  0.00  0.00    +0.000 A 
ATOM     27  C   UNL     1       6.266   3.975  13.604  0.00  0.00    +0.000 A 
ATOM     28 CL   UNL     1       6.298   3.472  11.960  0.00  0.00    +0.000 Cl
ATOM     29  C   UNL     1       7.211   4.889  14.067  0.00  0.00    +0.000 A 
ATOM     30  C   UNL     1       7.234   5.236  15.417  0.00  0.00    +0.000 A 
ENDBRANCH  23  24
ENDBRANCH   3  23
TORSDOF 6
ENDMDL
MODEL 5
REMARK VINA RESULT:      -8.1      3.153      8.606
REMARK  Name = 
REMARK  6 active torsions:
REMARK  status: ('A' for Active; 'I' for Inactive)
REMARK    1  A    between atoms: C_2  and  C_3
REMARK    2  A    between atoms: C_3  and  C_4
REMARK    3  A    between atoms: C_4  and  C_5
REMARK    4  A    between atoms: N_7  and  C_8
REMARK    5  A    between atoms: C_8  and  C_9
REMARK    6  A    between atoms: N_23  and  C_24
REMARK                            x       y       z     vdW  Elec       q    Type
REMARK                         _______ _______ _______ _____ _____    ______ ____
ROOT
ATOM      1  C   UNL     1       2.920   6.791  18.072  0.00  0.00    +0.000 A 
ATOM      2  C   UNL     1       4.154   7.012  17.491  0.00  0.00    +0.000 A 
ATOM      3  N   UNL     1       4.969   5.942  17.772  0.00  0.00    +0.000 N 
ATOM      4  C   UNL     1       4.296   5.036  18.570  0.00  0.00    +0.000 A 
ATOM      5  C   UNL     1       4.711   3.844  19.188  0.00  0.00    +0.000 A 
ATOM      6  C   UNL     1       3.758   3.097  19.891  0.00  0.00    +0.000 A 
ATOM      7  C   UNL     1       2.435   3.515  19.955  0.00  0.00    +0.000 A 
ATOM      8 CL   UNL     1       1.270   2.551  20.780  0.00  0.00    +0.000 Cl
ATOM      9  C   UNL     1       2.032   4.712  19.365  0.00  0.00    +0.000 A 
ATOM     10  C   UNL     1       2.983   5.504  18.688  0.00  0.00    +0.000 A 
ENDROOT
BRANCH   1  11
ATOM     11  C   UNL     1       1.746   7.715  18.049  0.00  0.00    +0.000 C 
BRANCH  11  12
ATOM     12  C   UNL     1       2.146   9.167  17.773  0.00  0.00    +0.000 C 
BRANCH  12  14
ATOM     13  O   UNL     1       1.346  11.302  18.519  0.00  0.00    +0.000 OA
ATOM     14  C   UNL     1       1.482  10.109  18.760  0.00  0.00    +0.000 C 
ATOM     15  N   UNL     1       1.083   9.458  19.918  0.00  0.00    +0.000 N 
ATOM     16  H   UNL     1       1.392   8.501  20.047  0.00  0.00    +0.000 HD
BRANCH  15  17
ATOM     17  C   UNL     1       0.389  10.048  21.002  0.00  0.00    +0.000 A 
ATOM     18  C   UNL     1       0.059  11.399  21.057  0.00  0.00    +0.000 A 
ATOM     19  C   UNL     1      -0.594  11.877  22.181  0.00  0.00    +0.000 A 
ATOM     20  N   UNL     1      -0.937  11.108  23.233  0.00  0.00    +0.000 NA
ATOM     21  C   UNL     1      -0.628   9.799  23.148  0.00  0.00    +0.000 A 
ATOM     22  C   UNL     1       0.016   9.223  22.064  0.00  0.00    +0.000 A 
ENDBRANCH  15  17
ENDBRANCH  12  14
ENDBRANCH  11  12
ENDBRANCH   1  11
BRANCH   3  23
ATOM     23  C   UNL     1       6.320   5.786  17.233  0.00  0.00    +0.000 C 
BRANCH  23  24
ATOM     24  C   UNL     1       6.280   5.212  15.839  0.00  0.00    +0.000 A 
ATOM     25  C   UNL     1       5.235   4.359  15.450  0.00  0.00    +0.000 A 
ATOM     26  C   UNL     1       5.279   3.702  14.220  0.00  0.00    +0.000 A 
ATOM     27  C   UNL     1       6.360   3.903  13.365  0.00  0.00    +0.000 A 
ATOM     28 CL   UNL     1       6.460   3.020  11.894  0.00  0.00    +0.000 Cl
ATOM     29  C   UNL     1       7.374   4.795  13.709  0.00  0.00    +0.000 A 
ATOM     30  C   UNL     1       7.331   5.451  14.938  0.00  0.00    +0.000 A 
ENDBRANCH  23  24
ENDBRANCH   3  23
TORSDOF 6
ENDMDL
MODEL 6
REMARK VINA RESULT:      -8.0      4.979     10.114
REMARK  Name = 
REMARK  6 active torsions:
REMARK  status: ('A' for Active; 'I' for Inactive)
REMARK    1  A    between atoms: C_2  and  C_3
REMARK    2  A    between atoms: C_3  and  C_4
REMARK    3  A    between atoms: C_4  and  C_5
REMARK    4  A    between atoms: N_7  and  C_8
REMARK    5  A    between atoms: C_8  and  C_9
REMARK    6  A    between atoms: N_23  and  C_24
REMARK                            x       y       z     vdW  Elec       q    Type
REMARK                         _______ _______ _______ _____ _____    ______ ____
ROOT
ATOM      1  C   UNL     1       0.325   9.827  18.612  0.00  0.00    +0.000 A 
ATOM      2  C   UNL     1       1.313   8.920  18.284  0.00  0.00    +0.000 A 
ATOM      3  N   UNL     1       1.806   8.371  19.443  0.00  0.00    +0.000 N 
ATOM      4  C   UNL     1       1.179   8.941  20.536  0.00  0.00    +0.000 A 
ATOM      5  C   UNL     1       1.382   8.786  21.918  0.00  0.00    +0.000 A 
ATOM      6  C   UNL     1       0.524   9.463  22.793  0.00  0.00    +0.000 A 
ATOM      7  C   UNL     1      -0.514  10.246  22.304  0.00  0.00    +0.000 A 
ATOM      8 CL   UNL     1      -1.591  11.024  23.401  0.00  0.00    +0.000 Cl
ATOM      9  C   UNL     1      -0.696  10.420  20.933  0.00  0.00    +0.000 A 
ATOM     10  C   UNL     1       0.183   9.784  20.032  0.00  0.00    +0.000 A 
ENDROOT
BRANCH   1  11
ATOM     11  C   UNL     1      -0.452  10.680  17.661  0.00  0.00    +0.000 C 
BRANCH  11  12
ATOM     12  C   UNL     1      -1.855  10.129  17.389  0.00  0.00    +0.000 C 
BRANCH  12  14
ATOM     13  O   UNL     1      -2.639  12.022  18.635  0.00  0.00    +0.000 OA
ATOM     14  C   UNL     1      -2.920  11.070  17.919  0.00  0.00    +0.000 C 
ATOM     15  N   UNL     1      -4.194  10.707  17.505  0.00  0.00    +0.000 N 
ATOM     16  H   UNL     1      -4.296   9.812  17.039  0.00  0.00    +0.000 HD
BRANCH  15  17
ATOM     17  C   UNL     1      -5.388  11.413  17.787  0.00  0.00    +0.000 A 
ATOM     18  C   UNL     1      -5.833  12.498  17.040  0.00  0.00    +0.000 A 
ATOM     19  C   UNL     1      -7.000  13.136  17.424  0.00  0.00    +0.000 A 
ATOM     20  N   UNL     1      -7.743  12.764  18.486  0.00  0.00    +0.000 NA
ATOM     21  C   UNL     1      -7.306  11.696  19.183  0.00  0.00    +0.000 A 
ATOM     22  C   UNL     1      -6.156  10.987  18.873  0.00  0.00    +0.000 A 
ENDBRANCH  15  17
ENDBRANCH  12  14
ENDBRANCH  11  12
ENDBRANCH   1  11
BRANCH   3  23
ATOM     23  C   UNL     1       2.797   7.295  19.476  0.00  0.00    +0.000 C 
BRANCH  23  24
ATOM     24  C   UNL     1       2.138   5.951  19.296  0.00  0.00    +0.000 A 
ATOM     25  C   UNL     1       1.611   5.263  20.400  0.00  0.00    +0.000 A 
ATOM     26  C   UNL     1       1.146   3.955  20.262  0.00  0.00    +0.000 A 
ATOM     27  C   UNL     1       1.192   3.330  19.018  0.00  0.00    +0.000 A 
ATOM     28 CL   UNL     1       0.710   1.687  18.869  0.00  0.00    +0.000 Cl
ATOM     29  C   UNL     1       1.655   4.021  17.899  0.00  0.00    +0.000 A 
ATOM     30  C   UNL     1       2.120   5.329  18.037  0.00  0.00    +0.000 A 
ENDBRANCH  23  24
ENDBRANCH   3  23
TORSDOF 6
ENDMDL
MODEL 7
REMARK VINA RESULT:      -8.0      4.535      6.452
REMARK  Name = 
REMARK  6 active torsions:
REMARK  status: ('A' for Active; 'I' for Inactive)
REMARK    1  A    between atoms: C_2  and  C_3
REMARK    2  A    between atoms: C_3  and  C_4
REMARK    3  A    between atoms: C_4  and  C_5
REMARK    4  A    between atoms: N_7  and  C_8
REMARK    5  A    between atoms: C_8  and  C_9
REMARK    6  A    between atoms: N_23  and  C_24
REMARK                            x       y       z     vdW  Elec       q    Type
REMARK                         _______ _______ _______ _____ _____    ______ ____
ROOT
ATOM      1  C   UNL     1       7.103   6.292  17.987  0.00  0.00    +0.000 A 
ATOM      2  C   UNL     1       6.163   5.848  18.896  0.00  0.00    +0.000 A 
ATOM      3  N   UNL     1       5.307   4.985  18.256  0.00  0.00    +0.000 N 
ATOM      4  C   UNL     1       5.650   4.889  16.920  0.00  0.00    +0.000 A 
ATOM      5  C   UNL     1       5.046   4.215  15.844  0.00  0.00    +0.000 A 
ATOM      6  C   UNL     1       5.683   4.254  14.598  0.00  0.00    +0.000 A 
ATOM      7  C   UNL     1       6.891   4.921  14.439  0.00  0.00    +0.000 A 
ATOM      8 CL   UNL     1       7.682   4.908  12.909  0.00  0.00    +0.000 Cl
ATOM      9  C   UNL     1       7.473   5.612  15.501  0.00  0.00    +0.000 A 
ATOM     10  C   UNL     1       6.828   5.625  16.755  0.00  0.00    +0.000 A 
ENDROOT
BRANCH   1  11
ATOM     11  C   UNL     1       8.201   7.272  18.248  0.00  0.00    +0.000 C 
BRANCH  11  12
ATOM     12  C   UNL     1       7.858   8.682  17.759  0.00  0.00    +0.000 C 
BRANCH  12  14
ATOM     13  O   UNL     1       9.187   9.544  19.561  0.00  0.00    +0.000 OA
ATOM     14  C   UNL     1       8.735   9.719  18.437  0.00  0.00    +0.000 C 
ATOM     15  N   UNL     1       8.931  10.839  17.642  0.00  0.00    +0.000 N 
ATOM     16  H   UNL     1       8.377  10.915  16.796  0.00  0.00    +0.000 HD
BRANCH  15  17
ATOM     17  C   UNL     1       9.742  11.953  17.969  0.00  0.00    +0.000 A 
ATOM     18  C   UNL     1      11.126  11.963  17.823  0.00  0.00    +0.000 A 
ATOM     19  C   UNL     1      11.825  13.097  18.203  0.00  0.00    +0.000 A 
ATOM     20  N   UNL     1      11.243  14.203  18.707  0.00  0.00    +0.000 NA
ATOM     21  C   UNL     1       9.899  14.179  18.819  0.00  0.00    +0.000 A 
ATOM     22  C   UNL     1       9.111  13.098  18.458  0.00  0.00    +0.000 A 
ENDBRANCH  15  17
ENDBRANCH  12  14
ENDBRANCH  11  12
ENDBRANCH   1  11
BRANCH   3  23
ATOM     23  C   UNL     1       4.244   4.242  18.933  0.00  0.00    +0.000 C 
BRANCH  23  24
ATOM     24  C   UNL     1       3.179   5.178  19.449  0.00  0.00    +0.000 A 
ATOM     25  C   UNL     1       3.054   6.473  18.923  0.00  0.00    +0.000 A 
ATOM     26  C   UNL     1       2.179   7.390  19.505  0.00  0.00    +0.000 A 
ATOM     27  C   UNL     1       1.414   7.016  20.607  0.00  0.00    +0.000 A 
ATOM     28 CL   UNL     1       0.409   8.176  21.382  0.00  0.00    +0.000 Cl
ATOM     29  C   UNL     1       1.480   5.716  21.102  0.00  0.00    +0.000 A 
ATOM     30  C   UNL     1       2.355   4.798  20.521  0.00  0.00    +0.000 A 
ENDBRANCH  23  24
ENDBRANCH   3  23
TORSDOF 6
ENDMDL
MODEL 8
REMARK VINA RESULT:      -7.9      3.490      8.607
REMARK  Name = 
REMARK  6 active torsions:
REMARK  status: ('A' for Active; 'I' for Inactive)
REMARK    1  A    between atoms: C_2  and  C_3
REMARK    2  A    between atoms: C_3  and  C_4
REMARK    3  A    between atoms: C_4  and  C_5
REMARK    4  A    between atoms: N_7  and  C_8
REMARK    5  A    between atoms: C_8  and  C_9
REMARK    6  A    between atoms: N_23  and  C_24
REMARK                            x       y       z     vdW  Elec       q    Type
REMARK                         _______ _______ _______ _____ _____    ______ ____
ROOT
ATOM      1  C   UNL     1       3.079   7.140  17.807  0.00  0.00    +0.000 A 
ATOM      2  C   UNL     1       4.366   7.236  17.316  0.00  0.00    +0.000 A 
ATOM      3  N   UNL     1       5.083   6.147  17.749  0.00  0.00    +0.000 N 
ATOM      4  C   UNL     1       4.290   5.354  18.556  0.00  0.00    +0.000 A 
ATOM      5  C   UNL     1       4.573   4.195  19.300  0.00  0.00    +0.000 A 
ATOM      6  C   UNL     1       3.519   3.570  19.977  0.00  0.00    +0.000 A 
ATOM      7  C   UNL     1       2.226   4.071  19.896  0.00  0.00    +0.000 A 
ATOM      8 CL   UNL     1       0.937   3.252  20.694  0.00  0.00    +0.000 Cl
ATOM      9  C   UNL     1       1.953   5.236  19.181  0.00  0.00    +0.000 A 
ATOM     10  C   UNL     1       3.006   5.909  18.526  0.00  0.00    +0.000 A 
ENDROOT
BRANCH   1  11
ATOM     11  C   UNL     1       1.975   8.128  17.611  0.00  0.00    +0.000 C 
BRANCH  11  12
ATOM     12  C   UNL     1       2.049   9.295  18.601  0.00  0.00    +0.000 C 
BRANCH  12  14
ATOM     13  O   UNL     1       0.328   9.311  20.272  0.00  0.00    +0.000 OA
ATOM     14  C   UNL     1       0.673   9.634  19.143  0.00  0.00    +0.000 C 
ATOM     15  N   UNL     1      -0.101  10.320  18.217  0.00  0.00    +0.000 N 
ATOM     16  H   UNL     1       0.256  10.390  17.271  0.00  0.00    +0.000 HD
BRANCH  15  17
ATOM     17  C   UNL     1      -1.406  10.821  18.439  0.00  0.00    +0.000 A 
ATOM     18  C   UNL     1      -2.538  10.323  17.804  0.00  0.00    +0.000 A 
ATOM     19  C   UNL     1      -3.764  10.910  18.072  0.00  0.00    +0.000 A 
ATOM     20  N   UNL     1      -3.930  11.942  18.923  0.00  0.00    +0.000 NA
ATOM     21  C   UNL     1      -2.823  12.395  19.544  0.00  0.00    +0.000 A 
ATOM     22  C   UNL     1      -1.555  11.869  19.349  0.00  0.00    +0.000 A 
ENDBRANCH  15  17
ENDBRANCH  12  14
ENDBRANCH  11  12
ENDBRANCH   1  11
BRANCH   3  23
ATOM     23  C   UNL     1       6.459   5.863  17.340  0.00  0.00    +0.000 C 
BRANCH  23  24
ATOM     24  C   UNL     1       6.487   5.103  16.037  0.00  0.00    +0.000 A 
ATOM     25  C   UNL     1       7.365   5.482  15.011  0.00  0.00    +0.000 A 
ATOM     26  C   UNL     1       7.283   4.885  13.753  0.00  0.00    +0.000 A 
ATOM     27  C   UNL     1       6.331   3.896  13.517  0.00  0.00    +0.000 A 
ATOM     28 CL   UNL     1       6.166   3.229  11.940  0.00  0.00    +0.000 Cl
ATOM     29  C   UNL     1       5.493   3.464  14.543  0.00  0.00    +0.000 A 
ATOM     30  C   UNL     1       5.576   4.061  15.800  0.00  0.00    +0.000 A 
ENDBRANCH  23  24
ENDBRANCH   3  23
TORSDOF 6
ENDMDL
MODEL 9
REMARK VINA RESULT:      -7.9      3.997      6.821
REMARK  Name = 
REMARK  6 active torsions:
REMARK  status: ('A' for Active; 'I' for Inactive)
REMARK    1  A    between atoms: C_2  and  C_3
REMARK    2  A    between atoms: C_3  and  C_4
REMARK    3  A    between atoms: C_4  and  C_5
REMARK    4  A    between atoms: N_7  and  C_8
REMARK    5  A    between atoms: C_8  and  C_9
REMARK    6  A    between atoms: N_23  and  C_24
REMARK                            x       y       z     vdW  Elec       q    Type
REMARK                         _______ _______ _______ _____ _____    ______ ____
ROOT
ATOM      1  C   UNL     1       5.959   6.376  17.016  0.00  0.00    +0.000 A 
ATOM      2  C   UNL     1       5.911   4.996  16.976  0.00  0.00    +0.000 A 
ATOM      3  N   UNL     1       4.630   4.594  17.267  0.00  0.00    +0.000 N 
ATOM      4  C   UNL     1       3.842   5.696  17.540  0.00  0.00    +0.000 A 
ATOM      5  C   UNL     1       2.507   5.812  17.966  0.00  0.00    +0.000 A 
ATOM      6  C   UNL     1       1.962   7.095  18.092  0.00  0.00    +0.000 A 
ATOM      7  C   UNL     1       2.715   8.220  17.782  0.00  0.00    +0.000 A 
ATOM      8 CL   UNL     1       2.004   9.785  17.892  0.00  0.00    +0.000 Cl
ATOM      9  C   UNL     1       4.047   8.104  17.387  0.00  0.00    +0.000 A 
ATOM     10  C   UNL     1       4.633   6.824  17.295  0.00  0.00    +0.000 A 
ENDROOT
BRANCH   1  11
ATOM     11  C   UNL     1       7.165   7.232  16.798  0.00  0.00    +0.000 C 
BRANCH  11  12
ATOM     12  C   UNL     1       7.923   7.522  18.098  0.00  0.00    +0.000 C 
BRANCH  12  14
ATOM     13  O   UNL     1       7.685   9.836  17.515  0.00  0.00    +0.000 OA
ATOM     14  C   UNL     1       8.226   9.002  18.229  0.00  0.00    +0.000 C 
ATOM     15  N   UNL     1       9.165   9.259  19.219  0.00  0.00    +0.000 N 
ATOM     16  H   UNL     1       9.640   8.463  19.630  0.00  0.00    +0.000 HD
BRANCH  15  17
ATOM     17  C   UNL     1       9.616  10.539  19.619  0.00  0.00    +0.000 A 
ATOM     18  C   UNL     1       9.296  11.117  20.844  0.00  0.00    +0.000 A 
ATOM     19  C   UNL     1       9.766  12.390  21.120  0.00  0.00    +0.000 A 
ATOM     20  N   UNL     1      10.524  13.111  20.270  0.00  0.00    +0.000 NA
ATOM     21  C   UNL     1      10.840  12.523  19.098  0.00  0.00    +0.000 A 
ATOM     22  C   UNL     1      10.426  11.251  18.734  0.00  0.00    +0.000 A 
ENDBRANCH  15  17
ENDBRANCH  12  14
ENDBRANCH  11  12
ENDBRANCH   1  11
BRANCH   3  23
ATOM     23  C   UNL     1       4.184   3.201  17.218  0.00  0.00    +0.000 C 
BRANCH  23  24
ATOM     24  C   UNL     1       3.422   2.836  18.467  0.00  0.00    +0.000 A 
ATOM     25  C   UNL     1       2.052   2.540  18.404  0.00  0.00    +0.000 A 
ATOM     26  C   UNL     1       1.313   2.359  19.573  0.00  0.00    +0.000 A 
ATOM     27  C   UNL     1       1.940   2.460  20.812  0.00  0.00    +0.000 A 
ATOM     28 CL   UNL     1       1.010   2.334  22.253  0.00  0.00    +0.000 Cl
ATOM     29  C   UNL     1       3.312   2.691  20.891  0.00  0.00    +0.000 A 
ATOM     30  C   UNL     1       4.051   2.872  19.722  0.00  0.00    +0.000 A 
ENDBRANCH  23  24
ENDBRANCH   3  23
TORSDOF 6
ENDMDL
