MODEL 1
REMARK VINA RESULT:      -9.1      0.000      0.000
REMARK  Name = 
REMARK  7 active torsions:
REMARK  status: ('A' for Active; 'I' for Inactive)
REMARK    1  A    between atoms: C_1  and  O_2
REMARK    2  A    between atoms: O_2  and  C_3
REMARK    3  A    between atoms: C_6  and  O_7
REMARK    4  A    between atoms: O_7  and  C_8
REMARK    5  A    between atoms: N_13  and  C_14
REMARK    6  A    between atoms: C_14  and  C_15
REMARK    7  A    between atoms: C_20  and  C_21
REMARK                            x       y       z     vdW  Elec       q    Type
REMARK                         _______ _______ _______ _____ _____    ______ ____
ROOT
ATOM      1  C   UNL     1       0.969   9.793  19.774  0.00  0.00    +0.000 A 
ATOM      2  C   UNL     1       0.771   9.105  20.902  0.00  0.00    +0.000 A 
ATOM      3 CL   UNL     1      -0.062   9.710  22.274  0.00  0.00    +0.000 Cl
ATOM      4  C   UNL     1       1.344   7.753  21.002  0.00  0.00    +0.000 A 
ATOM      5  N   UNL     1       2.075   7.183  20.112  0.00  0.00    +0.000 NA
ATOM      6  N   UNL     1       2.282   7.879  18.940  0.00  0.00    +0.000 N 
ATOM      7  C   UNL     1       1.641   9.089  18.632  0.00  0.00    +0.000 A 
ATOM      8  O   UNL     1       1.635   9.567  17.502  0.00  0.00    +0.000 OA
ENDROOT
BRANCH   1   9
ATOM      9  O   UNL     1       0.455  11.085  19.644  0.00  0.00    +0.000 OA
BRANCH   9  13
ATOM     10  C   UNL     1      -3.563  11.814  18.772  0.00  0.00    +0.000 A 
ATOM     11  C   UNL     1      -2.905  12.476  19.812  0.00  0.00    +0.000 A 
ATOM     12  C   UNL     1      -1.556  12.220  20.071  0.00  0.00    +0.000 A 
ATOM     13  C   UNL     1      -0.861  11.284  19.303  0.00  0.00    +0.000 A 
ATOM     14  C   UNL     1      -1.504  10.651  18.238  0.00  0.00    +0.000 A 
ATOM     15  C   UNL     1      -2.859  10.897  17.991  0.00  0.00    +0.000 A 
BRANCH  10  17
ATOM     16  C   UNL     1      -5.476  11.782  17.386  0.00  0.00    +0.000 C 
ATOM     17  O   UNL     1      -4.891  12.115  18.638  0.00  0.00    +0.000 OA
ENDBRANCH  10  17
ENDBRANCH   9  13
ENDBRANCH   1   9
BRANCH   6  18
ATOM     18  C   UNL     1       3.076   7.208  17.909  0.00  0.00    +0.000 C 
BRANCH  18  19
ATOM     19  C   UNL     1       3.049   5.680  17.918  0.00  0.00    +0.000 A 
ATOM     20  C   UNL     1       1.820   5.002  17.749  0.00  0.00    +0.000 A 
ATOM     21  C   UNL     1       1.755   3.609  17.678  0.00  0.00    +0.000 A 
ATOM     22  C   UNL     1       2.916   2.863  17.797  0.00  0.00    +0.000 A 
ATOM     23  C   UNL     1       4.136   3.508  18.004  0.00  0.00    +0.000 A 
ATOM     24  C   UNL     1       4.249   4.919  18.064  0.00  0.00    +0.000 A 
BRANCH  24  25
ATOM     25  C   UNL     1       5.612   5.515  18.216  0.00  0.00    +0.000 A 
ATOM     26  C   UNL     1       6.121   6.398  17.241  0.00  0.00    +0.000 A 
ATOM     27  C   UNL     1       7.373   7.009  17.377  0.00  0.00    +0.000 A 
ATOM     28  C   UNL     1       8.138   6.783  18.514  0.00  0.00    +0.000 A 
ATOM     29  C   UNL     1       7.680   5.895  19.480  0.00  0.00    +0.000 A 
ATOM     30  C   UNL     1       6.456   5.239  19.305  0.00  0.00    +0.000 A 
ENDBRANCH  24  25
ENDBRANCH  18  19
ENDBRANCH   6  18
TORSDOF 6
ENDMDL
MODEL 2
REMARK VINA RESULT:      -8.9      1.274      1.787
REMARK  Name = 
REMARK  7 active torsions:
REMARK  status: ('A' for Active; 'I' for Inactive)
REMARK    1  A    between atoms: C_1  and  O_2
REMARK    2  A    between atoms: O_2  and  C_3
REMARK    3  A    between atoms: C_6  and  O_7
REMARK    4  A    between atoms: O_7  and  C_8
REMARK    5  A    between atoms: N_13  and  C_14
REMARK    6  A    between atoms: C_14  and  C_15
REMARK    7  A    between atoms: C_20  and  C_21
REMARK                            x       y       z     vdW  Elec       q    Type
REMARK                         _______ _______ _______ _____ _____    ______ ____
ROOT
ATOM      1  C   UNL     1       1.074   9.473  19.328  0.00  0.00    +0.000 A 
ATOM      2  C   UNL     1       0.770   9.118  20.580  0.00  0.00    +0.000 A 
ATOM      3 CL   UNL     1      -0.156  10.075  21.662  0.00  0.00    +0.000 Cl
ATOM      4  C   UNL     1       1.302   7.844  21.090  0.00  0.00    +0.000 A 
ATOM      5  N   UNL     1       2.088   7.053  20.452  0.00  0.00    +0.000 NA
ATOM      6  N   UNL     1       2.405   7.403  19.156  0.00  0.00    +0.000 N 
ATOM      7  C   UNL     1       1.818   8.484  18.480  0.00  0.00    +0.000 A 
ATOM      8  O   UNL     1       1.914   8.637  17.266  0.00  0.00    +0.000 OA
ENDROOT
BRANCH   1   9
ATOM      9  O   UNL     1       0.602  10.681  18.810  0.00  0.00    +0.000 OA
BRANCH   9  13
ATOM     10  C   UNL     1      -3.382  10.966  17.591  0.00  0.00    +0.000 A 
ATOM     11  C   UNL     1      -2.525   9.986  17.081  0.00  0.00    +0.000 A 
ATOM     12  C   UNL     1      -1.201   9.908  17.518  0.00  0.00    +0.000 A 
ATOM     13  C   UNL     1      -0.718  10.824  18.455  0.00  0.00    +0.000 A 
ATOM     14  C   UNL     1      -1.581  11.778  18.997  0.00  0.00    +0.000 A 
ATOM     15  C   UNL     1      -2.902  11.865  18.544  0.00  0.00    +0.000 A 
BRANCH  10  17
ATOM     16  C   UNL     1      -5.508  11.996  17.533  0.00  0.00    +0.000 C 
ATOM     17  O   UNL     1      -4.642  10.971  17.060  0.00  0.00    +0.000 OA
ENDBRANCH  10  17
ENDBRANCH   9  13
ENDBRANCH   1   9
BRANCH   6  18
ATOM     18  C   UNL     1       3.262   6.477  18.417  0.00  0.00    +0.000 C 
BRANCH  18  19
ATOM     19  C   UNL     1       2.812   5.017  18.378  0.00  0.00    +0.000 A 
ATOM     20  C   UNL     1       1.577   4.651  18.961  0.00  0.00    +0.000 A 
ATOM     21  C   UNL     1       1.090   3.345  18.888  0.00  0.00    +0.000 A 
ATOM     22  C   UNL     1       1.838   2.371  18.248  0.00  0.00    +0.000 A 
ATOM     23  C   UNL     1       3.078   2.699  17.699  0.00  0.00    +0.000 A 
ATOM     24  C   UNL     1       3.601   4.015  17.735  0.00  0.00    +0.000 A 
BRANCH  24  25
ATOM     25  C   UNL     1       4.905   4.278  17.054  0.00  0.00    +0.000 A 
ATOM     26  C   UNL     1       4.972   4.382  15.649  0.00  0.00    +0.000 A 
ATOM     27  C   UNL     1       6.169   4.675  14.984  0.00  0.00    +0.000 A 
ATOM     28  C   UNL     1       7.329   4.911  15.711  0.00  0.00    +0.000 A 
ATOM     29  C   UNL     1       7.305   4.786  17.095  0.00  0.00    +0.000 A 
ATOM     30  C   UNL     1       6.119   4.430  17.746  0.00  0.00    +0.000 A 
ENDBRANCH  24  25
ENDBRANCH  18  19
ENDBRANCH   6  18
TORSDOF 6
ENDMDL
MODEL 3
REMARK VINA RESULT:      -8.9      0.528      1.345
REMARK  Name = 
REMARK  7 active torsions:
REMARK  status: ('A' for Active; 'I' for Inactive)
REMARK    1  A    between atoms: C_1  and  O_2
REMARK    2  A    between atoms: O_2  and  C_3
REMARK    3  A    between atoms: C_6  and  O_7
REMARK    4  A    between atoms: O_7  and  C_8
REMARK    5  A    between atoms: N_13  and  C_14
REMARK    6  A    between atoms: C_14  and  C_15
REMARK    7  A    between atoms: C_20  and  C_21
REMARK                            x       y       z     vdW  Elec       q    Type
REMARK                         _______ _______ _______ _____ _____    ______ ____
ROOT
ATOM      1  C   UNL     1       0.683   9.896  19.690  0.00  0.00    +0.000 A 
ATOM      2  C   UNL     1       0.498   9.251  20.844  0.00  0.00    +0.000 A 
ATOM      3 CL   UNL     1      -0.421   9.860  22.159  0.00  0.00    +0.000 Cl
ATOM      4  C   UNL     1       1.163   7.951  21.029  0.00  0.00    +0.000 A 
ATOM      5  N   UNL     1       1.961   7.394  20.190  0.00  0.00    +0.000 NA
ATOM      6  N   UNL     1       2.156   8.045  18.991  0.00  0.00    +0.000 N 
ATOM      7  C   UNL     1       1.440   9.189  18.604  0.00  0.00    +0.000 A 
ATOM      8  O   UNL     1       1.437   9.610  17.452  0.00  0.00    +0.000 OA
ENDROOT
BRANCH   1   9
ATOM      9  O   UNL     1       0.083  11.140  19.479  0.00  0.00    +0.000 OA
BRANCH   9  13
ATOM     10  C   UNL     1      -3.917  11.267  18.285  0.00  0.00    +0.000 A 
ATOM     11  C   UNL     1      -3.010  10.365  17.723  0.00  0.00    +0.000 A 
ATOM     12  C   UNL     1      -1.681  10.337  18.152  0.00  0.00    +0.000 A 
ATOM     13  C   UNL     1      -1.245  11.228  19.135  0.00  0.00    +0.000 A 
ATOM     14  C   UNL     1      -2.157  12.103  19.728  0.00  0.00    +0.000 A 
ATOM     15  C   UNL     1      -3.483  12.140  19.283  0.00  0.00    +0.000 A 
BRANCH  10  17
ATOM     16  C   UNL     1      -6.181  10.664  18.594  0.00  0.00    +0.000 C 
ATOM     17  O   UNL     1      -5.178  11.230  17.758  0.00  0.00    +0.000 OA
ENDBRANCH  10  17
ENDBRANCH   9  13
ENDBRANCH   1   9
BRANCH   6  18
ATOM     18  C   UNL     1       3.028   7.385  18.019  0.00  0.00    +0.000 C 
BRANCH  18  19
ATOM     19  C   UNL     1       2.990   5.857  17.999  0.00  0.00    +0.000 A 
ATOM     20  C   UNL     1       1.754   5.192  17.829  0.00  0.00    +0.000 A 
ATOM     21  C   UNL     1       1.677   3.802  17.732  0.00  0.00    +0.000 A 
ATOM     22  C   UNL     1       2.833   3.045  17.825  0.00  0.00    +0.000 A 
ATOM     23  C   UNL     1       4.060   3.676  18.031  0.00  0.00    +0.000 A 
ATOM     24  C   UNL     1       4.185   5.084  18.118  0.00  0.00    +0.000 A 
BRANCH  24  25
ATOM     25  C   UNL     1       5.554   5.667  18.267  0.00  0.00    +0.000 A 
ATOM     26  C   UNL     1       6.367   5.316  19.364  0.00  0.00    +0.000 A 
ATOM     27  C   UNL     1       7.669   5.808  19.508  0.00  0.00    +0.000 A 
ATOM     28  C   UNL     1       8.212   6.636  18.533  0.00  0.00    +0.000 A 
ATOM     29  C   UNL     1       7.427   7.026  17.454  0.00  0.00    +0.000 A 
ATOM     30  C   UNL     1       6.104   6.581  17.353  0.00  0.00    +0.000 A 
ENDBRANCH  24  25
ENDBRANCH  18  19
ENDBRANCH   6  18
TORSDOF 6
ENDMDL
MODEL 4
REMARK VINA RESULT:      -8.9      1.209      1.441
REMARK  Name = 
REMARK  7 active torsions:
REMARK  status: ('A' for Active; 'I' for Inactive)
REMARK    1  A    between atoms: C_1  and  O_2
REMARK    2  A    between atoms: O_2  and  C_3
REMARK    3  A    between atoms: C_6  and  O_7
REMARK    4  A    between atoms: O_7  and  C_8
REMARK    5  A    between atoms: N_13  and  C_14
REMARK    6  A    between atoms: C_14  and  C_15
REMARK    7  A    between atoms: C_20  and  C_21
REMARK                            x       y       z     vdW  Elec       q    Type
REMARK                         _______ _______ _______ _____ _____    ______ ____
ROOT
ATOM      1  C   UNL     1       1.162   9.413  19.421  0.00  0.00    +0.000 A 
ATOM      2  C   UNL     1       0.956   8.947  20.655  0.00  0.00    +0.000 A 
ATOM      3 CL   UNL     1       0.181   9.828  21.908  0.00  0.00    +0.000 Cl
ATOM      4  C   UNL     1       1.467   7.607  20.988  0.00  0.00    +0.000 A 
ATOM      5  N   UNL     1       2.150   6.852  20.204  0.00  0.00    +0.000 NA
ATOM      6  N   UNL     1       2.365   7.318  18.924  0.00  0.00    +0.000 N 
ATOM      7  C   UNL     1       1.775   8.485  18.414  0.00  0.00    +0.000 A 
ATOM      8  O   UNL     1       1.768   8.754  17.217  0.00  0.00    +0.000 OA
ENDROOT
BRANCH   1   9
ATOM      9  O   UNL     1       0.707  10.686  19.069  0.00  0.00    +0.000 OA
BRANCH   9  13
ATOM     10  C   UNL     1      -3.329  11.479  18.349  0.00  0.00    +0.000 A 
ATOM     11  C   UNL     1      -2.592  12.209  19.285  0.00  0.00    +0.000 A 
ATOM     12  C   UNL     1      -1.240  11.929  19.494  0.00  0.00    +0.000 A 
ATOM     13  C   UNL     1      -0.619  10.901  18.781  0.00  0.00    +0.000 A 
ATOM     14  C   UNL     1      -1.342  10.197  17.816  0.00  0.00    +0.000 A 
ATOM     15  C   UNL     1      -2.700  10.468  17.621  0.00  0.00    +0.000 A 
BRANCH  10  17
ATOM     16  C   UNL     1      -5.174  12.566  19.347  0.00  0.00    +0.000 C 
ATOM     17  O   UNL     1      -4.652  11.815  18.258  0.00  0.00    +0.000 OA
ENDBRANCH  10  17
ENDBRANCH   9  13
ENDBRANCH   1   9
BRANCH   6  18
ATOM     18  C   UNL     1       3.104   6.436  18.020  0.00  0.00    +0.000 C 
BRANCH  18  19
ATOM     19  C   UNL     1       2.766   4.947  18.096  0.00  0.00    +0.000 A 
ATOM     20  C   UNL     1       1.516   4.540  18.617  0.00  0.00    +0.000 A 
ATOM     21  C   UNL     1       1.133   3.198  18.640  0.00  0.00    +0.000 A 
ATOM     22  C   UNL     1       2.002   2.231  18.163  0.00  0.00    +0.000 A 
ATOM     23  C   UNL     1       3.256   2.604  17.680  0.00  0.00    +0.000 A 
ATOM     24  C   UNL     1       3.678   3.955  17.622  0.00  0.00    +0.000 A 
BRANCH  24  25
ATOM     25  C   UNL     1       5.012   4.256  17.020  0.00  0.00    +0.000 A 
ATOM     26  C   UNL     1       5.174   4.297  15.620  0.00  0.00    +0.000 A 
ATOM     27  C   UNL     1       6.399   4.622  15.025  0.00  0.00    +0.000 A 
ATOM     28  C   UNL     1       7.490   4.956  15.817  0.00  0.00    +0.000 A 
ATOM     29  C   UNL     1       7.374   4.896  17.200  0.00  0.00    +0.000 A 
ATOM     30  C   UNL     1       6.163   4.507  17.786  0.00  0.00    +0.000 A 
ENDBRANCH  24  25
ENDBRANCH  18  19
ENDBRANCH   6  18
TORSDOF 6
ENDMDL
MODEL 5
REMARK VINA RESULT:      -8.8      0.852      1.415
REMARK  Name = 
REMARK  7 active torsions:
REMARK  status: ('A' for Active; 'I' for Inactive)
REMARK    1  A    between atoms: C_1  and  O_2
REMARK    2  A    between atoms: O_2  and  C_3
REMARK    3  A    between atoms: C_6  and  O_7
REMARK    4  A    between atoms: O_7  and  C_8
REMARK    5  A    between atoms: N_13  and  C_14
REMARK    6  A    between atoms: C_14  and  C_15
REMARK    7  A    between atoms: C_20  and  C_21
REMARK                            x       y       z     vdW  Elec       q    Type
REMARK                         _______ _______ _______ _____ _____    ______ ____
ROOT
ATOM      1  C   UNL     1       1.286   9.482  19.590  0.00  0.00    +0.000 A 
ATOM      2  C   UNL     1       1.059   8.921  20.781  0.00  0.00    +0.000 A 
ATOM      3 CL   UNL     1       0.352   9.733  22.116  0.00  0.00    +0.000 Cl
ATOM      4  C   UNL     1       1.486   7.527  20.986  0.00  0.00    +0.000 A 
ATOM      5  N   UNL     1       2.114   6.804  20.130  0.00  0.00    +0.000 NA
ATOM      6  N   UNL     1       2.350   7.367  18.894  0.00  0.00    +0.000 N 
ATOM      7  C   UNL     1       1.832   8.610  18.497  0.00  0.00    +0.000 A 
ATOM      8  O   UNL     1       1.833   8.986  17.329  0.00  0.00    +0.000 OA
ENDROOT
BRANCH   1   9
ATOM      9  O   UNL     1       0.911  10.807  19.358  0.00  0.00    +0.000 OA
BRANCH   9  13
ATOM     10  C   UNL     1      -3.099  11.692  18.601  0.00  0.00    +0.000 A 
ATOM     11  C   UNL     1      -2.396  10.757  17.837  0.00  0.00    +0.000 A 
ATOM     12  C   UNL     1      -1.059  10.472  18.123  0.00  0.00    +0.000 A 
ATOM     13  C   UNL     1      -0.409  11.138  19.164  0.00  0.00    +0.000 A 
ATOM     14  C   UNL     1      -1.119  12.043  19.955  0.00  0.00    +0.000 A 
ATOM     15  C   UNL     1      -2.453  12.338  19.655  0.00  0.00    +0.000 A 
BRANCH  10  17
ATOM     16  C   UNL     1      -4.788  11.266  17.004  0.00  0.00    +0.000 C 
ATOM     17  O   UNL     1      -4.388  11.917  18.204  0.00  0.00    +0.000 OA
ENDBRANCH  10  17
ENDBRANCH   9  13
ENDBRANCH   1   9
BRANCH   6  18
ATOM     18  C   UNL     1       3.024   6.525  17.905  0.00  0.00    +0.000 C 
BRANCH  18  19
ATOM     19  C   UNL     1       2.811   5.017  18.039  0.00  0.00    +0.000 A 
ATOM     20  C   UNL     1       1.501   4.488  17.981  0.00  0.00    +0.000 A 
ATOM     21  C   UNL     1       1.263   3.114  18.027  0.00  0.00    +0.000 A 
ATOM     22  C   UNL     1       2.329   2.239  18.153  0.00  0.00    +0.000 A 
ATOM     23  C   UNL     1       3.628   2.739  18.251  0.00  0.00    +0.000 A 
ATOM     24  C   UNL     1       3.916   4.124  18.192  0.00  0.00    +0.000 A 
BRANCH  24  25
ATOM     25  C   UNL     1       5.347   4.554  18.233  0.00  0.00    +0.000 A 
ATOM     26  C   UNL     1       5.862   5.226  19.360  0.00  0.00    +0.000 A 
ATOM     27  C   UNL     1       7.208   5.600  19.448  0.00  0.00    +0.000 A 
ATOM     28  C   UNL     1       8.089   5.276  18.424  0.00  0.00    +0.000 A 
ATOM     29  C   UNL     1       7.609   4.640  17.285  0.00  0.00    +0.000 A 
ATOM     30  C   UNL     1       6.248   4.329  17.178  0.00  0.00    +0.000 A 
ENDBRANCH  24  25
ENDBRANCH  18  19
ENDBRANCH   6  18
TORSDOF 6
ENDMDL
MODEL 6
REMARK VINA RESULT:      -8.8      1.412      1.715
REMARK  Name = 
REMARK  7 active torsions:
REMARK  status: ('A' for Active; 'I' for Inactive)
REMARK    1  A    between atoms: C_1  and  O_2
REMARK    2  A    between atoms: O_2  and  C_3
REMARK    3  A    between atoms: C_6  and  O_7
REMARK    4  A    between atoms: O_7  and  C_8
REMARK    5  A    between atoms: N_13  and  C_14
REMARK    6  A    between atoms: C_14  and  C_15
REMARK    7  A    between atoms: C_20  and  C_21
REMARK                            x       y       z     vdW  Elec       q    Type
REMARK                         _______ _______ _______ _____ _____    ______ ____
ROOT
ATOM      1  C   UNL     1       0.781   9.691  19.431  0.00  0.00    +0.000 A 
ATOM      2  C   UNL     1       0.554   9.590  20.743  0.00  0.00    +0.000 A 
ATOM      3 CL   UNL     1      -0.347  10.724  21.662  0.00  0.00    +0.000 Cl
ATOM      4  C   UNL     1       1.154   8.458  21.469  0.00  0.00    +0.000 A 
ATOM      5  N   UNL     1       1.933   7.572  20.958  0.00  0.00    +0.000 NA
ATOM      6  N   UNL     1       2.171   7.660  19.603  0.00  0.00    +0.000 N 
ATOM      7  C   UNL     1       1.514   8.568  18.757  0.00  0.00    +0.000 A 
ATOM      8  O   UNL     1       1.542   8.473  17.535  0.00  0.00    +0.000 OA
ENDROOT
BRANCH   1   9
ATOM      9  O   UNL     1       0.243  10.758  18.708  0.00  0.00    +0.000 OA
BRANCH   9  13
ATOM     10  C   UNL     1      -3.787  10.846  17.617  0.00  0.00    +0.000 A 
ATOM     11  C   UNL     1      -3.255  11.754  18.536  0.00  0.00    +0.000 A 
ATOM     12  C   UNL     1      -1.899  11.708  18.872  0.00  0.00    +0.000 A 
ATOM     13  C   UNL     1      -1.070  10.738  18.303  0.00  0.00    +0.000 A 
ATOM     14  C   UNL     1      -1.590   9.856  17.355  0.00  0.00    +0.000 A 
ATOM     15  C   UNL     1      -2.951   9.894  17.034  0.00  0.00    +0.000 A 
BRANCH  10  17
ATOM     16  C   UNL     1      -5.618  12.287  17.218  0.00  0.00    +0.000 C 
ATOM     17  O   UNL     1      -5.132  10.962  17.398  0.00  0.00    +0.000 OA
ENDBRANCH  10  17
ENDBRANCH   9  13
ENDBRANCH   1   9
BRANCH   6  18
ATOM     18  C   UNL     1       3.020   6.622  19.017  0.00  0.00    +0.000 C 
BRANCH  18  19
ATOM     19  C   UNL     1       2.623   5.175  19.306  0.00  0.00    +0.000 A 
ATOM     20  C   UNL     1       1.449   4.907  20.047  0.00  0.00    +0.000 A 
ATOM     21  C   UNL     1       1.008   3.603  20.275  0.00  0.00    +0.000 A 
ATOM     22  C   UNL     1       1.744   2.536  19.786  0.00  0.00    +0.000 A 
ATOM     23  C   UNL     1       2.927   2.774  19.086  0.00  0.00    +0.000 A 
ATOM     24  C   UNL     1       3.402   4.081  18.818  0.00  0.00    +0.000 A 
BRANCH  24  25
ATOM     25  C   UNL     1       4.642   4.231  17.996  0.00  0.00    +0.000 A 
ATOM     26  C   UNL     1       4.592   4.108  16.593  0.00  0.00    +0.000 A 
ATOM     27  C   UNL     1       5.726   4.288  15.792  0.00  0.00    +0.000 A 
ATOM     28  C   UNL     1       6.939   4.637  16.373  0.00  0.00    +0.000 A 
ATOM     29  C   UNL     1       7.031   4.737  17.756  0.00  0.00    +0.000 A 
ATOM     30  C   UNL     1       5.906   4.491  18.552  0.00  0.00    +0.000 A 
ENDBRANCH  24  25
ENDBRANCH  18  19
ENDBRANCH   6  18
TORSDOF 6
ENDMDL
MODEL 7
REMARK VINA RESULT:      -8.7      1.026      3.315
REMARK  Name = 
REMARK  7 active torsions:
REMARK  status: ('A' for Active; 'I' for Inactive)
REMARK    1  A    between atoms: C_1  and  O_2
REMARK    2  A    between atoms: O_2  and  C_3
REMARK    3  A    between atoms: C_6  and  O_7
REMARK    4  A    between atoms: O_7  and  C_8
REMARK    5  A    between atoms: N_13  and  C_14
REMARK    6  A    between atoms: C_14  and  C_15
REMARK    7  A    between atoms: C_20  and  C_21
REMARK                            x       y       z     vdW  Elec       q    Type
REMARK                         _______ _______ _______ _____ _____    ______ ____
ROOT
ATOM      1  C   UNL     1       1.541   9.269  19.455  0.00  0.00    +0.000 A 
ATOM      2  C   UNL     1       1.315   8.521  20.538  0.00  0.00    +0.000 A 
ATOM      3 CL   UNL     1       0.567   9.093  21.973  0.00  0.00    +0.000 Cl
ATOM      4  C   UNL     1       1.777   7.123  20.529  0.00  0.00    +0.000 A 
ATOM      5  N   UNL     1       2.437   6.561  19.580  0.00  0.00    +0.000 NA
ATOM      6  N   UNL     1       2.673   7.319  18.453  0.00  0.00    +0.000 N 
ATOM      7  C   UNL     1       2.126   8.595  18.248  0.00  0.00    +0.000 A 
ATOM      8  O   UNL     1       2.132   9.151  17.154  0.00  0.00    +0.000 OA
ENDROOT
BRANCH   1   9
ATOM      9  O   UNL     1       1.133  10.604  19.429  0.00  0.00    +0.000 OA
BRANCH   9  13
ATOM     10  C   UNL     1      -2.862  11.472  18.580  0.00  0.00    +0.000 A 
ATOM     11  C   UNL     1      -2.140  10.536  17.836  0.00  0.00    +0.000 A 
ATOM     12  C   UNL     1      -0.808  10.258  18.152  0.00  0.00    +0.000 A 
ATOM     13  C   UNL     1      -0.183  10.929  19.205  0.00  0.00    +0.000 A 
ATOM     14  C   UNL     1      -0.914  11.835  19.976  0.00  0.00    +0.000 A 
ATOM     15  C   UNL     1      -2.242  12.125  19.646  0.00  0.00    +0.000 A 
BRANCH  10  17
ATOM     16  C   UNL     1      -4.392  11.425  16.779  0.00  0.00    +0.000 C 
ATOM     17  O   UNL     1      -4.143  11.692  18.154  0.00  0.00    +0.000 OA
ENDBRANCH  10  17
ENDBRANCH   9  13
ENDBRANCH   1   9
BRANCH   6  18
ATOM     18  C   UNL     1       3.383   6.661  17.356  0.00  0.00    +0.000 C 
BRANCH  18  19
ATOM     19  C   UNL     1       4.838   6.276  17.622  0.00  0.00    +0.000 A 
ATOM     20  C   UNL     1       5.861   7.230  17.419  0.00  0.00    +0.000 A 
ATOM     21  C   UNL     1       7.196   6.948  17.716  0.00  0.00    +0.000 A 
ATOM     22  C   UNL     1       7.539   5.698  18.203  0.00  0.00    +0.000 A 
ATOM     23  C   UNL     1       6.552   4.727  18.376  0.00  0.00    +0.000 A 
ATOM     24  C   UNL     1       5.185   4.976  18.103  0.00  0.00    +0.000 A 
BRANCH  24  25
ATOM     25  C   UNL     1       4.195   3.892  18.390  0.00  0.00    +0.000 A 
ATOM     26  C   UNL     1       3.925   3.501  19.718  0.00  0.00    +0.000 A 
ATOM     27  C   UNL     1       2.971   2.523  20.022  0.00  0.00    +0.000 A 
ATOM     28  C   UNL     1       2.229   1.935  19.006  0.00  0.00    +0.000 A 
ATOM     29  C   UNL     1       2.492   2.274  17.684  0.00  0.00    +0.000 A 
ATOM     30  C   UNL     1       3.493   3.206  17.385  0.00  0.00    +0.000 A 
ENDBRANCH  24  25
ENDBRANCH  18  19
ENDBRANCH   6  18
TORSDOF 6
ENDMDL
MODEL 8
REMARK VINA RESULT:      -8.7      0.978      3.080
REMARK  Name = 
REMARK  7 active torsions:
REMARK  status: ('A' for Active; 'I' for Inactive)
REMARK    1  A    between atoms: C_1  and  O_2
REMARK    2  A    between atoms: O_2  and  C_3
REMARK    3  A    between atoms: C_6  and  O_7
REMARK    4  A    between atoms: O_7  and  C_8
REMARK    5  A    between atoms: N_13  and  C_14
REMARK    6  A    between atoms: C_14  and  C_15
REMARK    7  A    between atoms: C_20  and  C_21
REMARK                            x       y       z     vdW  Elec       q    Type
REMARK                         _______ _______ _______ _____ _____    ______ ____
ROOT
ATOM      1  C   UNL     1       1.517   9.269  19.443  0.00  0.00    +0.000 A 
ATOM      2  C   UNL     1       1.326   8.507  20.523  0.00  0.00    +0.000 A 
ATOM      3 CL   UNL     1       0.572   9.044  21.968  0.00  0.00    +0.000 Cl
ATOM      4  C   UNL     1       1.835   7.126  20.501  0.00  0.00    +0.000 A 
ATOM      5  N   UNL     1       2.504   6.592  19.542  0.00  0.00    +0.000 NA
ATOM      6  N   UNL     1       2.704   7.365  18.418  0.00  0.00    +0.000 N 
ATOM      7  C   UNL     1       2.113   8.623  18.226  0.00  0.00    +0.000 A 
ATOM      8  O   UNL     1       2.091   9.186  17.137  0.00  0.00    +0.000 OA
ENDROOT
BRANCH   1   9
ATOM      9  O   UNL     1       1.064  10.590  19.430  0.00  0.00    +0.000 OA
BRANCH   9  13
ATOM     10  C   UNL     1      -2.934  11.585  18.748  0.00  0.00    +0.000 A 
ATOM     11  C   UNL     1      -2.182  12.207  19.749  0.00  0.00    +0.000 A 
ATOM     12  C   UNL     1      -0.843  11.862  19.944  0.00  0.00    +0.000 A 
ATOM     13  C   UNL     1      -0.251  10.876  19.151  0.00  0.00    +0.000 A 
ATOM     14  C   UNL     1      -0.987  10.282  18.125  0.00  0.00    +0.000 A 
ATOM     15  C   UNL     1      -2.333  10.617  17.943  0.00  0.00    +0.000 A 
BRANCH  10  17
ATOM     16  C   UNL     1      -5.069  11.208  17.809  0.00  0.00    +0.000 C 
ATOM     17  O   UNL     1      -4.243  11.975  18.676  0.00  0.00    +0.000 OA
ENDBRANCH  10  17
ENDBRANCH   9  13
ENDBRANCH   1   9
BRANCH   6  18
ATOM     18  C   UNL     1       3.427   6.738  17.311  0.00  0.00    +0.000 C 
BRANCH  18  19
ATOM     19  C   UNL     1       4.873   6.328  17.588  0.00  0.00    +0.000 A 
ATOM     20  C   UNL     1       5.916   7.260  17.377  0.00  0.00    +0.000 A 
ATOM     21  C   UNL     1       7.243   6.956  17.684  0.00  0.00    +0.000 A 
ATOM     22  C   UNL     1       7.560   5.705  18.187  0.00  0.00    +0.000 A 
ATOM     23  C   UNL     1       6.553   4.755  18.366  0.00  0.00    +0.000 A 
ATOM     24  C   UNL     1       5.192   5.028  18.085  0.00  0.00    +0.000 A 
BRANCH  24  25
ATOM     25  C   UNL     1       4.181   3.967  18.380  0.00  0.00    +0.000 A 
ATOM     26  C   UNL     1       3.463   3.350  17.336  0.00  0.00    +0.000 A 
ATOM     27  C   UNL     1       2.544   2.322  17.575  0.00  0.00    +0.000 A 
ATOM     28  C   UNL     1       2.344   1.854  18.868  0.00  0.00    +0.000 A 
ATOM     29  C   UNL     1       3.012   2.461  19.925  0.00  0.00    +0.000 A 
ATOM     30  C   UNL     1       3.881   3.532  19.682  0.00  0.00    +0.000 A 
ENDBRANCH  24  25
ENDBRANCH  18  19
ENDBRANCH   6  18
TORSDOF 6
ENDMDL
MODEL 9
REMARK VINA RESULT:      -8.6      1.464      1.832
REMARK  Name = 
REMARK  7 active torsions:
REMARK  status: ('A' for Active; 'I' for Inactive)
REMARK    1  A    between atoms: C_1  and  O_2
REMARK    2  A    between atoms: O_2  and  C_3
REMARK    3  A    between atoms: C_6  and  O_7
REMARK    4  A    between atoms: O_7  and  C_8
REMARK    5  A    between atoms: N_13  and  C_14
REMARK    6  A    between atoms: C_14  and  C_15
REMARK    7  A    between atoms: C_20  and  C_21
REMARK                            x       y       z     vdW  Elec       q    Type
REMARK                         _______ _______ _______ _____ _____    ______ ____
ROOT
ATOM      1  C   UNL     1       0.720   9.902  19.543  0.00  0.00    +0.000 A 
ATOM      2  C   UNL     1       0.523   9.791  20.859  0.00  0.00    +0.000 A 
ATOM      3 CL   UNL     1      -0.318  10.941  21.815  0.00  0.00    +0.000 Cl
ATOM      4  C   UNL     1       1.104   8.631  21.555  0.00  0.00    +0.000 A 
ATOM      5  N   UNL     1       1.840   7.727  21.014  0.00  0.00    +0.000 NA
ATOM      6  N   UNL     1       2.048   7.825  19.654  0.00  0.00    +0.000 N 
ATOM      7  C   UNL     1       1.400   8.765  18.837  0.00  0.00    +0.000 A 
ATOM      8  O   UNL     1       1.395   8.687  17.613  0.00  0.00    +0.000 OA
ENDROOT
BRANCH   1   9
ATOM      9  O   UNL     1       0.200  10.996  18.848  0.00  0.00    +0.000 OA
BRANCH   9  13
ATOM     10  C   UNL     1      -3.814  11.006  17.697  0.00  0.00    +0.000 A 
ATOM     11  C   UNL     1      -2.893  10.116  17.140  0.00  0.00    +0.000 A 
ATOM     12  C   UNL     1      -1.559  10.128  17.555  0.00  0.00    +0.000 A 
ATOM     13  C   UNL     1      -1.133  11.045  18.518  0.00  0.00    +0.000 A 
ATOM     14  C   UNL     1      -2.059  11.909  19.105  0.00  0.00    +0.000 A 
ATOM     15  C   UNL     1      -3.391  11.906  18.675  0.00  0.00    +0.000 A 
BRANCH  10  17
ATOM     16  C   UNL     1      -6.118  11.417  18.027  0.00  0.00    +0.000 C 
ATOM     17  O   UNL     1      -5.081  10.929  17.185  0.00  0.00    +0.000 OA
ENDBRANCH  10  17
ENDBRANCH   9  13
ENDBRANCH   1   9
BRANCH   6  18
ATOM     18  C   UNL     1       2.848   6.770  19.034  0.00  0.00    +0.000 C 
BRANCH  18  19
ATOM     19  C   UNL     1       2.699   5.367  19.624  0.00  0.00    +0.000 A 
ATOM     20  C   UNL     1       1.516   5.024  20.318  0.00  0.00    +0.000 A 
ATOM     21  C   UNL     1       1.304   3.736  20.812  0.00  0.00    +0.000 A 
ATOM     22  C   UNL     1       2.281   2.769  20.643  0.00  0.00    +0.000 A 
ATOM     23  C   UNL     1       3.473   3.095  19.995  0.00  0.00    +0.000 A 
ATOM     24  C   UNL     1       3.722   4.383  19.464  0.00  0.00    +0.000 A 
BRANCH  24  25
ATOM     25  C   UNL     1       5.001   4.611  18.724  0.00  0.00    +0.000 A 
ATOM     26  C   UNL     1       5.130   4.217  17.376  0.00  0.00    +0.000 A 
ATOM     27  C   UNL     1       6.297   4.458  16.642  0.00  0.00    +0.000 A 
ATOM     28  C   UNL     1       7.359   5.137  17.227  0.00  0.00    +0.000 A 
ATOM     29  C   UNL     1       7.277   5.512  18.562  0.00  0.00    +0.000 A 
ATOM     30  C   UNL     1       6.131   5.209  19.307  0.00  0.00    +0.000 A 
ENDBRANCH  24  25
ENDBRANCH  18  19
ENDBRANCH   6  18
TORSDOF 6
ENDMDL
