MODEL 1
REMARK VINA RESULT:      -7.5      0.000      0.000
REMARK  Name = 
REMARK  10 active torsions:
REMARK  status: ('A' for Active; 'I' for Inactive)
REMARK    1  A    between atoms: C_1  and  C_2
REMARK    2  A    between atoms: C_2  and  O_3
REMARK    3  A    between atoms: O_3  and  C_4
REMARK    4  A    between atoms: C_4  and  C_6
REMARK    5  A    between atoms: C_7  and  C_8
REMARK    6  A    between atoms: C_11  and  C_12
REMARK    7  A    between atoms: C_17  and  N_18
REMARK    8  A    between atoms: C_19  and  C_21
REMARK    9  A    between atoms: C_27  and  C_28
REMARK   10  A    between atoms: C_30  and  C_31
REMARK                            x       y       z     vdW  Elec       q    Type
REMARK                         _______ _______ _______ _____ _____    ______ ____
ROOT
ATOM      1  C   UNL     1       0.593  11.808  18.884  0.00  0.00    +0.000 A 
ATOM      2  C   UNL     1      -0.578  12.649  19.200  0.00  0.00    +0.000 A 
ATOM      3  C   UNL     1      -1.734  11.907  19.083  0.00  0.00    +0.000 A 
ATOM      4  S   UNL     1      -1.438  10.314  18.609  0.00  0.00    +0.000 S 
ATOM      5  C   UNL     1       0.265  10.510  18.480  0.00  0.00    +0.000 A 
ENDROOT
BRANCH   2   6
ATOM      6  C   UNL     1      -0.681  14.102  19.489  0.00  0.00    +0.000 A 
ATOM      7  C   UNL     1      -0.187  15.038  18.584  0.00  0.00    +0.000 A 
ATOM      8  C   UNL     1      -0.332  16.426  18.803  0.00  0.00    +0.000 A 
ATOM      9  C   UNL     1      -1.007  16.894  19.937  0.00  0.00    +0.000 A 
ATOM     10  C   UNL     1      -1.212  18.368  20.153  0.00  0.00    +0.000 C 
ATOM     11  C   UNL     1      -1.514  15.964  20.843  0.00  0.00    +0.000 A 
ATOM     12  C   UNL     1      -1.346  14.585  20.627  0.00  0.00    +0.000 A 
ENDBRANCH   2   6
BRANCH   5  13
ATOM     13  N   UNL     1       1.091   9.434  18.002  0.00  0.00    +0.000 N 
ATOM     14  C   UNL     1       1.669   8.491  18.838  0.00  0.00    +0.000 C 
ATOM     15  O   UNL     1       1.586   8.582  20.071  0.00  0.00    +0.000 OA
ATOM     16  H   UNL     1       1.210   9.349  17.001  0.00  0.00    +0.000 HD
BRANCH  14  17
ATOM     17  C   UNL     1       2.472   7.271  18.350  0.00  0.00    +0.000 A 
ATOM     18  C   UNL     1       2.371   6.293  19.277  0.00  0.00    +0.000 A 
ATOM     19  C   UNL     1       3.268   5.161  19.193  0.00  0.00    +0.000 A 
ATOM     20  O   UNL     1       3.059   4.079  19.717  0.00  0.00    +0.000 OA
ATOM     21  C   UNL     1       4.488   5.500  18.507  0.00  0.00    +0.000 A 
ATOM     22  C   UNL     1       5.703   5.446  19.182  0.00  0.00    +0.000 A 
ATOM     23  C   UNL     1       6.840   5.929  18.548  0.00  0.00    +0.000 A 
ATOM     24  C   UNL     1       8.122   6.069  19.306  0.00  0.00    +0.000 C 
ATOM     25  C   UNL     1       6.765   6.170  17.173  0.00  0.00    +0.000 A 
ATOM     26  C   UNL     1       5.515   6.184  16.505  0.00  0.00    +0.000 A 
ATOM     27  C   UNL     1       5.544   5.544  15.121  0.00  0.00    +0.000 C 
ATOM     28  C   UNL     1       4.357   6.158  17.294  0.00  0.00    +0.000 A 
ATOM     29  O   UNL     1       3.318   7.140  17.199  0.00  0.00    +0.000 OA
ENDBRANCH  14  17
ENDBRANCH   5  13
BRANCH   1  30
ATOM     30  C   UNL     1       1.957  12.306  18.947  0.00  0.00    +0.000 C 
ATOM     31  O   UNL     1       2.738  12.289  17.995  0.00  0.00    +0.000 OA
BRANCH  30  32
ATOM     32  O   UNL     1       2.298  12.658  20.226  0.00  0.00    +0.000 OA
BRANCH  32  34
ATOM     33  C   UNL     1       2.350  14.788  21.379  0.00  0.00    +0.000 C 
ATOM     34  C   UNL     1       2.991  13.905  20.329  0.00  0.00    +0.000 C 
ENDBRANCH  32  34
ENDBRANCH  30  32
ENDBRANCH   1  30
TORSDOF 6
ENDMDL
MODEL 2
REMARK VINA RESULT:      -7.5      2.423      3.735
REMARK  Name = 
REMARK  10 active torsions:
REMARK  status: ('A' for Active; 'I' for Inactive)
REMARK    1  A    between atoms: C_1  and  C_2
REMARK    2  A    between atoms: C_2  and  O_3
REMARK    3  A    between atoms: O_3  and  C_4
REMARK    4  A    between atoms: C_4  and  C_6
REMARK    5  A    between atoms: C_7  and  C_8
REMARK    6  A    between atoms: C_11  and  C_12
REMARK    7  A    between atoms: C_17  and  N_18
REMARK    8  A    between atoms: C_19  and  C_21
REMARK    9  A    between atoms: C_27  and  C_28
REMARK   10  A    between atoms: C_30  and  C_31
REMARK                            x       y       z     vdW  Elec       q    Type
REMARK                         _______ _______ _______ _____ _____    ______ ____
ROOT
ATOM      1  C   UNL     1      -1.115  10.768  18.791  0.00  0.00    +0.000 A 
ATOM      2  C   UNL     1      -1.579  11.885  19.638  0.00  0.00    +0.000 A 
ATOM      3  C   UNL     1      -0.510  12.443  20.306  0.00  0.00    +0.000 A 
ATOM      4  S   UNL     1       0.949  11.671  19.956  0.00  0.00    +0.000 S 
ATOM      5  C   UNL     1       0.251  10.495  18.914  0.00  0.00    +0.000 A 
ENDROOT
BRANCH   2   6
ATOM      6  C   UNL     1      -2.950  12.373  19.936  0.00  0.00    +0.000 A 
ATOM      7  C   UNL     1      -3.972  12.222  19.002  0.00  0.00    +0.000 A 
ATOM      8  C   UNL     1      -5.297  12.617  19.287  0.00  0.00    +0.000 A 
ATOM      9  C   UNL     1      -5.619  13.153  20.541  0.00  0.00    +0.000 A 
ATOM     10  C   UNL     1      -7.037  13.529  20.872  0.00  0.00    +0.000 C 
ATOM     11  C   UNL     1      -4.605  13.299  21.485  0.00  0.00    +0.000 A 
ATOM     12  C   UNL     1      -3.284  12.922  21.185  0.00  0.00    +0.000 A 
ENDBRANCH   2   6
BRANCH   5  13
ATOM     13  N   UNL     1       1.059   9.449  18.346  0.00  0.00    +0.000 N 
ATOM     14  C   UNL     1       1.641   8.444  19.101  0.00  0.00    +0.000 C 
ATOM     15  O   UNL     1       1.579   8.445  20.339  0.00  0.00    +0.000 OA
ATOM     16  H   UNL     1       1.161   9.436  17.339  0.00  0.00    +0.000 HD
BRANCH  14  17
ATOM     17  C   UNL     1       2.425   7.254  18.513  0.00  0.00    +0.000 A 
ATOM     18  C   UNL     1       2.297   6.201  19.349  0.00  0.00    +0.000 A 
ATOM     19  C   UNL     1       3.173   5.063  19.171  0.00  0.00    +0.000 A 
ATOM     20  O   UNL     1       2.938   3.944  19.597  0.00  0.00    +0.000 OA
ATOM     21  C   UNL     1       4.405   5.437  18.525  0.00  0.00    +0.000 A 
ATOM     22  C   UNL     1       5.612   5.300  19.200  0.00  0.00    +0.000 A 
ATOM     23  C   UNL     1       6.763   5.814  18.618  0.00  0.00    +0.000 A 
ATOM     24  C   UNL     1       8.042   5.861  19.393  0.00  0.00    +0.000 C 
ATOM     25  C   UNL     1       6.704   6.176  17.269  0.00  0.00    +0.000 A 
ATOM     26  C   UNL     1       5.460   6.274  16.598  0.00  0.00    +0.000 A 
ATOM     27  C   UNL     1       5.487   5.757  15.163  0.00  0.00    +0.000 C 
ATOM     28  C   UNL     1       4.295   6.202  17.374  0.00  0.00    +0.000 A 
ATOM     29  O   UNL     1       3.276   7.209  17.359  0.00  0.00    +0.000 OA
ENDBRANCH  14  17
ENDBRANCH   5  13
BRANCH   1  30
ATOM     30  C   UNL     1      -2.011   9.998  17.944  0.00  0.00    +0.000 C 
ATOM     31  O   UNL     1      -2.902   9.266  18.375  0.00  0.00    +0.000 OA
BRANCH  30  32
ATOM     32  O   UNL     1      -1.644  10.085  16.627  0.00  0.00    +0.000 OA
BRANCH  32  34
ATOM     33  C   UNL     1      -3.575  10.984  15.473  0.00  0.00    +0.000 C 
ATOM     34  C   UNL     1      -2.692   9.776  15.703  0.00  0.00    +0.000 C 
ENDBRANCH  32  34
ENDBRANCH  30  32
ENDBRANCH   1  30
TORSDOF 6
ENDMDL
MODEL 3
REMARK VINA RESULT:      -7.4      2.587      3.255
REMARK  Name = 
REMARK  10 active torsions:
REMARK  status: ('A' for Active; 'I' for Inactive)
REMARK    1  A    between atoms: C_1  and  C_2
REMARK    2  A    between atoms: C_2  and  O_3
REMARK    3  A    between atoms: O_3  and  C_4
REMARK    4  A    between atoms: C_4  and  C_6
REMARK    5  A    between atoms: C_7  and  C_8
REMARK    6  A    between atoms: C_11  and  C_12
REMARK    7  A    between atoms: C_17  and  N_18
REMARK    8  A    between atoms: C_19  and  C_21
REMARK    9  A    between atoms: C_27  and  C_28
REMARK   10  A    between atoms: C_30  and  C_31
REMARK                            x       y       z     vdW  Elec       q    Type
REMARK                         _______ _______ _______ _____ _____    ______ ____
ROOT
ATOM      1  C   UNL     1      -0.190  10.922  20.736  0.00  0.00    +0.000 A 
ATOM      2  C   UNL     1      -0.996  11.389  21.882  0.00  0.00    +0.000 A 
ATOM      3  C   UNL     1      -0.705  10.634  22.998  0.00  0.00    +0.000 A 
ATOM      4  S   UNL     1       0.445   9.438  22.692  0.00  0.00    +0.000 S 
ATOM      5  C   UNL     1       0.607   9.809  21.021  0.00  0.00    +0.000 A 
ENDROOT
BRANCH   2   6
ATOM      6  C   UNL     1      -2.080  12.401  21.959  0.00  0.00    +0.000 A 
ATOM      7  C   UNL     1      -3.104  12.412  21.015  0.00  0.00    +0.000 A 
ATOM      8  C   UNL     1      -4.180  13.322  21.104  0.00  0.00    +0.000 A 
ATOM      9  C   UNL     1      -4.254  14.226  22.172  0.00  0.00    +0.000 A 
ATOM     10  C   UNL     1      -5.423  15.163  22.304  0.00  0.00    +0.000 C 
ATOM     11  C   UNL     1      -3.238  14.215  23.126  0.00  0.00    +0.000 A 
ATOM     12  C   UNL     1      -2.159  13.321  23.017  0.00  0.00    +0.000 A 
ENDBRANCH   2   6
BRANCH   5  13
ATOM     13  N   UNL     1       1.448   9.008  20.172  0.00  0.00    +0.000 N 
ATOM     14  C   UNL     1       1.571   7.634  20.302  0.00  0.00    +0.000 C 
ATOM     15  O   UNL     1       1.032   7.022  21.235  0.00  0.00    +0.000 OA
ATOM     16  H   UNL     1       1.932   9.481  19.419  0.00  0.00    +0.000 HD
BRANCH  14  17
ATOM     17  C   UNL     1       2.381   6.738  19.347  0.00  0.00    +0.000 A 
ATOM     18  C   UNL     1       2.431   5.492  19.868  0.00  0.00    +0.000 A 
ATOM     19  C   UNL     1       3.373   4.545  19.311  0.00  0.00    +0.000 A 
ATOM     20  O   UNL     1       3.279   3.334  19.429  0.00  0.00    +0.000 OA
ATOM     21  C   UNL     1       4.493   5.209  18.694  0.00  0.00    +0.000 A 
ATOM     22  C   UNL     1       5.774   5.028  19.205  0.00  0.00    +0.000 A 
ATOM     23  C   UNL     1       6.809   5.800  18.695  0.00  0.00    +0.000 A 
ATOM     24  C   UNL     1       8.156   5.778  19.345  0.00  0.00    +0.000 C 
ATOM     25  C   UNL     1       6.574   6.500  17.508  0.00  0.00    +0.000 A 
ATOM     26  C   UNL     1       5.261   6.638  16.994  0.00  0.00    +0.000 A 
ATOM     27  C   UNL     1       5.176   6.529  15.474  0.00  0.00    +0.000 C 
ATOM     28  C   UNL     1       4.198   6.236  17.812  0.00  0.00    +0.000 A 
ATOM     29  O   UNL     1       3.104   7.094  18.160  0.00  0.00    +0.000 OA
ENDBRANCH  14  17
ENDBRANCH   5  13
BRANCH   1  30
ATOM     30  C   UNL     1      -0.258  11.542  19.423  0.00  0.00    +0.000 C 
ATOM     31  O   UNL     1      -0.045  12.737  19.216  0.00  0.00    +0.000 OA
BRANCH  30  32
ATOM     32  O   UNL     1      -0.724  10.661  18.484  0.00  0.00    +0.000 OA
BRANCH  32  34
ATOM     33  C   UNL     1      -2.864   9.981  17.576  0.00  0.00    +0.000 C 
ATOM     34  C   UNL     1      -1.880  11.114  17.773  0.00  0.00    +0.000 C 
ENDBRANCH  32  34
ENDBRANCH  30  32
ENDBRANCH   1  30
TORSDOF 6
ENDMDL
MODEL 4
REMARK VINA RESULT:      -7.3      2.131      2.952
REMARK  Name = 
REMARK  10 active torsions:
REMARK  status: ('A' for Active; 'I' for Inactive)
REMARK    1  A    between atoms: C_1  and  C_2
REMARK    2  A    between atoms: C_2  and  O_3
REMARK    3  A    between atoms: O_3  and  C_4
REMARK    4  A    between atoms: C_4  and  C_6
REMARK    5  A    between atoms: C_7  and  C_8
REMARK    6  A    between atoms: C_11  and  C_12
REMARK    7  A    between atoms: C_17  and  N_18
REMARK    8  A    between atoms: C_19  and  C_21
REMARK    9  A    between atoms: C_27  and  C_28
REMARK   10  A    between atoms: C_30  and  C_31
REMARK                            x       y       z     vdW  Elec       q    Type
REMARK                         _______ _______ _______ _____ _____    ______ ____
ROOT
ATOM      1  C   UNL     1      -0.205  11.206  20.112  0.00  0.00    +0.000 A 
ATOM      2  C   UNL     1      -0.998  11.805  21.204  0.00  0.00    +0.000 A 
ATOM      3  C   UNL     1      -0.706  11.176  22.395  0.00  0.00    +0.000 A 
ATOM      4  S   UNL     1       0.428   9.939  22.216  0.00  0.00    +0.000 S 
ATOM      5  C   UNL     1       0.582  10.122  20.514  0.00  0.00    +0.000 A 
ENDROOT
BRANCH   2   6
ATOM      6  C   UNL     1      -2.070  12.833  21.175  0.00  0.00    +0.000 A 
ATOM      7  C   UNL     1      -1.793  14.152  21.523  0.00  0.00    +0.000 A 
ATOM      8  C   UNL     1      -2.778  15.160  21.441  0.00  0.00    +0.000 A 
ATOM      9  C   UNL     1      -4.063  14.854  20.976  0.00  0.00    +0.000 A 
ATOM     10  C   UNL     1      -5.104  15.931  20.836  0.00  0.00    +0.000 C 
ATOM     11  C   UNL     1      -4.347  13.538  20.616  0.00  0.00    +0.000 A 
ATOM     12  C   UNL     1      -3.366  12.537  20.723  0.00  0.00    +0.000 A 
ENDBRANCH   2   6
BRANCH   5  13
ATOM     13  N   UNL     1       1.408   9.222  19.752  0.00  0.00    +0.000 N 
ATOM     14  C   UNL     1       1.618   7.900  20.108  0.00  0.00    +0.000 C 
ATOM     15  O   UNL     1       1.180   7.438  21.171  0.00  0.00    +0.000 OA
ATOM     16  H   UNL     1       1.811   9.577  18.895  0.00  0.00    +0.000 HD
BRANCH  14  17
ATOM     17  C   UNL     1       2.412   6.886  19.261  0.00  0.00    +0.000 A 
ATOM     18  C   UNL     1       2.447   5.709  19.924  0.00  0.00    +0.000 A 
ATOM     19  C   UNL     1       3.373   4.690  19.480  0.00  0.00    +0.000 A 
ATOM     20  O   UNL     1       3.262   3.503  19.738  0.00  0.00    +0.000 OA
ATOM     21  C   UNL     1       4.499   5.262  18.787  0.00  0.00    +0.000 A 
ATOM     22  C   UNL     1       5.780   5.123  19.312  0.00  0.00    +0.000 A 
ATOM     23  C   UNL     1       6.823   5.816  18.713  0.00  0.00    +0.000 A 
ATOM     24  C   UNL     1       8.172   5.850  19.358  0.00  0.00    +0.000 C 
ATOM     25  C   UNL     1       6.594   6.376  17.453  0.00  0.00    +0.000 A 
ATOM     26  C   UNL     1       5.281   6.472  16.929  0.00  0.00    +0.000 A 
ATOM     27  C   UNL     1       5.187   6.187  15.433  0.00  0.00    +0.000 C 
ATOM     28  C   UNL     1       4.215   6.183  17.792  0.00  0.00    +0.000 A 
ATOM     29  O   UNL     1       3.134   7.091  18.039  0.00  0.00    +0.000 OA
ENDBRANCH  14  17
ENDBRANCH   5  13
BRANCH   1  30
ATOM     30  C   UNL     1      -0.276  11.678  18.739  0.00  0.00    +0.000 C 
ATOM     31  O   UNL     1       0.013  12.823  18.391  0.00  0.00    +0.000 OA
BRANCH  30  32
ATOM     32  O   UNL     1      -0.836  10.734  17.920  0.00  0.00    +0.000 OA
BRANCH  32  34
ATOM     33  C   UNL     1      -3.092   9.901  17.631  0.00  0.00    +0.000 C 
ATOM     34  C   UNL     1      -2.144  11.066  17.446  0.00  0.00    +0.000 C 
ENDBRANCH  32  34
ENDBRANCH  30  32
ENDBRANCH   1  30
TORSDOF 6
ENDMDL
MODEL 5
REMARK VINA RESULT:      -7.3      2.991      9.974
REMARK  Name = 
REMARK  10 active torsions:
REMARK  status: ('A' for Active; 'I' for Inactive)
REMARK    1  A    between atoms: C_1  and  C_2
REMARK    2  A    between atoms: C_2  and  O_3
REMARK    3  A    between atoms: O_3  and  C_4
REMARK    4  A    between atoms: C_4  and  C_6
REMARK    5  A    between atoms: C_7  and  C_8
REMARK    6  A    between atoms: C_11  and  C_12
REMARK    7  A    between atoms: C_17  and  N_18
REMARK    8  A    between atoms: C_19  and  C_21
REMARK    9  A    between atoms: C_27  and  C_28
REMARK   10  A    between atoms: C_30  and  C_31
REMARK                            x       y       z     vdW  Elec       q    Type
REMARK                         _______ _______ _______ _____ _____    ______ ____
ROOT
ATOM      1  C   UNL     1       1.552   8.519  19.691  0.00  0.00    +0.000 A 
ATOM      2  C   UNL     1       2.292   7.631  18.773  0.00  0.00    +0.000 A 
ATOM      3  C   UNL     1       2.665   8.329  17.644  0.00  0.00    +0.000 A 
ATOM      4  S   UNL     1       2.150   9.936  17.674  0.00  0.00    +0.000 S 
ATOM      5  C   UNL     1       1.344   9.807  19.187  0.00  0.00    +0.000 A 
ENDROOT
BRANCH   2   6
ATOM      6  C   UNL     1       2.563   6.172  18.841  0.00  0.00    +0.000 A 
ATOM      7  C   UNL     1       1.835   5.281  18.056  0.00  0.00    +0.000 A 
ATOM      8  C   UNL     1       2.118   3.898  18.053  0.00  0.00    +0.000 A 
ATOM      9  C   UNL     1       3.168   3.391  18.830  0.00  0.00    +0.000 A 
ATOM     10  C   UNL     1       3.510   1.927  18.794  0.00  0.00    +0.000 C 
ATOM     11  C   UNL     1       3.908   4.276  19.612  0.00  0.00    +0.000 A 
ATOM     12  C   UNL     1       3.604   5.649  19.625  0.00  0.00    +0.000 A 
ENDBRANCH   2   6
BRANCH   5  13
ATOM     13  N   UNL     1       0.600  10.919  19.717  0.00  0.00    +0.000 N 
ATOM     14  C   UNL     1      -0.634  11.311  19.225  0.00  0.00    +0.000 C 
ATOM     15  O   UNL     1      -1.129  10.780  18.220  0.00  0.00    +0.000 OA
ATOM     16  H   UNL     1       0.992  11.400  20.517  0.00  0.00    +0.000 HD
BRANCH  14  17
ATOM     17  C   UNL     1      -1.499  12.430  19.835  0.00  0.00    +0.000 A 
ATOM     18  C   UNL     1      -0.711  13.209  20.607  0.00  0.00    +0.000 A 
ATOM     19  C   UNL     1      -1.336  14.147  21.515  0.00  0.00    +0.000 A 
ATOM     20  O   UNL     1      -0.777  15.125  21.983  0.00  0.00    +0.000 OA
ATOM     21  C   UNL     1      -2.664  13.725  21.882  0.00  0.00    +0.000 A 
ATOM     22  C   UNL     1      -2.952  13.417  23.207  0.00  0.00    +0.000 A 
ATOM     23  C   UNL     1      -4.189  12.862  23.508  0.00  0.00    +0.000 A 
ATOM     24  C   UNL     1      -4.464  12.338  24.882  0.00  0.00    +0.000 C 
ATOM     25  C   UNL     1      -5.181  12.913  22.525  0.00  0.00    +0.000 A 
ATOM     26  C   UNL     1      -4.863  13.265  21.189  0.00  0.00    +0.000 A 
ATOM     27  C   UNL     1      -5.909  14.146  20.514  0.00  0.00    +0.000 C 
ATOM     28  C   UNL     1      -3.507  13.353  20.847  0.00  0.00    +0.000 A 
ATOM     29  O   UNL     1      -2.919  12.622  19.764  0.00  0.00    +0.000 OA
ENDBRANCH  14  17
ENDBRANCH   5  13
BRANCH   1  30
ATOM     30  C   UNL     1       1.050   8.075  20.981  0.00  0.00    +0.000 C 
ATOM     31  O   UNL     1       0.639   6.935  21.202  0.00  0.00    +0.000 OA
BRANCH  30  32
ATOM     32  O   UNL     1       0.964   9.118  21.865  0.00  0.00    +0.000 OA
BRANCH  32  34
ATOM     33  C   UNL     1      -0.734  10.429  22.989  0.00  0.00    +0.000 C 
ATOM     34  C   UNL     1      -0.159   9.049  22.748  0.00  0.00    +0.000 C 
ENDBRANCH  32  34
ENDBRANCH  30  32
ENDBRANCH   1  30
TORSDOF 6
ENDMDL
MODEL 6
REMARK VINA RESULT:      -7.2      2.101      2.642
REMARK  Name = 
REMARK  10 active torsions:
REMARK  status: ('A' for Active; 'I' for Inactive)
REMARK    1  A    between atoms: C_1  and  C_2
REMARK    2  A    between atoms: C_2  and  O_3
REMARK    3  A    between atoms: O_3  and  C_4
REMARK    4  A    between atoms: C_4  and  C_6
REMARK    5  A    between atoms: C_7  and  C_8
REMARK    6  A    between atoms: C_11  and  C_12
REMARK    7  A    between atoms: C_17  and  N_18
REMARK    8  A    between atoms: C_19  and  C_21
REMARK    9  A    between atoms: C_27  and  C_28
REMARK   10  A    between atoms: C_30  and  C_31
REMARK                            x       y       z     vdW  Elec       q    Type
REMARK                         _______ _______ _______ _____ _____    ______ ____
ROOT
ATOM      1  C   UNL     1      -0.051  11.095  20.802  0.00  0.00    +0.000 A 
ATOM      2  C   UNL     1      -0.891  11.554  21.927  0.00  0.00    +0.000 A 
ATOM      3  C   UNL     1      -0.729  10.713  23.007  0.00  0.00    +0.000 A 
ATOM      4  S   UNL     1       0.344   9.449  22.691  0.00  0.00    +0.000 S 
ATOM      5  C   UNL     1       0.639   9.907  21.061  0.00  0.00    +0.000 A 
ENDROOT
BRANCH   2   6
ATOM      6  C   UNL     1      -1.897  12.643  22.006  0.00  0.00    +0.000 A 
ATOM      7  C   UNL     1      -1.735  13.690  22.910  0.00  0.00    +0.000 A 
ATOM      8  C   UNL     1      -2.642  14.771  22.958  0.00  0.00    +0.000 A 
ATOM      9  C   UNL     1      -3.724  14.825  22.069  0.00  0.00    +0.000 A 
ATOM     10  C   UNL     1      -4.665  15.998  22.079  0.00  0.00    +0.000 C 
ATOM     11  C   UNL     1      -3.888  13.787  21.155  0.00  0.00    +0.000 A 
ATOM     12  C   UNL     1      -2.992  12.704  21.129  0.00  0.00    +0.000 A 
ENDBRANCH   2   6
BRANCH   5  13
ATOM     13  N   UNL     1       1.470   9.094  20.211  0.00  0.00    +0.000 N 
ATOM     14  C   UNL     1       1.568   7.718  20.337  0.00  0.00    +0.000 C 
ATOM     15  O   UNL     1       1.015   7.112  21.266  0.00  0.00    +0.000 OA
ATOM     16  H   UNL     1       1.965   9.562  19.462  0.00  0.00    +0.000 HD
BRANCH  14  17
ATOM     17  C   UNL     1       2.367   6.811  19.381  0.00  0.00    +0.000 A 
ATOM     18  C   UNL     1       2.415   5.569  19.910  0.00  0.00    +0.000 A 
ATOM     19  C   UNL     1       3.348   4.613  19.353  0.00  0.00    +0.000 A 
ATOM     20  O   UNL     1       3.248   3.404  19.480  0.00  0.00    +0.000 OA
ATOM     21  C   UNL     1       4.466   5.267  18.724  0.00  0.00    +0.000 A 
ATOM     22  C   UNL     1       5.750   5.084  19.225  0.00  0.00    +0.000 A 
ATOM     23  C   UNL     1       6.785   5.847  18.702  0.00  0.00    +0.000 A 
ATOM     24  C   UNL     1       8.137   5.822  19.343  0.00  0.00    +0.000 C 
ATOM     25  C   UNL     1       6.545   6.540  17.513  0.00  0.00    +0.000 A 
ATOM     26  C   UNL     1       5.228   6.682  17.007  0.00  0.00    +0.000 A 
ATOM     27  C   UNL     1       5.130   6.563  15.490  0.00  0.00    +0.000 C 
ATOM     28  C   UNL     1       4.169   6.290  17.837  0.00  0.00    +0.000 A 
ATOM     29  O   UNL     1       3.082   7.156  18.187  0.00  0.00    +0.000 OA
ENDBRANCH  14  17
ENDBRANCH   5  13
BRANCH   1  30
ATOM     30  C   UNL     1       0.012  11.797  19.531  0.00  0.00    +0.000 C 
ATOM     31  O   UNL     1      -0.260  11.280  18.448  0.00  0.00    +0.000 OA
BRANCH  30  32
ATOM     32  O   UNL     1       0.545  13.050  19.683  0.00  0.00    +0.000 OA
BRANCH  32  34
ATOM     33  C   UNL     1      -0.327  15.309  19.763  0.00  0.00    +0.000 C 
ATOM     34  C   UNL     1      -0.116  14.067  18.923  0.00  0.00    +0.000 C 
ENDBRANCH  32  34
ENDBRANCH  30  32
ENDBRANCH   1  30
TORSDOF 6
ENDMDL
MODEL 7
REMARK VINA RESULT:      -7.1      2.170      3.195
REMARK  Name = 
REMARK  10 active torsions:
REMARK  status: ('A' for Active; 'I' for Inactive)
REMARK    1  A    between atoms: C_1  and  C_2
REMARK    2  A    between atoms: C_2  and  O_3
REMARK    3  A    between atoms: O_3  and  C_4
REMARK    4  A    between atoms: C_4  and  C_6
REMARK    5  A    between atoms: C_7  and  C_8
REMARK    6  A    between atoms: C_11  and  C_12
REMARK    7  A    between atoms: C_17  and  N_18
REMARK    8  A    between atoms: C_19  and  C_21
REMARK    9  A    between atoms: C_27  and  C_28
REMARK   10  A    between atoms: C_30  and  C_31
REMARK                            x       y       z     vdW  Elec       q    Type
REMARK                         _______ _______ _______ _____ _____    ______ ____
ROOT
ATOM      1  C   UNL     1      -0.707  10.819  20.248  0.00  0.00    +0.000 A 
ATOM      2  C   UNL     1      -1.221  11.757  21.266  0.00  0.00    +0.000 A 
ATOM      3  C   UNL     1      -0.760  11.394  22.513  0.00  0.00    +0.000 A 
ATOM      4  S   UNL     1       0.209  10.013  22.471  0.00  0.00    +0.000 S 
ATOM      5  C   UNL     1       0.047   9.767  20.778  0.00  0.00    +0.000 A 
ENDROOT
BRANCH   2   6
ATOM      6  C   UNL     1      -2.187  12.879  21.153  0.00  0.00    +0.000 A 
ATOM      7  C   UNL     1      -3.555  12.629  21.084  0.00  0.00    +0.000 A 
ATOM      8  C   UNL     1      -4.497  13.679  21.043  0.00  0.00    +0.000 A 
ATOM      9  C   UNL     1      -4.070  15.013  21.097  0.00  0.00    +0.000 A 
ATOM     10  C   UNL     1      -5.068  16.137  21.106  0.00  0.00    +0.000 C 
ATOM     11  C   UNL     1      -2.703  15.273  21.175  0.00  0.00    +0.000 A 
ATOM     12  C   UNL     1      -1.771  14.220  21.193  0.00  0.00    +0.000 A 
ENDBRANCH   2   6
BRANCH   5  13
ATOM     13  N   UNL     1       0.631   8.613  20.147  0.00  0.00    +0.000 N 
ATOM     14  C   UNL     1       1.708   8.687  19.278  0.00  0.00    +0.000 C 
ATOM     15  O   UNL     1       2.173   9.777  18.914  0.00  0.00    +0.000 OA
ATOM     16  H   UNL     1       0.254   7.707  20.394  0.00  0.00    +0.000 HD
BRANCH  14  17
ATOM     17  C   UNL     1       2.420   7.464  18.668  0.00  0.00    +0.000 A 
ATOM     18  C   UNL     1       2.266   6.416  19.506  0.00  0.00    +0.000 A 
ATOM     19  C   UNL     1       3.083   5.239  19.302  0.00  0.00    +0.000 A 
ATOM     20  O   UNL     1       2.808   4.131  19.732  0.00  0.00    +0.000 OA
ATOM     21  C   UNL     1       4.313   5.557  18.624  0.00  0.00    +0.000 A 
ATOM     22  C   UNL     1       5.530   5.362  19.266  0.00  0.00    +0.000 A 
ATOM     23  C   UNL     1       6.688   5.823  18.654  0.00  0.00    +0.000 A 
ATOM     24  C   UNL     1       7.988   5.809  19.395  0.00  0.00    +0.000 C 
ATOM     25  C   UNL     1       6.610   6.191  17.308  0.00  0.00    +0.000 A 
ATOM     26  C   UNL     1       5.354   6.349  16.670  0.00  0.00    +0.000 A 
ATOM     27  C   UNL     1       5.319   5.836  15.234  0.00  0.00    +0.000 C 
ATOM     28  C   UNL     1       4.209   6.329  17.477  0.00  0.00    +0.000 A 
ATOM     29  O   UNL     1       3.238   7.382  17.492  0.00  0.00    +0.000 OA
ENDBRANCH  14  17
ENDBRANCH   5  13
BRANCH   1  30
ATOM     30  C   UNL     1      -1.001  10.958  18.831  0.00  0.00    +0.000 C 
ATOM     31  O   UNL     1      -0.725  11.958  18.168  0.00  0.00    +0.000 OA
BRANCH  30  32
ATOM     32  O   UNL     1      -1.743   9.901  18.373  0.00  0.00    +0.000 OA
BRANCH  32  34
ATOM     33  C   UNL     1      -2.748   9.847  16.170  0.00  0.00    +0.000 C 
ATOM     34  C   UNL     1      -2.896  10.277  17.614  0.00  0.00    +0.000 C 
ENDBRANCH  32  34
ENDBRANCH  30  32
ENDBRANCH   1  30
TORSDOF 6
ENDMDL
MODEL 8
REMARK VINA RESULT:      -7.1      3.003     10.084
REMARK  Name = 
REMARK  10 active torsions:
REMARK  status: ('A' for Active; 'I' for Inactive)
REMARK    1  A    between atoms: C_1  and  C_2
REMARK    2  A    between atoms: C_2  and  O_3
REMARK    3  A    between atoms: O_3  and  C_4
REMARK    4  A    between atoms: C_4  and  C_6
REMARK    5  A    between atoms: C_7  and  C_8
REMARK    6  A    between atoms: C_11  and  C_12
REMARK    7  A    between atoms: C_17  and  N_18
REMARK    8  A    between atoms: C_19  and  C_21
REMARK    9  A    between atoms: C_27  and  C_28
REMARK   10  A    between atoms: C_30  and  C_31
REMARK                            x       y       z     vdW  Elec       q    Type
REMARK                         _______ _______ _______ _____ _____    ______ ____
ROOT
ATOM      1  C   UNL     1       1.307   9.110  20.152  0.00  0.00    +0.000 A 
ATOM      2  C   UNL     1       1.959   8.032  19.382  0.00  0.00    +0.000 A 
ATOM      3  C   UNL     1       2.112   8.420  18.068  0.00  0.00    +0.000 A 
ATOM      4  S   UNL     1       1.501   9.965  17.772  0.00  0.00    +0.000 S 
ATOM      5  C   UNL     1       0.940  10.215  19.378  0.00  0.00    +0.000 A 
ENDROOT
BRANCH   2   6
ATOM      6  C   UNL     1       2.334   6.649  19.774  0.00  0.00    +0.000 A 
ATOM      7  C   UNL     1       1.491   5.891  20.582  0.00  0.00    +0.000 A 
ATOM      8  C   UNL     1       1.793   4.552  20.914  0.00  0.00    +0.000 A 
ATOM      9  C   UNL     1       2.949   3.944  20.408  0.00  0.00    +0.000 A 
ATOM     10  C   UNL     1       3.252   2.503  20.713  0.00  0.00    +0.000 C 
ATOM     11  C   UNL     1       3.793   4.691  19.590  0.00  0.00    +0.000 A 
ATOM     12  C   UNL     1       3.495   6.031  19.283  0.00  0.00    +0.000 A 
ENDBRANCH   2   6
BRANCH   5  13
ATOM     13  N   UNL     1       0.211  11.408  19.721  0.00  0.00    +0.000 N 
ATOM     14  C   UNL     1      -1.145  11.563  19.485  0.00  0.00    +0.000 C 
ATOM     15  O   UNL     1      -1.797  10.710  18.865  0.00  0.00    +0.000 OA
ATOM     16  H   UNL     1       0.720  12.142  20.197  0.00  0.00    +0.000 HD
BRANCH  14  17
ATOM     17  C   UNL     1      -1.972  12.784  19.932  0.00  0.00    +0.000 A 
ATOM     18  C   UNL     1      -1.172  13.872  19.920  0.00  0.00    +0.000 A 
ATOM     19  C   UNL     1      -1.631  15.078  20.574  0.00  0.00    +0.000 A 
ATOM     20  O   UNL     1      -1.196  16.194  20.338  0.00  0.00    +0.000 OA
ATOM     21  C   UNL     1      -2.585  14.789  21.613  0.00  0.00    +0.000 A 
ATOM     22  C   UNL     1      -2.284  15.092  22.936  0.00  0.00    +0.000 A 
ATOM     23  C   UNL     1      -3.149  14.660  23.933  0.00  0.00    +0.000 A 
ATOM     24  C   UNL     1      -2.766  14.794  25.372  0.00  0.00    +0.000 C 
ATOM     25  C   UNL     1      -4.412  14.205  23.544  0.00  0.00    +0.000 A 
ATOM     26  C   UNL     1      -4.701  13.936  22.183  0.00  0.00    +0.000 A 
ATOM     27  C   UNL     1      -6.103  14.357  21.752  0.00  0.00    +0.000 C 
ATOM     28  C   UNL     1      -3.630  13.942  21.279  0.00  0.00    +0.000 A 
ATOM     29  O   UNL     1      -3.320  12.838  20.420  0.00  0.00    +0.000 OA
ENDBRANCH  14  17
ENDBRANCH   5  13
BRANCH   1  30
ATOM     30  C   UNL     1       1.034   9.005  21.576  0.00  0.00    +0.000 C 
ATOM     31  O   UNL     1       1.903   8.826  22.429  0.00  0.00    +0.000 OA
BRANCH  30  32
ATOM     32  O   UNL     1      -0.313   8.989  21.822  0.00  0.00    +0.000 OA
BRANCH  32  34
ATOM     33  C   UNL     1      -1.109  10.949  23.002  0.00  0.00    +0.000 C 
ATOM     34  C   UNL     1      -0.684   9.500  23.106  0.00  0.00    +0.000 C 
ENDBRANCH  32  34
ENDBRANCH  30  32
ENDBRANCH   1  30
TORSDOF 6
ENDMDL
MODEL 9
REMARK VINA RESULT:      -7.0      2.063      2.503
REMARK  Name = 
REMARK  10 active torsions:
REMARK  status: ('A' for Active; 'I' for Inactive)
REMARK    1  A    between atoms: C_1  and  C_2
REMARK    2  A    between atoms: C_2  and  O_3
REMARK    3  A    between atoms: O_3  and  C_4
REMARK    4  A    between atoms: C_4  and  C_6
REMARK    5  A    between atoms: C_7  and  C_8
REMARK    6  A    between atoms: C_11  and  C_12
REMARK    7  A    between atoms: C_17  and  N_18
REMARK    8  A    between atoms: C_19  and  C_21
REMARK    9  A    between atoms: C_27  and  C_28
REMARK   10  A    between atoms: C_30  and  C_31
REMARK                            x       y       z     vdW  Elec       q    Type
REMARK                         _______ _______ _______ _____ _____    ______ ____
ROOT
ATOM      1  C   UNL     1      -0.087  11.382  21.061  0.00  0.00    +0.000 A 
ATOM      2  C   UNL     1      -0.925  11.818  22.196  0.00  0.00    +0.000 A 
ATOM      3  C   UNL     1      -1.128  10.764  23.061  0.00  0.00    +0.000 A 
ATOM      4  S   UNL     1      -0.379   9.344  22.542  0.00  0.00    +0.000 S 
ATOM      5  C   UNL     1       0.238  10.022  21.088  0.00  0.00    +0.000 A 
ENDROOT
BRANCH   2   6
ATOM      6  C   UNL     1      -1.623  13.104  22.450  0.00  0.00    +0.000 A 
ATOM      7  C   UNL     1      -1.002  14.112  23.184  0.00  0.00    +0.000 A 
ATOM      8  C   UNL     1      -1.617  15.367  23.383  0.00  0.00    +0.000 A 
ATOM      9  C   UNL     1      -2.870  15.636  22.817  0.00  0.00    +0.000 A 
ATOM     10  C   UNL     1      -3.509  16.987  22.980  0.00  0.00    +0.000 C 
ATOM     11  C   UNL     1      -3.494  14.638  22.073  0.00  0.00    +0.000 A 
ATOM     12  C   UNL     1      -2.884  13.383  21.898  0.00  0.00    +0.000 A 
ENDBRANCH   2   6
BRANCH   5  13
ATOM     13  N   UNL     1       0.940   9.201  20.138  0.00  0.00    +0.000 N 
ATOM     14  C   UNL     1       1.658   8.071  20.494  0.00  0.00    +0.000 C 
ATOM     15  O   UNL     1       1.819   7.754  21.682  0.00  0.00    +0.000 OA
ATOM     16  H   UNL     1       0.860   9.451  19.160  0.00  0.00    +0.000 HD
BRANCH  14  17
ATOM     17  C   UNL     1       2.334   7.116  19.492  0.00  0.00    +0.000 A 
ATOM     18  C   UNL     1       2.270   5.860  19.987  0.00  0.00    +0.000 A 
ATOM     19  C   UNL     1       3.085   4.832  19.377  0.00  0.00    +0.000 A 
ATOM     20  O   UNL     1       2.866   3.636  19.475  0.00  0.00    +0.000 OA
ATOM     21  C   UNL     1       4.247   5.388  18.732  0.00  0.00    +0.000 A 
ATOM     22  C   UNL     1       5.518   5.061  19.191  0.00  0.00    +0.000 A 
ATOM     23  C   UNL     1       6.611   5.731  18.658  0.00  0.00    +0.000 A 
ATOM     24  C   UNL     1       7.970   5.551  19.257  0.00  0.00    +0.000 C 
ATOM     25  C   UNL     1       6.411   6.480  17.495  0.00  0.00    +0.000 A 
ATOM     26  C   UNL     1       5.103   6.768  17.032  0.00  0.00    +0.000 A 
ATOM     27  C   UNL     1       4.953   6.704  15.515  0.00  0.00    +0.000 C 
ATOM     28  C   UNL     1       4.032   6.461  17.882  0.00  0.00    +0.000 A 
ATOM     29  O   UNL     1       3.048   7.421  18.286  0.00  0.00    +0.000 OA
ENDBRANCH  14  17
ENDBRANCH   5  13
BRANCH   1  30
ATOM     30  C   UNL     1       0.322  12.282  19.995  0.00  0.00    +0.000 C 
ATOM     31  O   UNL     1      -0.466  12.875  19.258  0.00  0.00    +0.000 OA
BRANCH  30  32
ATOM     32  O   UNL     1       1.682  12.269  19.831  0.00  0.00    +0.000 OA
BRANCH  32  34
ATOM     33  C   UNL     1       2.934  13.832  18.467  0.00  0.00    +0.000 C 
ATOM     34  C   UNL     1       2.116  12.558  18.498  0.00  0.00    +0.000 C 
ENDBRANCH  32  34
ENDBRANCH  30  32
ENDBRANCH   1  30
TORSDOF 6
ENDMDL
