MODEL 1
REMARK VINA RESULT:      -8.7      0.000      0.000
REMARK  Name = 
REMARK  8 active torsions:
REMARK  status: ('A' for Active; 'I' for Inactive)
REMARK    1  A    between atoms: C_1  and  O_2
REMARK    2  A    between atoms: O_2  and  C_3
REMARK    3  A    between atoms: C_8  and  C_9
REMARK    4  A    between atoms: C_15  and  O_16
REMARK    5  A    between atoms: O_16  and  C_17
REMARK    6  A    between atoms: C_19  and  O_20
REMARK    7  A    between atoms: O_20  and  C_21
REMARK    8  A    between atoms: C_21  and  C_22
REMARK                            x       y       z     vdW  Elec       q    Type
REMARK                         _______ _______ _______ _____ _____    ______ ____
ROOT
ATOM      1  C   UNL     1      -1.402  13.217  22.223  0.00  0.00    +0.000 C 
ATOM      2  C   UNL     1      -0.982  14.071  23.175  0.00  0.00    +0.000 C 
ATOM      3  C   UNL     1      -0.092  15.213  22.865  0.00  0.00    +0.000 C 
ATOM      4  O   UNL     1       0.312  15.915  23.790  0.00  0.00    +0.000 OA
ATOM      5  C   UNL     1       0.334  15.451  21.439  0.00  0.00    +0.000 C 
ATOM      6  C   UNL     1      -0.653  14.859  20.431  0.00  0.00    +0.000 C 
ATOM      7  C   UNL     1      -0.130  15.068  19.005  0.00  0.00    +0.000 C 
ATOM      8  C   UNL     1      -1.011  13.389  20.756  0.00  0.00    +0.000 C 
ATOM      9  O   UNL     1      -2.124  13.009  19.896  0.00  0.00    +0.000 OA
ATOM     10  C   UNL     1      -1.712  11.919  19.165  0.00  0.00    +0.000 A 
ATOM     11  C   UNL     1      -2.503  11.268  18.225  0.00  0.00    +0.000 A 
ATOM     12 CL   UNL     1      -4.117  11.809  17.934  0.00  0.00    +0.000 Cl
ATOM     13  C   UNL     1      -1.965  10.179  17.522  0.00  0.00    +0.000 A 
ATOM     14  C   UNL     1      -0.647   9.777  17.791  0.00  0.00    +0.000 A 
ATOM     15  C   UNL     1       0.130  10.390  18.783  0.00  0.00    +0.000 A 
ATOM     16  C   UNL     1      -0.423  11.484  19.428  0.00  0.00    +0.000 A 
ATOM     17  C   UNL     1       0.097  12.385  20.434  0.00  0.00    +0.000 C 
ATOM     18  O   UNL     1       1.216  12.344  20.913  0.00  0.00    +0.000 OA
ENDROOT
BRANCH   1  20
ATOM     19  C   UNL     1      -3.214  12.228  23.467  0.00  0.00    +0.000 C 
ATOM     20  O   UNL     1      -2.211  12.116  22.460  0.00  0.00    +0.000 OA
ENDBRANCH   1  20
BRANCH  13  21
ATOM     21  O   UNL     1      -2.762   9.548  16.598  0.00  0.00    +0.000 OA
ATOM     22  C   UNL     1      -2.827  10.114  15.291  0.00  0.00    +0.000 C 
ENDBRANCH  13  21
BRANCH  15  23
ATOM     23  O   UNL     1       1.374   9.946  19.132  0.00  0.00    +0.000 OA
BRANCH  23  24
ATOM     24  C   UNL     1       1.401   8.644  19.748  0.00  0.00    +0.000 C 
BRANCH  24  25
ATOM     25  C   UNL     1       2.253   7.634  19.018  0.00  0.00    +0.000 A 
ATOM     26  C   UNL     1       2.969   8.045  17.880  0.00  0.00    +0.000 A 
ATOM     27  C   UNL     1       3.809   7.161  17.218  0.00  0.00    +0.000 A 
ATOM     28  C   UNL     1       3.946   5.857  17.682  0.00  0.00    +0.000 A 
ATOM     29  C   UNL     1       3.266   5.418  18.825  0.00  0.00    +0.000 A 
ATOM     30  C   UNL     1       3.440   4.102  19.282  0.00  0.00    +0.000 A 
ATOM     31  C   UNL     1       2.800   3.642  20.434  0.00  0.00    +0.000 A 
ATOM     32  C   UNL     1       1.980   4.503  21.147  0.00  0.00    +0.000 A 
ATOM     33  C   UNL     1       1.790   5.815  20.700  0.00  0.00    +0.000 A 
ATOM     34  C   UNL     1       2.415   6.309  19.526  0.00  0.00    +0.000 A 
ENDBRANCH  24  25
ENDBRANCH  23  24
ENDBRANCH  15  23
TORSDOF 5
ENDMDL
MODEL 2
REMARK VINA RESULT:      -8.4      0.754      1.893
REMARK  Name = 
REMARK  8 active torsions:
REMARK  status: ('A' for Active; 'I' for Inactive)
REMARK    1  A    between atoms: C_1  and  O_2
REMARK    2  A    between atoms: O_2  and  C_3
REMARK    3  A    between atoms: C_8  and  C_9
REMARK    4  A    between atoms: C_15  and  O_16
REMARK    5  A    between atoms: O_16  and  C_17
REMARK    6  A    between atoms: C_19  and  O_20
REMARK    7  A    between atoms: O_20  and  C_21
REMARK    8  A    between atoms: C_21  and  C_22
REMARK                            x       y       z     vdW  Elec       q    Type
REMARK                         _______ _______ _______ _____ _____    ______ ____
ROOT
ATOM      1  C   UNL     1      -1.312  13.271  22.132  0.00  0.00    +0.000 C 
ATOM      2  C   UNL     1      -0.863  14.133  23.063  0.00  0.00    +0.000 C 
ATOM      3  C   UNL     1      -0.008  15.290  22.713  0.00  0.00    +0.000 C 
ATOM      4  O   UNL     1       0.425  16.000  23.618  0.00  0.00    +0.000 OA
ATOM      5  C   UNL     1       0.347  15.534  21.269  0.00  0.00    +0.000 C 
ATOM      6  C   UNL     1      -0.674  14.924  20.307  0.00  0.00    +0.000 C 
ATOM      7  C   UNL     1      -0.220  15.141  18.859  0.00  0.00    +0.000 C 
ATOM      8  C   UNL     1      -0.991  13.448  20.648  0.00  0.00    +0.000 C 
ATOM      9  O   UNL     1      -2.136  13.049  19.841  0.00  0.00    +0.000 OA
ATOM     10  C   UNL     1      -1.739  11.964  19.091  0.00  0.00    +0.000 A 
ATOM     11  C   UNL     1      -2.561  11.299  18.188  0.00  0.00    +0.000 A 
ATOM     12 CL   UNL     1      -4.196  11.812  17.972  0.00  0.00    +0.000 Cl
ATOM     13  C   UNL     1      -2.037  10.219  17.462  0.00  0.00    +0.000 A 
ATOM     14  C   UNL     1      -0.701   9.840  17.670  0.00  0.00    +0.000 A 
ATOM     15  C   UNL     1       0.110  10.468  18.626  0.00  0.00    +0.000 A 
ATOM     16  C   UNL     1      -0.432  11.552  19.295  0.00  0.00    +0.000 A 
ATOM     17  C   UNL     1       0.118  12.463  20.276  0.00  0.00    +0.000 C 
ATOM     18  O   UNL     1       1.258  12.442  20.703  0.00  0.00    +0.000 OA
ENDROOT
BRANCH   1  20
ATOM     19  C   UNL     1      -1.502  11.102  23.165  0.00  0.00    +0.000 C 
ATOM     20  O   UNL     1      -2.090  12.156  22.406  0.00  0.00    +0.000 OA
ENDBRANCH   1  20
BRANCH  13  21
ATOM     21  O   UNL     1      -2.865   9.573  16.575  0.00  0.00    +0.000 OA
ATOM     22  C   UNL     1      -2.849  10.017  15.220  0.00  0.00    +0.000 C 
ENDBRANCH  13  21
BRANCH  15  23
ATOM     23  O   UNL     1       1.376  10.045  18.917  0.00  0.00    +0.000 OA
BRANCH  23  24
ATOM     24  C   UNL     1       1.917   9.076  17.999  0.00  0.00    +0.000 C 
BRANCH  24  25
ATOM     25  C   UNL     1       2.369   7.792  18.654  0.00  0.00    +0.000 A 
ATOM     26  C   UNL     1       1.730   7.370  19.833  0.00  0.00    +0.000 A 
ATOM     27  C   UNL     1       2.078   6.166  20.430  0.00  0.00    +0.000 A 
ATOM     28  C   UNL     1       3.064   5.369  19.859  0.00  0.00    +0.000 A 
ATOM     29  C   UNL     1       3.707   5.747  18.673  0.00  0.00    +0.000 A 
ATOM     30  C   UNL     1       4.684   4.911  18.109  0.00  0.00    +0.000 A 
ATOM     31  C   UNL     1       5.321   5.244  16.913  0.00  0.00    +0.000 A 
ATOM     32  C   UNL     1       4.979   6.421  16.263  0.00  0.00    +0.000 A 
ATOM     33  C   UNL     1       4.013   7.267  16.817  0.00  0.00    +0.000 A 
ATOM     34  C   UNL     1       3.356   6.964  18.038  0.00  0.00    +0.000 A 
ENDBRANCH  24  25
ENDBRANCH  23  24
ENDBRANCH  15  23
TORSDOF 5
ENDMDL
MODEL 3
REMARK VINA RESULT:      -8.1      4.241      9.773
REMARK  Name = 
REMARK  8 active torsions:
REMARK  status: ('A' for Active; 'I' for Inactive)
REMARK    1  A    between atoms: C_1  and  O_2
REMARK    2  A    between atoms: O_2  and  C_3
REMARK    3  A    between atoms: C_8  and  C_9
REMARK    4  A    between atoms: C_15  and  O_16
REMARK    5  A    between atoms: O_16  and  C_17
REMARK    6  A    between atoms: C_19  and  O_20
REMARK    7  A    between atoms: O_20  and  C_21
REMARK    8  A    between atoms: C_21  and  C_22
REMARK                            x       y       z     vdW  Elec       q    Type
REMARK                         _______ _______ _______ _____ _____    ______ ____
ROOT
ATOM      1  C   UNL     1       5.257   3.964  16.324  0.00  0.00    +0.000 C 
ATOM      2  C   UNL     1       5.988   4.313  15.250  0.00  0.00    +0.000 C 
ATOM      3  C   UNL     1       7.111   5.272  15.345  0.00  0.00    +0.000 C 
ATOM      4  O   UNL     1       7.696   5.602  14.315  0.00  0.00    +0.000 OA
ATOM      5  C   UNL     1       7.473   5.855  16.687  0.00  0.00    +0.000 C 
ATOM      6  C   UNL     1       7.035   4.958  17.847  0.00  0.00    +0.000 C 
ATOM      7  C   UNL     1       7.362   5.637  19.182  0.00  0.00    +0.000 C 
ATOM      8  C   UNL     1       5.558   4.514  17.718  0.00  0.00    +0.000 C 
ATOM      9  O   UNL     1       5.321   3.484  18.721  0.00  0.00    +0.000 OA
ATOM     10  C   UNL     1       4.292   3.930  19.519  0.00  0.00    +0.000 A 
ATOM     11  C   UNL     1       3.779   3.219  20.598  0.00  0.00    +0.000 A 
ATOM     12 CL   UNL     1       4.424   1.666  20.991  0.00  0.00    +0.000 Cl
ATOM     13  C   UNL     1       2.743   3.787  21.354  0.00  0.00    +0.000 A 
ATOM     14  C   UNL     1       2.253   5.054  20.998  0.00  0.00    +0.000 A 
ATOM     15  C   UNL     1       2.724   5.744  19.873  0.00  0.00    +0.000 A 
ATOM     16  C   UNL     1       3.771   5.168  19.174  0.00  0.00    +0.000 A 
ATOM     17  C   UNL     1       4.540   5.611  18.031  0.00  0.00    +0.000 C 
ATOM     18  O   UNL     1       4.396   6.671  17.448  0.00  0.00    +0.000 OA
ENDROOT
BRANCH   1  20
ATOM     19  C   UNL     1       2.867   3.654  16.341  0.00  0.00    +0.000 C 
ATOM     20  O   UNL     1       4.177   3.094  16.288  0.00  0.00    +0.000 OA
ENDBRANCH   1  20
BRANCH  13  21
ATOM     21  O   UNL     1       2.248   3.070  22.416  0.00  0.00    +0.000 OA
ATOM     22  C   UNL     1       1.088   2.272  22.187  0.00  0.00    +0.000 C 
ENDBRANCH  13  21
BRANCH  15  23
ATOM     23  O   UNL     1       2.187   6.927  19.449  0.00  0.00    +0.000 OA
BRANCH  23  24
ATOM     24  C   UNL     1       1.777   7.818  20.503  0.00  0.00    +0.000 C 
BRANCH  24  25
ATOM     25  C   UNL     1       1.048   9.050  20.022  0.00  0.00    +0.000 A 
ATOM     26  C   UNL     1       1.097   9.377  18.656  0.00  0.00    +0.000 A 
ATOM     27  C   UNL     1       0.391  10.467  18.166  0.00  0.00    +0.000 A 
ATOM     28  C   UNL     1      -0.373  11.242  19.031  0.00  0.00    +0.000 A 
ATOM     29  C   UNL     1      -0.463  10.934  20.395  0.00  0.00    +0.000 A 
ATOM     30  C   UNL     1      -1.259  11.723  21.241  0.00  0.00    +0.000 A 
ATOM     31  C   UNL     1      -1.394  11.425  22.597  0.00  0.00    +0.000 A 
ATOM     32  C   UNL     1      -0.734  10.323  23.122  0.00  0.00    +0.000 A 
ATOM     33  C   UNL     1       0.068   9.532  22.293  0.00  0.00    +0.000 A 
ATOM     34  C   UNL     1       0.237   9.816  20.913  0.00  0.00    +0.000 A 
ENDBRANCH  24  25
ENDBRANCH  23  24
ENDBRANCH  15  23
TORSDOF 5
ENDMDL
MODEL 4
REMARK VINA RESULT:      -7.8      4.614     10.028
REMARK  Name = 
REMARK  8 active torsions:
REMARK  status: ('A' for Active; 'I' for Inactive)
REMARK    1  A    between atoms: C_1  and  O_2
REMARK    2  A    between atoms: O_2  and  C_3
REMARK    3  A    between atoms: C_8  and  C_9
REMARK    4  A    between atoms: C_15  and  O_16
REMARK    5  A    between atoms: O_16  and  C_17
REMARK    6  A    between atoms: C_19  and  O_20
REMARK    7  A    between atoms: O_20  and  C_21
REMARK    8  A    between atoms: C_21  and  C_22
REMARK                            x       y       z     vdW  Elec       q    Type
REMARK                         _______ _______ _______ _____ _____    ______ ____
ROOT
ATOM      1  C   UNL     1       5.678   4.395  14.449  0.00  0.00    +0.000 C 
ATOM      2  C   UNL     1       6.652   4.861  13.646  0.00  0.00    +0.000 C 
ATOM      3  C   UNL     1       7.865   5.517  14.184  0.00  0.00    +0.000 C 
ATOM      4  O   UNL     1       8.685   5.982  13.395  0.00  0.00    +0.000 OA
ATOM      5  C   UNL     1       8.035   5.643  15.676  0.00  0.00    +0.000 C 
ATOM      6  C   UNL     1       7.246   4.580  16.443  0.00  0.00    +0.000 C 
ATOM      7  C   UNL     1       7.400   4.805  17.952  0.00  0.00    +0.000 C 
ATOM      8  C   UNL     1       5.775   4.489  15.972  0.00  0.00    +0.000 C 
ATOM      9  O   UNL     1       5.192   3.301  16.582  0.00  0.00    +0.000 OA
ATOM     10  C   UNL     1       4.104   3.719  17.313  0.00  0.00    +0.000 A 
ATOM     11  C   UNL     1       3.286   2.867  18.048  0.00  0.00    +0.000 A 
ATOM     12 CL   UNL     1       3.600   1.169  18.058  0.00  0.00    +0.000 Cl
ATOM     13  C   UNL     1       2.217   3.412  18.775  0.00  0.00    +0.000 A 
ATOM     14  C   UNL     1       2.003   4.799  18.738  0.00  0.00    +0.000 A 
ATOM     15  C   UNL     1       2.786   5.652  17.948  0.00  0.00    +0.000 A 
ATOM     16  C   UNL     1       3.853   5.081  17.274  0.00  0.00    +0.000 A 
ATOM     17  C   UNL     1       4.891   5.647  16.439  0.00  0.00    +0.000 C 
ATOM     18  O   UNL     1       5.026   6.829  16.179  0.00  0.00    +0.000 OA
ENDROOT
BRANCH   1  20
ATOM     19  C   UNL     1       4.468   3.344  12.650  0.00  0.00    +0.000 C 
ATOM     20  O   UNL     1       4.509   3.800  14.000  0.00  0.00    +0.000 OA
ENDBRANCH   1  20
BRANCH  13  21
ATOM     21  O   UNL     1       1.419   2.555  19.493  0.00  0.00    +0.000 OA
ATOM     22  C   UNL     1       1.271   2.810  20.888  0.00  0.00    +0.000 C 
ENDBRANCH  13  21
BRANCH  15  23
ATOM     23  O   UNL     1       2.528   6.987  17.815  0.00  0.00    +0.000 OA
BRANCH  23  24
ATOM     24  C   UNL     1       2.467   7.717  19.055  0.00  0.00    +0.000 C 
BRANCH  24  25
ATOM     25  C   UNL     1       1.406   8.792  19.086  0.00  0.00    +0.000 A 
ATOM     26  C   UNL     1       0.897   9.279  17.870  0.00  0.00    +0.000 A 
ATOM     27  C   UNL     1      -0.120  10.223  17.859  0.00  0.00    +0.000 A 
ATOM     28  C   UNL     1      -0.643  10.692  19.059  0.00  0.00    +0.000 A 
ATOM     29  C   UNL     1      -0.176  10.213  20.290  0.00  0.00    +0.000 A 
ATOM     30  C   UNL     1      -0.738  10.689  21.486  0.00  0.00    +0.000 A 
ATOM     31  C   UNL     1      -0.317  10.211  22.727  0.00  0.00    +0.000 A 
ATOM     32  C   UNL     1       0.672   9.241  22.783  0.00  0.00    +0.000 A 
ATOM     33  C   UNL     1       1.247   8.762  21.601  0.00  0.00    +0.000 A 
ATOM     34  C   UNL     1       0.851   9.237  20.324  0.00  0.00    +0.000 A 
ENDBRANCH  24  25
ENDBRANCH  23  24
ENDBRANCH  15  23
TORSDOF 5
ENDMDL
MODEL 5
REMARK VINA RESULT:      -7.6      2.443      4.169
REMARK  Name = 
REMARK  8 active torsions:
REMARK  status: ('A' for Active; 'I' for Inactive)
REMARK    1  A    between atoms: C_1  and  O_2
REMARK    2  A    between atoms: O_2  and  C_3
REMARK    3  A    between atoms: C_8  and  C_9
REMARK    4  A    between atoms: C_15  and  O_16
REMARK    5  A    between atoms: O_16  and  C_17
REMARK    6  A    between atoms: C_19  and  O_20
REMARK    7  A    between atoms: O_20  and  C_21
REMARK    8  A    between atoms: C_21  and  C_22
REMARK                            x       y       z     vdW  Elec       q    Type
REMARK                         _______ _______ _______ _____ _____    ______ ____
ROOT
ATOM      1  C   UNL     1       1.814  15.641  21.549  0.00  0.00    +0.000 C 
ATOM      2  C   UNL     1       2.921  16.165  20.991  0.00  0.00    +0.000 C 
ATOM      3  C   UNL     1       3.269  15.930  19.572  0.00  0.00    +0.000 C 
ATOM      4  O   UNL     1       4.329  16.380  19.141  0.00  0.00    +0.000 OA
ATOM      5  C   UNL     1       2.344  15.108  18.711  0.00  0.00    +0.000 C 
ATOM      6  C   UNL     1       0.906  15.115  19.233  0.00  0.00    +0.000 C 
ATOM      7  C   UNL     1       0.032  14.204  18.362  0.00  0.00    +0.000 C 
ATOM      8  C   UNL     1       0.829  14.794  20.745  0.00  0.00    +0.000 C 
ATOM      9  O   UNL     1      -0.534  15.065  21.182  0.00  0.00    +0.000 OA
ATOM     10  C   UNL     1      -1.025  13.895  21.714  0.00  0.00    +0.000 A 
ATOM     11  C   UNL     1      -2.306  13.755  22.238  0.00  0.00    +0.000 A 
ATOM     12 CL   UNL     1      -3.378  15.109  22.265  0.00  0.00    +0.000 Cl
ATOM     13  C   UNL     1      -2.703  12.504  22.733  0.00  0.00    +0.000 A 
ATOM     14  C   UNL     1      -1.797  11.432  22.688  0.00  0.00    +0.000 A 
ATOM     15  C   UNL     1      -0.485  11.586  22.219  0.00  0.00    +0.000 A 
ATOM     16  C   UNL     1      -0.143  12.826  21.706  0.00  0.00    +0.000 A 
ATOM     17  C   UNL     1       1.069  13.323  21.089  0.00  0.00    +0.000 C 
ATOM     18  O   UNL     1       2.076  12.672  20.880  0.00  0.00    +0.000 OA
ENDROOT
BRANCH   1  20
ATOM     19  C   UNL     1       1.426  17.127  23.406  0.00  0.00    +0.000 C 
ATOM     20  O   UNL     1       1.455  15.803  22.879  0.00  0.00    +0.000 OA
ENDBRANCH   1  20
BRANCH  13  21
ATOM     21  O   UNL     1      -3.972  12.385  23.247  0.00  0.00    +0.000 OA
ATOM     22  C   UNL     1      -4.114  12.440  24.665  0.00  0.00    +0.000 C 
ENDBRANCH  13  21
BRANCH  15  23
ATOM     23  O   UNL     1       0.443  10.584  22.266  0.00  0.00    +0.000 OA
BRANCH  23  24
ATOM     24  C   UNL     1       0.076   9.387  21.554  0.00  0.00    +0.000 C 
BRANCH  24  25
ATOM     25  C   UNL     1       0.807   9.200  20.246  0.00  0.00    +0.000 A 
ATOM     26  C   UNL     1       0.866  10.274  19.341  0.00  0.00    +0.000 A 
ATOM     27  C   UNL     1       1.579  10.159  18.156  0.00  0.00    +0.000 A 
ATOM     28  C   UNL     1       2.242   8.973  17.859  0.00  0.00    +0.000 A 
ATOM     29  C   UNL     1       2.224   7.890  18.746  0.00  0.00    +0.000 A 
ATOM     30  C   UNL     1       2.920   6.712  18.428  0.00  0.00    +0.000 A 
ATOM     31  C   UNL     1       2.947   5.626  19.304  0.00  0.00    +0.000 A 
ATOM     32  C   UNL     1       2.277   5.711  20.516  0.00  0.00    +0.000 A 
ATOM     33  C   UNL     1       1.573   6.874  20.843  0.00  0.00    +0.000 A 
ATOM     34  C   UNL     1       1.515   7.991  19.969  0.00  0.00    +0.000 A 
ENDBRANCH  24  25
ENDBRANCH  23  24
ENDBRANCH  15  23
TORSDOF 5
ENDMDL
MODEL 6
REMARK VINA RESULT:      -7.6      2.547      4.147
REMARK  Name = 
REMARK  8 active torsions:
REMARK  status: ('A' for Active; 'I' for Inactive)
REMARK    1  A    between atoms: C_1  and  O_2
REMARK    2  A    between atoms: O_2  and  C_3
REMARK    3  A    between atoms: C_8  and  C_9
REMARK    4  A    between atoms: C_15  and  O_16
REMARK    5  A    between atoms: O_16  and  C_17
REMARK    6  A    between atoms: C_19  and  O_20
REMARK    7  A    between atoms: O_20  and  C_21
REMARK    8  A    between atoms: C_21  and  C_22
REMARK                            x       y       z     vdW  Elec       q    Type
REMARK                         _______ _______ _______ _____ _____    ______ ____
ROOT
ATOM      1  C   UNL     1       3.455  14.528  20.822  0.00  0.00    +0.000 C 
ATOM      2  C   UNL     1       4.403  15.163  20.108  0.00  0.00    +0.000 C 
ATOM      3  C   UNL     1       4.111  15.782  18.795  0.00  0.00    +0.000 C 
ATOM      4  O   UNL     1       5.035  16.288  18.161  0.00  0.00    +0.000 OA
ATOM      5  C   UNL     1       2.707  15.730  18.250  0.00  0.00    +0.000 C 
ATOM      6  C   UNL     1       1.660  15.574  19.355  0.00  0.00    +0.000 C 
ATOM      7  C   UNL     1       0.263  15.454  18.736  0.00  0.00    +0.000 C 
ATOM      8  C   UNL     1       2.010  14.429  20.335  0.00  0.00    +0.000 C 
ATOM      9  O   UNL     1       1.097  14.527  21.467  0.00  0.00    +0.000 OA
ATOM     10  C   UNL     1       0.427  13.327  21.546  0.00  0.00    +0.000 A 
ATOM     11  C   UNL     1      -0.538  13.036  22.505  0.00  0.00    +0.000 A 
ATOM     12 CL   UNL     1      -0.943  14.211  23.703  0.00  0.00    +0.000 Cl
ATOM     13  C   UNL     1      -1.171  11.784  22.472  0.00  0.00    +0.000 A 
ATOM     14  C   UNL     1      -0.810  10.862  21.476  0.00  0.00    +0.000 A 
ATOM     15  C   UNL     1       0.208  11.128  20.550  0.00  0.00    +0.000 A 
ATOM     16  C   UNL     1       0.782  12.387  20.591  0.00  0.00    +0.000 A 
ATOM     17  C   UNL     1       1.788  13.026  19.770  0.00  0.00    +0.000 C 
ATOM     18  O   UNL     1       2.336  12.526  18.803  0.00  0.00    +0.000 OA
ENDROOT
BRANCH   1  20
ATOM     19  C   UNL     1       5.019  13.836  22.520  0.00  0.00    +0.000 C 
ATOM     20  O   UNL     1       3.678  13.905  22.041  0.00  0.00    +0.000 OA
ENDBRANCH   1  20
BRANCH  13  21
ATOM     21  O   UNL     1      -2.121  11.515  23.427  0.00  0.00    +0.000 OA
ATOM     22  C   UNL     1      -3.382  12.168  23.302  0.00  0.00    +0.000 C 
ENDBRANCH  13  21
BRANCH  15  23
ATOM     23  O   UNL     1       0.646  10.205  19.643  0.00  0.00    +0.000 OA
BRANCH  23  24
ATOM     24  C   UNL     1       1.013   8.931  20.205  0.00  0.00    +0.000 C 
BRANCH  24  25
ATOM     25  C   UNL     1       1.894   8.092  19.310  0.00  0.00    +0.000 A 
ATOM     26  C   UNL     1       2.482   8.691  18.183  0.00  0.00    +0.000 A 
ATOM     27  C   UNL     1       3.344   7.969  17.370  0.00  0.00    +0.000 A 
ATOM     28  C   UNL     1       3.632   6.642  17.672  0.00  0.00    +0.000 A 
ATOM     29  C   UNL     1       3.082   6.018  18.799  0.00  0.00    +0.000 A 
ATOM     30  C   UNL     1       3.407   4.684  19.091  0.00  0.00    +0.000 A 
ATOM     31  C   UNL     1       2.899   4.043  20.222  0.00  0.00    +0.000 A 
ATOM     32  C   UNL     1       2.062   4.739  21.081  0.00  0.00    +0.000 A 
ATOM     33  C   UNL     1       1.723   6.067  20.800  0.00  0.00    +0.000 A 
ATOM     34  C   UNL     1       2.211   6.743  19.652  0.00  0.00    +0.000 A 
ENDBRANCH  24  25
ENDBRANCH  23  24
ENDBRANCH  15  23
TORSDOF 5
ENDMDL
MODEL 7
REMARK VINA RESULT:      -7.5      4.315      9.821
REMARK  Name = 
REMARK  8 active torsions:
REMARK  status: ('A' for Active; 'I' for Inactive)
REMARK    1  A    between atoms: C_1  and  O_2
REMARK    2  A    between atoms: O_2  and  C_3
REMARK    3  A    between atoms: C_8  and  C_9
REMARK    4  A    between atoms: C_15  and  O_16
REMARK    5  A    between atoms: O_16  and  C_17
REMARK    6  A    between atoms: C_19  and  O_20
REMARK    7  A    between atoms: O_20  and  C_21
REMARK    8  A    between atoms: C_21  and  C_22
REMARK                            x       y       z     vdW  Elec       q    Type
REMARK                         _______ _______ _______ _____ _____    ______ ____
ROOT
ATOM      1  C   UNL     1       5.292   3.835  16.346  0.00  0.00    +0.000 C 
ATOM      2  C   UNL     1       6.044   4.150  15.275  0.00  0.00    +0.000 C 
ATOM      3  C   UNL     1       7.091   5.195  15.333  0.00  0.00    +0.000 C 
ATOM      4  O   UNL     1       7.696   5.484  14.303  0.00  0.00    +0.000 OA
ATOM      5  C   UNL     1       7.349   5.910  16.635  0.00  0.00    +0.000 C 
ATOM      6  C   UNL     1       6.924   5.080  17.848  0.00  0.00    +0.000 C 
ATOM      7  C   UNL     1       7.142   5.887  19.133  0.00  0.00    +0.000 C 
ATOM      8  C   UNL     1       5.490   4.517  17.699  0.00  0.00    +0.000 C 
ATOM      9  O   UNL     1       5.283   3.557  18.775  0.00  0.00    +0.000 OA
ATOM     10  C   UNL     1       4.190   3.988  19.492  0.00  0.00    +0.000 A 
ATOM     11  C   UNL     1       3.681   3.330  20.607  0.00  0.00    +0.000 A 
ATOM     12 CL   UNL     1       4.417   1.866  21.153  0.00  0.00    +0.000 Cl
ATOM     13  C   UNL     1       2.573   3.878  21.271  0.00  0.00    +0.000 A 
ATOM     14  C   UNL     1       2.010   5.071  20.791  0.00  0.00    +0.000 A 
ATOM     15  C   UNL     1       2.481   5.702  19.631  0.00  0.00    +0.000 A 
ATOM     16  C   UNL     1       3.598   5.151  19.025  0.00  0.00    +0.000 A 
ATOM     17  C   UNL     1       4.383   5.557  17.879  0.00  0.00    +0.000 C 
ATOM     18  O   UNL     1       4.190   6.552  17.204  0.00  0.00    +0.000 OA
ENDROOT
BRANCH   1  20
ATOM     19  C   UNL     1       2.934   3.347  16.247  0.00  0.00    +0.000 C 
ATOM     20  O   UNL     1       4.280   2.887  16.341  0.00  0.00    +0.000 OA
ENDBRANCH   1  20
BRANCH  13  21
ATOM     21  O   UNL     1       2.084   3.213  22.370  0.00  0.00    +0.000 OA
ATOM     22  C   UNL     1       1.078   2.228  22.147  0.00  0.00    +0.000 C 
ENDBRANCH  13  21
BRANCH  15  23
ATOM     23  O   UNL     1       1.881   6.803  19.089  0.00  0.00    +0.000 OA
BRANCH  23  24
ATOM     24  C   UNL     1       2.341   8.063  19.613  0.00  0.00    +0.000 C 
BRANCH  24  25
ATOM     25  C   UNL     1       1.329   8.778  20.476  0.00  0.00    +0.000 A 
ATOM     26  C   UNL     1       1.380   8.602  21.870  0.00  0.00    +0.000 A 
ATOM     27  C   UNL     1       0.505   9.288  22.700  0.00  0.00    +0.000 A 
ATOM     28  C   UNL     1      -0.430  10.160  22.151  0.00  0.00    +0.000 A 
ATOM     29  C   UNL     1      -0.496  10.377  20.769  0.00  0.00    +0.000 A 
ATOM     30  C   UNL     1      -1.437  11.279  20.245  0.00  0.00    +0.000 A 
ATOM     31  C   UNL     1      -1.509  11.540  18.876  0.00  0.00    +0.000 A 
ATOM     32  C   UNL     1      -0.629  10.903  18.014  0.00  0.00    +0.000 A 
ATOM     33  C   UNL     1       0.309   9.996  18.520  0.00  0.00    +0.000 A 
ATOM     34  C   UNL     1       0.399   9.698  19.904  0.00  0.00    +0.000 A 
ENDBRANCH  24  25
ENDBRANCH  23  24
ENDBRANCH  15  23
TORSDOF 5
ENDMDL
MODEL 8
REMARK VINA RESULT:      -7.4      1.333      2.274
REMARK  Name = 
REMARK  8 active torsions:
REMARK  status: ('A' for Active; 'I' for Inactive)
REMARK    1  A    between atoms: C_1  and  O_2
REMARK    2  A    between atoms: O_2  and  C_3
REMARK    3  A    between atoms: C_8  and  C_9
REMARK    4  A    between atoms: C_15  and  O_16
REMARK    5  A    between atoms: O_16  and  C_17
REMARK    6  A    between atoms: C_19  and  O_20
REMARK    7  A    between atoms: O_20  and  C_21
REMARK    8  A    between atoms: C_21  and  C_22
REMARK                            x       y       z     vdW  Elec       q    Type
REMARK                         _______ _______ _______ _____ _____    ______ ____
ROOT
ATOM      1  C   UNL     1      -1.997  13.404  22.913  0.00  0.00    +0.000 C 
ATOM      2  C   UNL     1      -1.590  14.154  23.953  0.00  0.00    +0.000 C 
ATOM      3  C   UNL     1      -1.068  15.528  23.771  0.00  0.00    +0.000 C 
ATOM      4  O   UNL     1      -0.647  16.136  24.753  0.00  0.00    +0.000 OA
ATOM      5  C   UNL     1      -1.018  16.121  22.386  0.00  0.00    +0.000 C 
ATOM      6  C   UNL     1      -2.036  15.478  21.442  0.00  0.00    +0.000 C 
ATOM      7  C   UNL     1      -1.888  16.069  20.035  0.00  0.00    +0.000 C 
ATOM      8  C   UNL     1      -1.975  13.932  21.480  0.00  0.00    +0.000 C 
ATOM      9  O   UNL     1      -3.129  13.430  20.746  0.00  0.00    +0.000 OA
ATOM     10  C   UNL     1      -2.645  12.637  19.731  0.00  0.00    +0.000 A 
ATOM     11  C   UNL     1      -3.449  11.977  18.807  0.00  0.00    +0.000 A 
ATOM     12 CL   UNL     1      -5.168  12.114  18.909  0.00  0.00    +0.000 Cl
ATOM     13  C   UNL     1      -2.840  11.214  17.800  0.00  0.00    +0.000 A 
ATOM     14  C   UNL     1      -1.439  11.135  17.756  0.00  0.00    +0.000 A 
ATOM     15  C   UNL     1      -0.629  11.745  18.724  0.00  0.00    +0.000 A 
ATOM     16  C   UNL     1      -1.265  12.520  19.679  0.00  0.00    +0.000 A 
ATOM     17  C   UNL     1      -0.762  13.332  20.766  0.00  0.00    +0.000 C 
ATOM     18  O   UNL     1       0.412  13.505  21.038  0.00  0.00    +0.000 OA
ENDROOT
BRANCH   1  20
ATOM     19  C   UNL     1      -1.513  11.065  23.237  0.00  0.00    +0.000 C 
ATOM     20  O   UNL     1      -2.467  12.103  23.022  0.00  0.00    +0.000 OA
ENDBRANCH   1  20
BRANCH  13  21
ATOM     21  O   UNL     1      -3.650  10.569  16.897  0.00  0.00    +0.000 OA
ATOM     22  C   UNL     1      -3.162  10.421  15.566  0.00  0.00    +0.000 C 
ENDBRANCH  13  21
BRANCH  15  23
ATOM     23  O   UNL     1       0.729  11.592  18.760  0.00  0.00    +0.000 OA
BRANCH  23  24
ATOM     24  C   UNL     1       1.214  10.360  18.192  0.00  0.00    +0.000 C 
BRANCH  24  25
ATOM     25  C   UNL     1       1.379   9.243  19.195  0.00  0.00    +0.000 A 
ATOM     26  C   UNL     1       0.640   9.288  20.390  0.00  0.00    +0.000 A 
ATOM     27  C   UNL     1       0.720   8.251  21.308  0.00  0.00    +0.000 A 
ATOM     28  C   UNL     1       1.537   7.156  21.046  0.00  0.00    +0.000 A 
ATOM     29  C   UNL     1       2.272   7.066  19.857  0.00  0.00    +0.000 A 
ATOM     30  C   UNL     1       3.072   5.939  19.611  0.00  0.00    +0.000 A 
ATOM     31  C   UNL     1       3.792   5.805  18.423  0.00  0.00    +0.000 A 
ATOM     32  C   UNL     1       3.713   6.802  17.462  0.00  0.00    +0.000 A 
ATOM     33  C   UNL     1       2.925   7.934  17.696  0.00  0.00    +0.000 A 
ATOM     34  C   UNL     1       2.191   8.107  18.898  0.00  0.00    +0.000 A 
ENDBRANCH  24  25
ENDBRANCH  23  24
ENDBRANCH  15  23
TORSDOF 5
ENDMDL
MODEL 9
REMARK VINA RESULT:      -7.4      1.860      2.964
REMARK  Name = 
REMARK  8 active torsions:
REMARK  status: ('A' for Active; 'I' for Inactive)
REMARK    1  A    between atoms: C_1  and  O_2
REMARK    2  A    between atoms: O_2  and  C_3
REMARK    3  A    between atoms: C_8  and  C_9
REMARK    4  A    between atoms: C_15  and  O_16
REMARK    5  A    between atoms: O_16  and  C_17
REMARK    6  A    between atoms: C_19  and  O_20
REMARK    7  A    between atoms: O_20  and  C_21
REMARK    8  A    between atoms: C_21  and  C_22
REMARK                            x       y       z     vdW  Elec       q    Type
REMARK                         _______ _______ _______ _____ _____    ______ ____
ROOT
ATOM      1  C   UNL     1      -2.935  13.834  23.518  0.00  0.00    +0.000 C 
ATOM      2  C   UNL     1      -2.550  14.594  24.560  0.00  0.00    +0.000 C 
ATOM      3  C   UNL     1      -2.018  15.963  24.376  0.00  0.00    +0.000 C 
ATOM      4  O   UNL     1      -1.620  16.580  25.363  0.00  0.00    +0.000 OA
ATOM      5  C   UNL     1      -1.930  16.541  22.987  0.00  0.00    +0.000 C 
ATOM      6  C   UNL     1      -2.926  15.893  22.024  0.00  0.00    +0.000 C 
ATOM      7  C   UNL     1      -2.739  16.468  20.615  0.00  0.00    +0.000 C 
ATOM      8  C   UNL     1      -2.873  14.347  22.079  0.00  0.00    +0.000 C 
ATOM      9  O   UNL     1      -4.010  13.842  21.322  0.00  0.00    +0.000 OA
ATOM     10  C   UNL     1      -3.504  13.036  20.328  0.00  0.00    +0.000 A 
ATOM     11  C   UNL     1      -4.287  12.370  19.391  0.00  0.00    +0.000 A 
ATOM     12 CL   UNL     1      -6.007  12.515  19.447  0.00  0.00    +0.000 Cl
ATOM     13  C   UNL     1      -3.655  11.593  18.408  0.00  0.00    +0.000 A 
ATOM     14  C   UNL     1      -2.254  11.507  18.401  0.00  0.00    +0.000 A 
ATOM     15  C   UNL     1      -1.466  12.125  19.383  0.00  0.00    +0.000 A 
ATOM     16  C   UNL     1      -2.124  12.912  20.313  0.00  0.00    +0.000 A 
ATOM     17  C   UNL     1      -1.645  13.734  21.404  0.00  0.00    +0.000 C 
ATOM     18  O   UNL     1      -0.477  13.904  21.704  0.00  0.00    +0.000 OA
ENDROOT
BRANCH   1  20
ATOM     19  C   UNL     1      -4.376  12.264  24.643  0.00  0.00    +0.000 C 
ATOM     20  O   UNL     1      -3.413  12.537  23.628  0.00  0.00    +0.000 OA
ENDBRANCH   1  20
BRANCH  13  21
ATOM     21  O   UNL     1      -4.445  10.942  17.491  0.00  0.00    +0.000 OA
ATOM     22  C   UNL     1      -4.062  11.021  16.120  0.00  0.00    +0.000 C 
ENDBRANCH  13  21
BRANCH  15  23
ATOM     23  O   UNL     1      -0.111  11.966  19.455  0.00  0.00    +0.000 OA
BRANCH  23  24
ATOM     24  C   UNL     1       0.407  10.845  18.714  0.00  0.00    +0.000 C 
BRANCH  24  25
ATOM     25  C   UNL     1       0.824   9.677  19.576  0.00  0.00    +0.000 A 
ATOM     26  C   UNL     1       0.277   9.554  20.865  0.00  0.00    +0.000 A 
ATOM     27  C   UNL     1       0.590   8.463  21.663  0.00  0.00    +0.000 A 
ATOM     28  C   UNL     1       1.451   7.480  21.185  0.00  0.00    +0.000 A 
ATOM     29  C   UNL     1       1.998   7.557  19.898  0.00  0.00    +0.000 A 
ATOM     30  C   UNL     1       2.848   6.540  19.435  0.00  0.00    +0.000 A 
ATOM     31  C   UNL     1       3.385   6.571  18.148  0.00  0.00    +0.000 A 
ATOM     32  C   UNL     1       3.070   7.626  17.304  0.00  0.00    +0.000 A 
ATOM     33  C   UNL     1       2.230   8.651  17.753  0.00  0.00    +0.000 A 
ATOM     34  C   UNL     1       1.679   8.655  19.061  0.00  0.00    +0.000 A 
ENDBRANCH  24  25
ENDBRANCH  23  24
ENDBRANCH  15  23
TORSDOF 5
ENDMDL
