MODEL 1
REMARK VINA RESULT:      -8.0      0.000      0.000
REMARK  Name = 
REMARK  5 active torsions:
REMARK  status: ('A' for Active; 'I' for Inactive)
REMARK    1  A    between atoms: O_1  and  C_2
REMARK    2  A    between atoms: C_8  and  N_9
REMARK    3  A    between atoms: N_12  and  C_13
REMARK    4  A    between atoms: C_13  and  C_14
REMARK    5  A    between atoms: C_18  and  C_19
REMARK                            x       y       z     vdW  Elec       q    Type
REMARK                         _______ _______ _______ _____ _____    ______ ____
ROOT
ATOM      1  N   UNL     1       1.120  12.047  18.788  0.00  0.00    +0.000 N 
ATOM      2  C   UNL     1       0.485  11.665  20.066  0.00  0.00    +0.000 C 
ATOM      3  C   UNL     1      -0.285  10.325  19.900  0.00  0.00    +0.000 C 
ATOM      4  N   UNL     1       0.510   9.206  19.328  0.00  0.00    +0.000 NA
ATOM      5  C   UNL     1       1.089   9.700  18.050  0.00  0.00    +0.000 C 
ATOM      6  C   UNL     1       1.954  10.973  18.200  0.00  0.00    +0.000 C 
ENDROOT
BRANCH   1  13
ATOM      7  C   UNL     1      -0.389  16.146  18.889  0.00  0.00    +0.000 A 
ATOM      8  N   UNL     1       0.707  16.814  18.698  0.00  0.00    +0.000 NA
ATOM      9  C   UNL     1       1.638  15.806  18.597  0.00  0.00    +0.000 A 
ATOM     10  C   UNL     1       3.020  15.875  18.391  0.00  0.00    +0.000 A 
ATOM     11  C   UNL     1       3.731  14.677  18.324  0.00  0.00    +0.000 A 
ATOM     12  C   UNL     1       3.078  13.447  18.469  0.00  0.00    +0.000 A 
ATOM     13  C   UNL     1       1.684  13.325  18.691  0.00  0.00    +0.000 A 
ATOM     14  C   UNL     1       1.023  14.564  18.732  0.00  0.00    +0.000 A 
ATOM     15  O   UNL     1      -0.317  14.797  18.925  0.00  0.00    +0.000 OA
BRANCH   7  16
ATOM     16  O   UNL     1      -1.582  16.685  19.052  0.00  0.00    +0.000 OA
ATOM     17  H   UNL     1      -1.925  16.146  19.783  0.00  0.00    +0.000 HD
ENDBRANCH   7  16
ENDBRANCH   1  13
BRANCH   4  18
ATOM     18  C   UNL     1       1.555   8.762  20.286  0.00  0.00    +0.000 C 
BRANCH  18  19
ATOM     19  C   UNL     1       1.988   7.318  20.090  0.00  0.00    +0.000 A 
ATOM     20  C   UNL     1       1.425   6.307  20.861  0.00  0.00    +0.000 A 
ATOM     21  C   UNL     1       1.656   4.987  20.497  0.00  0.00    +0.000 A 
ATOM     22  C   UNL     1       2.448   4.710  19.389  0.00  0.00    +0.000 A 
ATOM     23  C   UNL     1       3.045   5.764  18.703  0.00  0.00    +0.000 A 
ATOM     24  N   UNL     1       2.822   7.057  19.052  0.00  0.00    +0.000 NA
BRANCH  23  25
ATOM     25  C   UNL     1       3.919   5.565  17.532  0.00  0.00    +0.000 A 
ATOM     26  C   UNL     1       4.201   4.263  17.072  0.00  0.00    +0.000 A 
ATOM     27  C   UNL     1       5.020   4.044  15.965  0.00  0.00    +0.000 A 
ATOM     28  C   UNL     1       5.566   5.131  15.298  0.00  0.00    +0.000 A 
ATOM     29  F   UNL     1       6.355   4.925  14.235  0.00  0.00    +0.000 F 
ATOM     30  C   UNL     1       5.314   6.429  15.721  0.00  0.00    +0.000 A 
ATOM     31  C   UNL     1       4.500   6.645  16.837  0.00  0.00    +0.000 A 
ENDBRANCH  23  25
ENDBRANCH  18  19
ENDBRANCH   4  18
TORSDOF 5
ENDMDL
MODEL 2
REMARK VINA RESULT:      -7.9      5.269      9.915
REMARK  Name = 
REMARK  5 active torsions:
REMARK  status: ('A' for Active; 'I' for Inactive)
REMARK    1  A    between atoms: O_1  and  C_2
REMARK    2  A    between atoms: C_8  and  N_9
REMARK    3  A    between atoms: N_12  and  C_13
REMARK    4  A    between atoms: C_13  and  C_14
REMARK    5  A    between atoms: C_18  and  C_19
REMARK                            x       y       z     vdW  Elec       q    Type
REMARK                         _______ _______ _______ _____ _____    ______ ____
ROOT
ATOM      1  N   UNL     1       2.266   7.097  19.635  0.00  0.00    +0.000 N 
ATOM      2  C   UNL     1       1.179   7.808  20.339  0.00  0.00    +0.000 C 
ATOM      3  C   UNL     1       1.245   9.329  20.024  0.00  0.00    +0.000 C 
ATOM      4  N   UNL     1       1.278   9.673  18.579  0.00  0.00    +0.000 NA
ATOM      5  C   UNL     1       2.407   8.912  17.981  0.00  0.00    +0.000 C 
ATOM      6  C   UNL     1       2.313   7.382  18.182  0.00  0.00    +0.000 C 
ENDROOT
BRANCH   1  13
ATOM      7  C   UNL     1       5.462   4.202  18.930  0.00  0.00    +0.000 A 
ATOM      8  N   UNL     1       4.962   3.144  19.492  0.00  0.00    +0.000 NA
ATOM      9  C   UNL     1       3.755   3.616  19.955  0.00  0.00    +0.000 A 
ATOM     10  C   UNL     1       2.742   2.955  20.659  0.00  0.00    +0.000 A 
ATOM     11  C   UNL     1       1.604   3.685  21.005  0.00  0.00    +0.000 A 
ATOM     12  C   UNL     1       1.489   5.038  20.663  0.00  0.00    +0.000 A 
ATOM     13  C   UNL     1       2.491   5.753  19.961  0.00  0.00    +0.000 A 
ATOM     14  C   UNL     1       3.602   4.960  19.628  0.00  0.00    +0.000 A 
ATOM     15  O   UNL     1       4.735   5.342  18.951  0.00  0.00    +0.000 OA
BRANCH   7  16
ATOM     16  O   UNL     1       6.637   4.254  18.334  0.00  0.00    +0.000 OA
ATOM     17  H   UNL     1       7.229   4.079  19.083  0.00  0.00    +0.000 HD
ENDBRANCH   7  16
ENDBRANCH   1  13
BRANCH   4  18
ATOM     18  C   UNL     1      -0.023   9.353  17.934  0.00  0.00    +0.000 C 
BRANCH  18  19
ATOM     19  C   UNL     1      -1.089  10.414  18.152  0.00  0.00    +0.000 A 
ATOM     20  C   UNL     1      -2.131  10.558  17.244  0.00  0.00    +0.000 A 
ATOM     21  C   UNL     1      -3.210  11.359  17.591  0.00  0.00    +0.000 A 
ATOM     22  C   UNL     1      -3.217  12.004  18.823  0.00  0.00    +0.000 A 
ATOM     23  C   UNL     1      -2.109  11.880  19.657  0.00  0.00    +0.000 A 
ATOM     24  N   UNL     1      -1.052  11.096  19.325  0.00  0.00    +0.000 NA
BRANCH  23  25
ATOM     25  C   UNL     1      -2.017  12.545  20.971  0.00  0.00    +0.000 A 
ATOM     26  C   UNL     1      -3.186  12.975  21.629  0.00  0.00    +0.000 A 
ATOM     27  C   UNL     1      -3.131  13.603  22.874  0.00  0.00    +0.000 A 
ATOM     28  C   UNL     1      -1.899  13.804  23.480  0.00  0.00    +0.000 A 
ATOM     29  F   UNL     1      -1.841  14.408  24.673  0.00  0.00    +0.000 F 
ATOM     30  C   UNL     1      -0.725  13.396  22.861  0.00  0.00    +0.000 A 
ATOM     31  C   UNL     1      -0.783  12.776  21.610  0.00  0.00    +0.000 A 
ENDBRANCH  23  25
ENDBRANCH  18  19
ENDBRANCH   4  18
TORSDOF 5
ENDMDL
MODEL 3
REMARK VINA RESULT:      -7.8      1.666      2.536
REMARK  Name = 
REMARK  5 active torsions:
REMARK  status: ('A' for Active; 'I' for Inactive)
REMARK    1  A    between atoms: O_1  and  C_2
REMARK    2  A    between atoms: C_8  and  N_9
REMARK    3  A    between atoms: N_12  and  C_13
REMARK    4  A    between atoms: C_13  and  C_14
REMARK    5  A    between atoms: C_18  and  C_19
REMARK                            x       y       z     vdW  Elec       q    Type
REMARK                         _______ _______ _______ _____ _____    ______ ____
ROOT
ATOM      1  N   UNL     1       0.221  13.589  19.439  0.00  0.00    +0.000 N 
ATOM      2  C   UNL     1       1.201  12.862  20.271  0.00  0.00    +0.000 C 
ATOM      3  C   UNL     1       0.576  11.540  20.799  0.00  0.00    +0.000 C 
ATOM      4  N   UNL     1      -0.016  10.661  19.756  0.00  0.00    +0.000 NA
ATOM      5  C   UNL     1      -0.986  11.492  18.993  0.00  0.00    +0.000 C 
ATOM      6  C   UNL     1      -0.368  12.761  18.361  0.00  0.00    +0.000 C 
ENDROOT
BRANCH   1  13
ATOM      7  C   UNL     1       3.704  15.592  17.720  0.00  0.00    +0.000 A 
ATOM      8  N   UNL     1       3.278  16.816  17.664  0.00  0.00    +0.000 NA
ATOM      9  C   UNL     1       2.004  16.695  18.171  0.00  0.00    +0.000 A 
ATOM     10  C   UNL     1       1.019  17.669  18.368  0.00  0.00    +0.000 A 
ATOM     11  C   UNL     1      -0.201  17.263  18.912  0.00  0.00    +0.000 A 
ATOM     12  C   UNL     1      -0.428  15.920  19.238  0.00  0.00    +0.000 A 
ATOM     13  C   UNL     1       0.533  14.898  19.047  0.00  0.00    +0.000 A 
ATOM     14  C   UNL     1       1.742  15.372  18.513  0.00  0.00    +0.000 A 
ATOM     15  O   UNL     1       2.871  14.647  18.212  0.00  0.00    +0.000 OA
BRANCH   7  16
ATOM     16  O   UNL     1       4.898  15.190  17.332  0.00  0.00    +0.000 OA
ATOM     17  H   UNL     1       4.862  14.252  17.577  0.00  0.00    +0.000 HD
ENDBRANCH   7  16
ENDBRANCH   1  13
BRANCH   4  18
ATOM     18  C   UNL     1       1.046  10.091  18.886  0.00  0.00    +0.000 C 
BRANCH  18  19
ATOM     19  C   UNL     1       1.597   8.766  19.386  0.00  0.00    +0.000 A 
ATOM     20  C   UNL     1       1.166   8.241  20.598  0.00  0.00    +0.000 A 
ATOM     21  C   UNL     1       1.498   6.929  20.910  0.00  0.00    +0.000 A 
ATOM     22  C   UNL     1       2.257   6.183  20.015  0.00  0.00    +0.000 A 
ATOM     23  C   UNL     1       2.722   6.790  18.852  0.00  0.00    +0.000 A 
ATOM     24  N   UNL     1       2.399   8.071  18.540  0.00  0.00    +0.000 NA
BRANCH  23  25
ATOM     25  C   UNL     1       3.552   6.085  17.857  0.00  0.00    +0.000 A 
ATOM     26  C   UNL     1       3.430   4.690  17.694  0.00  0.00    +0.000 A 
ATOM     27  C   UNL     1       4.198   3.997  16.759  0.00  0.00    +0.000 A 
ATOM     28  C   UNL     1       5.098   4.695  15.967  0.00  0.00    +0.000 A 
ATOM     29  F   UNL     1       5.839   4.034  15.069  0.00  0.00    +0.000 F 
ATOM     30  C   UNL     1       5.249   6.069  16.099  0.00  0.00    +0.000 A 
ATOM     31  C   UNL     1       4.484   6.760  17.044  0.00  0.00    +0.000 A 
ENDBRANCH  23  25
ENDBRANCH  18  19
ENDBRANCH   4  18
TORSDOF 5
ENDMDL
MODEL 4
REMARK VINA RESULT:      -7.8      3.163      3.749
REMARK  Name = 
REMARK  5 active torsions:
REMARK  status: ('A' for Active; 'I' for Inactive)
REMARK    1  A    between atoms: O_1  and  C_2
REMARK    2  A    between atoms: C_8  and  N_9
REMARK    3  A    between atoms: N_12  and  C_13
REMARK    4  A    between atoms: C_13  and  C_14
REMARK    5  A    between atoms: C_18  and  C_19
REMARK                            x       y       z     vdW  Elec       q    Type
REMARK                         _______ _______ _______ _____ _____    ______ ____
ROOT
ATOM      1  N   UNL     1       0.042   9.824  19.768  0.00  0.00    +0.000 N 
ATOM      2  C   UNL     1       0.721   8.994  18.753  0.00  0.00    +0.000 C 
ATOM      3  C   UNL     1       2.080   8.479  19.306  0.00  0.00    +0.000 C 
ATOM      4  N   UNL     1       2.005   7.787  20.619  0.00  0.00    +0.000 NA
ATOM      5  C   UNL     1       1.316   8.715  21.556  0.00  0.00    +0.000 C 
ATOM      6  C   UNL     1      -0.088   9.158  21.085  0.00  0.00    +0.000 C 
ENDROOT
BRANCH   1  13
ATOM      7  C   UNL     1      -2.192  13.240  21.330  0.00  0.00    +0.000 A 
ATOM      8  N   UNL     1      -3.153  13.320  20.462  0.00  0.00    +0.000 NA
ATOM      9  C   UNL     1      -2.846  12.287  19.606  0.00  0.00    +0.000 A 
ATOM     10  C   UNL     1      -3.506  11.851  18.451  0.00  0.00    +0.000 A 
ATOM     11  C   UNL     1      -2.970  10.759  17.767  0.00  0.00    +0.000 A 
ATOM     12  C   UNL     1      -1.804  10.131  18.221  0.00  0.00    +0.000 A 
ATOM     13  C   UNL     1      -1.096  10.542  19.377  0.00  0.00    +0.000 A 
ATOM     14  C   UNL     1      -1.693  11.633  20.029  0.00  0.00    +0.000 A 
ATOM     15  O   UNL     1      -1.265  12.269  21.170  0.00  0.00    +0.000 OA
BRANCH   7  16
ATOM     16  O   UNL     1      -2.045  14.039  22.368  0.00  0.00    +0.000 OA
ATOM     17  H   UNL     1      -1.351  13.571  22.860  0.00  0.00    +0.000 HD
ENDBRANCH   7  16
ENDBRANCH   1  13
BRANCH   4  18
ATOM     18  C   UNL     1       1.296   6.488  20.488  0.00  0.00    +0.000 C 
BRANCH  18  19
ATOM     19  C   UNL     1       2.228   5.292  20.384  0.00  0.00    +0.000 A 
ATOM     20  C   UNL     1       2.015   4.167  21.173  0.00  0.00    +0.000 A 
ATOM     21  C   UNL     1       2.726   3.010  20.886  0.00  0.00    +0.000 A 
ATOM     22  C   UNL     1       3.636   3.006  19.835  0.00  0.00    +0.000 A 
ATOM     23  C   UNL     1       3.859   4.186  19.130  0.00  0.00    +0.000 A 
ATOM     24  N   UNL     1       3.166   5.321  19.404  0.00  0.00    +0.000 NA
BRANCH  23  25
ATOM     25  C   UNL     1       4.821   4.284  18.016  0.00  0.00    +0.000 A 
ATOM     26  C   UNL     1       6.165   4.620  18.269  0.00  0.00    +0.000 A 
ATOM     27  C   UNL     1       7.098   4.715  17.236  0.00  0.00    +0.000 A 
ATOM     28  C   UNL     1       6.695   4.470  15.932  0.00  0.00    +0.000 A 
ATOM     29  F   UNL     1       7.587   4.562  14.937  0.00  0.00    +0.000 F 
ATOM     30  C   UNL     1       5.379   4.138  15.642  0.00  0.00    +0.000 A 
ATOM     31  C   UNL     1       4.444   4.052  16.678  0.00  0.00    +0.000 A 
ENDBRANCH  23  25
ENDBRANCH  18  19
ENDBRANCH   4  18
TORSDOF 5
ENDMDL
MODEL 5
REMARK VINA RESULT:      -7.7      0.545      1.033
REMARK  Name = 
REMARK  5 active torsions:
REMARK  status: ('A' for Active; 'I' for Inactive)
REMARK    1  A    between atoms: O_1  and  C_2
REMARK    2  A    between atoms: C_8  and  N_9
REMARK    3  A    between atoms: N_12  and  C_13
REMARK    4  A    between atoms: C_13  and  C_14
REMARK    5  A    between atoms: C_18  and  C_19
REMARK                            x       y       z     vdW  Elec       q    Type
REMARK                         _______ _______ _______ _____ _____    ______ ____
ROOT
ATOM      1  N   UNL     1       0.908  11.951  19.494  0.00  0.00    +0.000 N 
ATOM      2  C   UNL     1       0.862  11.631  20.935  0.00  0.00    +0.000 C 
ATOM      3  C   UNL     1       0.004  10.356  21.171  0.00  0.00    +0.000 C 
ATOM      4  N   UNL     1       0.394   9.173  20.359  0.00  0.00    +0.000 NA
ATOM      5  C   UNL     1       0.397   9.610  18.937  0.00  0.00    +0.000 C 
ATOM      6  C   UNL     1       1.329  10.810  18.648  0.00  0.00    +0.000 C 
ENDROOT
BRANCH   1  13
ATOM      7  C   UNL     1      -0.571  16.036  19.013  0.00  0.00    +0.000 A 
ATOM      8  N   UNL     1       0.501  16.635  18.594  0.00  0.00    +0.000 NA
ATOM      9  C   UNL     1       1.413  15.604  18.580  0.00  0.00    +0.000 A 
ATOM     10  C   UNL     1       2.766  15.606  18.222  0.00  0.00    +0.000 A 
ATOM     11  C   UNL     1       3.463  14.400  18.298  0.00  0.00    +0.000 A 
ATOM     12  C   UNL     1       2.825  13.230  18.729  0.00  0.00    +0.000 A 
ATOM     13  C   UNL     1       1.462  13.180  19.111  0.00  0.00    +0.000 A 
ATOM     14  C   UNL     1       0.813  14.420  18.997  0.00  0.00    +0.000 A 
ATOM     15  O   UNL     1      -0.499  14.712  19.283  0.00  0.00    +0.000 OA
BRANCH   7  16
ATOM     16  O   UNL     1      -1.738  16.620  19.200  0.00  0.00    +0.000 OA
ATOM     17  H   UNL     1      -2.015  16.209  20.034  0.00  0.00    +0.000 HD
ENDBRANCH   7  16
ENDBRANCH   1  13
BRANCH   4  18
ATOM     18  C   UNL     1       1.717   8.653  20.793  0.00  0.00    +0.000 C 
BRANCH  18  19
ATOM     19  C   UNL     1       1.961   7.205  20.399  0.00  0.00    +0.000 A 
ATOM     20  C   UNL     1       1.227   6.185  20.993  0.00  0.00    +0.000 A 
ATOM     21  C   UNL     1       1.297   4.911  20.446  0.00  0.00    +0.000 A 
ATOM     22  C   UNL     1       2.102   4.684  19.335  0.00  0.00    +0.000 A 
ATOM     23  C   UNL     1       2.871   5.731  18.833  0.00  0.00    +0.000 A 
ATOM     24  N   UNL     1       2.806   6.980  19.361  0.00  0.00    +0.000 NA
BRANCH  23  25
ATOM     25  C   UNL     1       3.771   5.579  17.674  0.00  0.00    +0.000 A 
ATOM     26  C   UNL     1       4.430   6.704  17.138  0.00  0.00    +0.000 A 
ATOM     27  C   UNL     1       5.290   6.590  16.045  0.00  0.00    +0.000 A 
ATOM     28  C   UNL     1       5.505   5.343  15.476  0.00  0.00    +0.000 A 
ATOM     29  F   UNL     1       6.329   5.230  14.426  0.00  0.00    +0.000 F 
ATOM     30  C   UNL     1       4.873   4.212  15.975  0.00  0.00    +0.000 A 
ATOM     31  C   UNL     1       4.005   4.330  17.064  0.00  0.00    +0.000 A 
ENDBRANCH  23  25
ENDBRANCH  18  19
ENDBRANCH   4  18
TORSDOF 5
ENDMDL
MODEL 6
REMARK VINA RESULT:      -7.7      3.190      4.550
REMARK  Name = 
REMARK  5 active torsions:
REMARK  status: ('A' for Active; 'I' for Inactive)
REMARK    1  A    between atoms: O_1  and  C_2
REMARK    2  A    between atoms: C_8  and  N_9
REMARK    3  A    between atoms: N_12  and  C_13
REMARK    4  A    between atoms: C_13  and  C_14
REMARK    5  A    between atoms: C_18  and  C_19
REMARK                            x       y       z     vdW  Elec       q    Type
REMARK                         _______ _______ _______ _____ _____    ______ ____
ROOT
ATOM      1  N   UNL     1      -1.471  11.117  19.130  0.00  0.00    +0.000 N 
ATOM      2  C   UNL     1      -0.264  11.780  18.596  0.00  0.00    +0.000 C 
ATOM      3  C   UNL     1       0.937  11.557  19.558  0.00  0.00    +0.000 C 
ATOM      4  N   UNL     1       1.204  10.139  19.917  0.00  0.00    +0.000 NA
ATOM      5  C   UNL     1      -0.070   9.583  20.447  0.00  0.00    +0.000 C 
ATOM      6  C   UNL     1      -1.261   9.690  19.467  0.00  0.00    +0.000 C 
ENDROOT
BRANCH   1  13
ATOM      7  C   UNL     1      -3.135  10.529  15.132  0.00  0.00    +0.000 A 
ATOM      8  N   UNL     1      -4.314  11.050  15.280  0.00  0.00    +0.000 NA
ATOM      9  C   UNL     1      -4.285  11.443  16.598  0.00  0.00    +0.000 A 
ATOM     10  C   UNL     1      -5.268  12.073  17.370  0.00  0.00    +0.000 A 
ATOM     11  C   UNL     1      -4.965  12.366  18.701  0.00  0.00    +0.000 A 
ATOM     12  C   UNL     1      -3.719  12.028  19.243  0.00  0.00    +0.000 A 
ATOM     13  C   UNL     1      -2.697  11.381  18.506  0.00  0.00    +0.000 A 
ATOM     14  C   UNL     1      -3.057  11.129  17.172  0.00  0.00    +0.000 A 
ATOM     15  O   UNL     1      -2.301  10.523  16.196  0.00  0.00    +0.000 OA
BRANCH   7  16
ATOM     16  O   UNL     1      -2.680   9.997  14.015  0.00  0.00    +0.000 OA
ATOM     17  H   UNL     1      -3.120   9.132  14.034  0.00  0.00    +0.000 HD
ENDBRANCH   7  16
ENDBRANCH   1  13
BRANCH   4  18
ATOM     18  C   UNL     1       1.702   9.385  18.737  0.00  0.00    +0.000 C 
BRANCH  18  19
ATOM     19  C   UNL     1       2.244   8.007  19.080  0.00  0.00    +0.000 A 
ATOM     20  C   UNL     1       1.790   7.337  20.210  0.00  0.00    +0.000 A 
ATOM     21  C   UNL     1       2.116   5.996  20.363  0.00  0.00    +0.000 A 
ATOM     22  C   UNL     1       2.892   5.364  19.398  0.00  0.00    +0.000 A 
ATOM     23  C   UNL     1       3.379   6.109  18.327  0.00  0.00    +0.000 A 
ATOM     24  N   UNL     1       3.062   7.420  18.170  0.00  0.00    +0.000 NA
BRANCH  23  25
ATOM     25  C   UNL     1       4.228   5.531  17.268  0.00  0.00    +0.000 A 
ATOM     26  C   UNL     1       4.828   6.368  16.307  0.00  0.00    +0.000 A 
ATOM     27  C   UNL     1       5.640   5.850  15.297  0.00  0.00    +0.000 A 
ATOM     28  C   UNL     1       5.864   4.482  15.240  0.00  0.00    +0.000 A 
ATOM     29  F   UNL     1       6.641   3.980  14.272  0.00  0.00    +0.000 F 
ATOM     30  C   UNL     1       5.289   3.625  16.169  0.00  0.00    +0.000 A 
ATOM     31  C   UNL     1       4.469   4.146  17.174  0.00  0.00    +0.000 A 
ENDBRANCH  23  25
ENDBRANCH  18  19
ENDBRANCH   4  18
TORSDOF 5
ENDMDL
MODEL 7
REMARK VINA RESULT:      -7.7      3.176      4.457
REMARK  Name = 
REMARK  5 active torsions:
REMARK  status: ('A' for Active; 'I' for Inactive)
REMARK    1  A    between atoms: O_1  and  C_2
REMARK    2  A    between atoms: C_8  and  N_9
REMARK    3  A    between atoms: N_12  and  C_13
REMARK    4  A    between atoms: C_13  and  C_14
REMARK    5  A    between atoms: C_18  and  C_19
REMARK                            x       y       z     vdW  Elec       q    Type
REMARK                         _______ _______ _______ _____ _____    ______ ____
ROOT
ATOM      1  N   UNL     1      -0.808  10.659  18.145  0.00  0.00    +0.000 N 
ATOM      2  C   UNL     1      -0.318   9.307  17.810  0.00  0.00    +0.000 C 
ATOM      3  C   UNL     1       1.221   9.230  18.018  0.00  0.00    +0.000 C 
ATOM      4  N   UNL     1       1.700   9.670  19.355  0.00  0.00    +0.000 NA
ATOM      5  C   UNL     1       1.156  11.037  19.578  0.00  0.00    +0.000 C 
ATOM      6  C   UNL     1      -0.385  11.124  19.487  0.00  0.00    +0.000 C 
ENDROOT
BRANCH   1  13
ATOM      7  C   UNL     1      -3.316  10.367  14.579  0.00  0.00    +0.000 A 
ATOM      8  N   UNL     1      -4.422  10.887  15.015  0.00  0.00    +0.000 NA
ATOM      9  C   UNL     1      -4.097  11.186  16.318  0.00  0.00    +0.000 A 
ATOM     10  C   UNL     1      -4.873  11.768  17.327  0.00  0.00    +0.000 A 
ATOM     11  C   UNL     1      -4.281  11.964  18.575  0.00  0.00    +0.000 A 
ATOM     12  C   UNL     1      -2.955  11.579  18.808  0.00  0.00    +0.000 A 
ATOM     13  C   UNL     1      -2.134  10.976  17.823  0.00  0.00    +0.000 A 
ATOM     14  C   UNL     1      -2.781  10.822  16.587  0.00  0.00    +0.000 A 
ATOM     15  O   UNL     1      -2.270  10.280  15.431  0.00  0.00    +0.000 OA
BRANCH   7  16
ATOM     16  O   UNL     1      -3.128   9.911  13.356  0.00  0.00    +0.000 OA
ATOM     17  H   UNL     1      -3.862   9.281  13.282  0.00  0.00    +0.000 HD
ENDBRANCH   7  16
ENDBRANCH   1  13
BRANCH   4  18
ATOM     18  C   UNL     1       1.270   8.713  20.408  0.00  0.00    +0.000 C 
BRANCH  18  19
ATOM     19  C   UNL     1       1.812   7.306  20.210  0.00  0.00    +0.000 A 
ATOM     20  C   UNL     1       1.328   6.255  20.980  0.00  0.00    +0.000 A 
ATOM     21  C   UNL     1       1.660   4.957  20.616  0.00  0.00    +0.000 A 
ATOM     22  C   UNL     1       2.471   4.742  19.507  0.00  0.00    +0.000 A 
ATOM     23  C   UNL     1       2.985   5.840  18.822  0.00  0.00    +0.000 A 
ATOM     24  N   UNL     1       2.663   7.112  19.172  0.00  0.00    +0.000 NA
BRANCH  23  25
ATOM     25  C   UNL     1       3.872   5.709  17.651  0.00  0.00    +0.000 A 
ATOM     26  C   UNL     1       4.200   4.434  17.150  0.00  0.00    +0.000 A 
ATOM     27  C   UNL     1       5.032   4.280  16.041  0.00  0.00    +0.000 A 
ATOM     28  C   UNL     1       5.544   5.406  15.414  0.00  0.00    +0.000 A 
ATOM     29  F   UNL     1       6.345   5.262  14.350  0.00  0.00    +0.000 F 
ATOM     30  C   UNL     1       5.246   6.680  15.879  0.00  0.00    +0.000 A 
ATOM     31  C   UNL     1       4.419   6.831  16.996  0.00  0.00    +0.000 A 
ENDBRANCH  23  25
ENDBRANCH  18  19
ENDBRANCH   4  18
TORSDOF 5
ENDMDL
MODEL 8
REMARK VINA RESULT:      -7.6      3.085      4.224
REMARK  Name = 
REMARK  5 active torsions:
REMARK  status: ('A' for Active; 'I' for Inactive)
REMARK    1  A    between atoms: O_1  and  C_2
REMARK    2  A    between atoms: C_8  and  N_9
REMARK    3  A    between atoms: N_12  and  C_13
REMARK    4  A    between atoms: C_13  and  C_14
REMARK    5  A    between atoms: C_18  and  C_19
REMARK                            x       y       z     vdW  Elec       q    Type
REMARK                         _______ _______ _______ _____ _____    ______ ____
ROOT
ATOM      1  N   UNL     1      -1.128  12.107  20.031  0.00  0.00    +0.000 N 
ATOM      2  C   UNL     1      -0.550  12.279  18.682  0.00  0.00    +0.000 C 
ATOM      3  C   UNL     1       0.997  12.141  18.742  0.00  0.00    +0.000 C 
ATOM      4  N   UNL     1       1.495  10.903  19.398  0.00  0.00    +0.000 NA
ATOM      5  C   UNL     1       0.859  10.842  20.741  0.00  0.00    +0.000 C 
ATOM      6  C   UNL     1      -0.687  10.865  20.708  0.00  0.00    +0.000 C 
ENDROOT
BRANCH   1  13
ATOM      7  C   UNL     1      -4.760  11.662  17.642  0.00  0.00    +0.000 A 
ATOM      8  N   UNL     1      -5.640  12.189  18.436  0.00  0.00    +0.000 NA
ATOM      9  C   UNL     1      -4.868  12.539  19.520  0.00  0.00    +0.000 A 
ATOM     10  C   UNL     1      -5.233  13.152  20.724  0.00  0.00    +0.000 A 
ATOM     11  C   UNL     1      -4.230  13.399  21.662  0.00  0.00    +0.000 A 
ATOM     12  C   UNL     1      -2.903  13.033  21.404  0.00  0.00    +0.000 A 
ATOM     13  C   UNL     1      -2.486  12.401  20.207  0.00  0.00    +0.000 A 
ATOM     14  C   UNL     1      -3.537  12.195  19.299  0.00  0.00    +0.000 A 
ATOM     15  O   UNL     1      -3.473  11.615  18.054  0.00  0.00    +0.000 OA
BRANCH   7  16
ATOM     16  O   UNL     1      -5.022  11.163  16.450  0.00  0.00    +0.000 OA
ATOM     17  H   UNL     1      -5.777  11.713  16.185  0.00  0.00    +0.000 HD
ENDBRANCH   7  16
ENDBRANCH   1  13
BRANCH   4  18
ATOM     18  C   UNL     1       1.183   9.709  18.570  0.00  0.00    +0.000 C 
BRANCH  18  19
ATOM     19  C   UNL     1       1.853   8.435  19.060  0.00  0.00    +0.000 A 
ATOM     20  C   UNL     1       1.514   7.897  20.296  0.00  0.00    +0.000 A 
ATOM     21  C   UNL     1       1.956   6.619  20.607  0.00  0.00    +0.000 A 
ATOM     22  C   UNL     1       2.730   5.917  19.689  0.00  0.00    +0.000 A 
ATOM     23  C   UNL     1       3.098   6.541  18.499  0.00  0.00    +0.000 A 
ATOM     24  N   UNL     1       2.668   7.790  18.188  0.00  0.00    +0.000 NA
BRANCH  23  25
ATOM     25  C   UNL     1       3.935   5.885  17.477  0.00  0.00    +0.000 A 
ATOM     26  C   UNL     1       3.988   4.479  17.402  0.00  0.00    +0.000 A 
ATOM     27  C   UNL     1       4.767   3.831  16.444  0.00  0.00    +0.000 A 
ATOM     28  C   UNL     1       5.502   4.586  15.541  0.00  0.00    +0.000 A 
ATOM     29  F   UNL     1       6.253   3.968  14.621  0.00  0.00    +0.000 F 
ATOM     30  C   UNL     1       5.477   5.973  15.584  0.00  0.00    +0.000 A 
ATOM     31  C   UNL     1       4.703   6.620  16.552  0.00  0.00    +0.000 A 
ENDBRANCH  23  25
ENDBRANCH  18  19
ENDBRANCH   4  18
TORSDOF 5
ENDMDL
MODEL 9
REMARK VINA RESULT:      -7.6      1.165      1.839
REMARK  Name = 
REMARK  5 active torsions:
REMARK  status: ('A' for Active; 'I' for Inactive)
REMARK    1  A    between atoms: O_1  and  C_2
REMARK    2  A    between atoms: C_8  and  N_9
REMARK    3  A    between atoms: N_12  and  C_13
REMARK    4  A    between atoms: C_13  and  C_14
REMARK    5  A    between atoms: C_18  and  C_19
REMARK                            x       y       z     vdW  Elec       q    Type
REMARK                         _______ _______ _______ _____ _____    ______ ____
ROOT
ATOM      1  N   UNL     1       0.793  13.617  19.342  0.00  0.00    +0.000 N 
ATOM      2  C   UNL     1       1.818  12.806  20.029  0.00  0.00    +0.000 C 
ATOM      3  C   UNL     1       1.156  11.579  20.716  0.00  0.00    +0.000 C 
ATOM      4  N   UNL     1       0.300  10.745  19.830  0.00  0.00    +0.000 NA
ATOM      5  C   UNL     1      -0.692  11.660  19.205  0.00  0.00    +0.000 C 
ATOM      6  C   UNL     1      -0.060  12.833  18.419  0.00  0.00    +0.000 C 
ENDROOT
BRANCH   1  13
ATOM      7  C   UNL     1      -1.159  17.490  18.801  0.00  0.00    +0.000 A 
ATOM      8  N   UNL     1      -0.203  18.169  18.246  0.00  0.00    +0.000 NA
ATOM      9  C   UNL     1       0.810  17.239  18.193  0.00  0.00    +0.000 A 
ATOM     10  C   UNL     1       2.115  17.358  17.702  0.00  0.00    +0.000 A 
ATOM     11  C   UNL     1       2.943  16.236  17.770  0.00  0.00    +0.000 A 
ATOM     12  C   UNL     1       2.479  15.036  18.323  0.00  0.00    +0.000 A 
ATOM     13  C   UNL     1       1.172  14.870  18.842  0.00  0.00    +0.000 A 
ATOM     14  C   UNL     1       0.384  16.027  18.730  0.00  0.00    +0.000 A 
ATOM     15  O   UNL     1      -0.919  16.200  19.130  0.00  0.00    +0.000 OA
BRANCH   7  16
ATOM     16  O   UNL     1      -2.360  17.961  19.073  0.00  0.00    +0.000 OA
ATOM     17  H   UNL     1      -2.903  17.436  18.463  0.00  0.00    +0.000 HD
ENDBRANCH   7  16
ENDBRANCH   1  13
BRANCH   4  18
ATOM     18  C   UNL     1       1.127  10.034  18.821  0.00  0.00    +0.000 C 
BRANCH  18  19
ATOM     19  C   UNL     1       1.698   8.716  19.319  0.00  0.00    +0.000 A 
ATOM     20  C   UNL     1       1.293   8.196  20.542  0.00  0.00    +0.000 A 
ATOM     21  C   UNL     1       1.641   6.889  20.856  0.00  0.00    +0.000 A 
ATOM     22  C   UNL     1       2.390   6.143  19.954  0.00  0.00    +0.000 A 
ATOM     23  C   UNL     1       2.829   6.746  18.778  0.00  0.00    +0.000 A 
ATOM     24  N   UNL     1       2.491   8.023  18.464  0.00  0.00    +0.000 NA
BRANCH  23  25
ATOM     25  C   UNL     1       3.647   6.041  17.773  0.00  0.00    +0.000 A 
ATOM     26  C   UNL     1       4.506   6.767  16.924  0.00  0.00    +0.000 A 
ATOM     27  C   UNL     1       5.295   6.127  15.968  0.00  0.00    +0.000 A 
ATOM     28  C   UNL     1       5.237   4.746  15.852  0.00  0.00    +0.000 A 
ATOM     29  F   UNL     1       5.991   4.128  14.934  0.00  0.00    +0.000 F 
ATOM     30  C   UNL     1       4.402   3.996  16.669  0.00  0.00    +0.000 A 
ATOM     31  C   UNL     1       3.606   4.641  17.621  0.00  0.00    +0.000 A 
ENDBRANCH  23  25
ENDBRANCH  18  19
ENDBRANCH   4  18
TORSDOF 5
ENDMDL
