MODEL 1
REMARK VINA RESULT:      -6.8      0.000      0.000
REMARK  Name = 
REMARK  13 active torsions:
REMARK  status: ('A' for Active; 'I' for Inactive)
REMARK    1  A    between atoms: C_1  and  O_2
REMARK    2  A    between atoms: O_2  and  C_3
REMARK    3  A    between atoms: C_3  and  C_5
REMARK    4  A    between atoms: C_5  and  C_6
REMARK    5  A    between atoms: C_5  and  N_14
REMARK    6  A    between atoms: C_6  and  C_7
REMARK    7  A    between atoms: C_7  and  O_8
REMARK    8  A    between atoms: O_8  and  C_9
REMARK    9  A    between atoms: C_15  and  C_17
REMARK   10  A    between atoms: C_17  and  N_18
REMARK   11  A    between atoms: C_17  and  C_19
REMARK   12  A    between atoms: C_19  and  C_20
REMARK   13  A    between atoms: C_20  and  O_22
REMARK                            x       y       z     vdW  Elec       q    Type
REMARK                         _______ _______ _______ _____ _____    ______ ____
ROOT
ATOM      1  C   UNL     1       6.160   3.963  16.054  0.00  0.00    +0.000 C 
ENDROOT
BRANCH   1   2
ATOM      2  N   UNL     1       6.346   4.972  17.113  0.00  0.00    +0.000 N 
ATOM      3  C   UNL     1       7.458   4.972  17.915  0.00  0.00    +0.000 C 
ATOM      4  O   UNL     1       8.359   4.134  17.846  0.00  0.00    +0.000 OA
ATOM      5  H   UNL     1       5.622   5.672  17.246  0.00  0.00    +0.000 HD
BRANCH   3   6
ATOM      6  C   UNL     1       7.469   6.054  19.006  0.00  0.00    +0.000 C 
BRANCH   6   7
ATOM      7  N   UNL     1       7.916   5.418  20.267  0.00  0.00    +0.000 NA
ATOM      8  H   UNL     1       7.108   5.010  20.747  0.00  0.00    +0.000 HD
ATOM      9  H   UNL     1       8.273   6.130  20.905  0.00  0.00    +0.000 HD
ENDBRANCH   6   7
BRANCH   6  10
ATOM     10  C   UNL     1       8.430   7.172  18.612  0.00  0.00    +0.000 C 
BRANCH  10  11
ATOM     11  C   UNL     1       7.751   8.208  17.743  0.00  0.00    +0.000 C 
ATOM     12  O   UNL     1       7.842   9.421  17.913  0.00  0.00    +0.000 OA
BRANCH  11  13
ATOM     13  O   UNL     1       7.035   7.669  16.739  0.00  0.00    +0.000 OA
ATOM     14  H   UNL     1       7.531   7.003  16.208  0.00  0.00    +0.000 HD
ENDBRANCH  11  13
ENDBRANCH  10  11
ENDBRANCH   6  10
ENDBRANCH   3   6
ENDBRANCH   1   2
BRANCH   1  15
ATOM     15  C   UNL     1       6.764   4.479  14.733  0.00  0.00    +0.000 C 
ATOM     16  O   UNL     1       7.495   5.472  14.649  0.00  0.00    +0.000 OA
BRANCH  15  18
ATOM     17  C   UNL     1       6.939   4.106  12.414  0.00  0.00    +0.000 C 
ATOM     18  O   UNL     1       6.379   3.712  13.671  0.00  0.00    +0.000 OA
ENDBRANCH  15  18
ENDBRANCH   1  15
BRANCH   1  19
ATOM     19  C   UNL     1       4.677   3.597  15.901  0.00  0.00    +0.000 C 
BRANCH  19  20
ATOM     20  C   UNL     1       3.854   4.110  17.075  0.00  0.00    +0.000 C 
BRANCH  20  21
ATOM     21  O   UNL     1       3.062   3.050  17.610  0.00  0.00    +0.000 OA
BRANCH  21  22
ATOM     22  C   UNL     1       2.065   3.509  18.518  0.00  0.00    +0.000 C 
ATOM     23  C   UNL     1       1.644   2.383  19.454  0.00  0.00    +0.000 C 
ATOM     24  C   UNL     1       1.006   3.098  20.638  0.00  0.00    +0.000 C 
ATOM     25  C   UNL     1       1.685   4.464  20.716  0.00  0.00    +0.000 C 
ATOM     26  C   UNL     1       2.582   4.565  19.490  0.00  0.00    +0.000 C 
ENDBRANCH  21  22
ENDBRANCH  20  21
ENDBRANCH  19  20
ENDBRANCH   1  19
TORSDOF 12
ENDMDL
MODEL 2
REMARK VINA RESULT:      -6.8      2.579      5.036
REMARK  Name = 
REMARK  13 active torsions:
REMARK  status: ('A' for Active; 'I' for Inactive)
REMARK    1  A    between atoms: C_1  and  O_2
REMARK    2  A    between atoms: O_2  and  C_3
REMARK    3  A    between atoms: C_3  and  C_5
REMARK    4  A    between atoms: C_5  and  C_6
REMARK    5  A    between atoms: C_5  and  N_14
REMARK    6  A    between atoms: C_6  and  C_7
REMARK    7  A    between atoms: C_7  and  O_8
REMARK    8  A    between atoms: O_8  and  C_9
REMARK    9  A    between atoms: C_15  and  C_17
REMARK   10  A    between atoms: C_17  and  N_18
REMARK   11  A    between atoms: C_17  and  C_19
REMARK   12  A    between atoms: C_19  and  C_20
REMARK   13  A    between atoms: C_20  and  O_22
REMARK                            x       y       z     vdW  Elec       q    Type
REMARK                         _______ _______ _______ _____ _____    ______ ____
ROOT
ATOM      1  C   UNL     1       3.696   3.958  18.941  0.00  0.00    +0.000 C 
ENDROOT
BRANCH   1   2
ATOM      2  N   UNL     1       4.822   4.001  17.989  0.00  0.00    +0.000 N 
ATOM      3  C   UNL     1       5.920   4.791  18.214  0.00  0.00    +0.000 C 
ATOM      4  O   UNL     1       6.047   5.538  19.186  0.00  0.00    +0.000 OA
ATOM      5  H   UNL     1       4.767   3.434  17.148  0.00  0.00    +0.000 HD
BRANCH   3   6
ATOM      6  C   UNL     1       6.977   4.764  17.098  0.00  0.00    +0.000 C 
BRANCH   6   7
ATOM      7  N   UNL     1       8.200   4.135  17.651  0.00  0.00    +0.000 NA
ATOM      8  H   UNL     1       8.214   3.142  17.402  0.00  0.00    +0.000 HD
ATOM      9  H   UNL     1       8.166   4.154  18.670  0.00  0.00    +0.000 HD
ENDBRANCH   6   7
BRANCH   6  10
ATOM     10  C   UNL     1       6.456   3.951  15.916  0.00  0.00    +0.000 C 
BRANCH  10  11
ATOM     11  C   UNL     1       6.884   4.553  14.596  0.00  0.00    +0.000 C 
ATOM     12  O   UNL     1       6.398   4.254  13.508  0.00  0.00    +0.000 OA
BRANCH  11  13
ATOM     13  O   UNL     1       7.853   5.478  14.726  0.00  0.00    +0.000 OA
ATOM     14  H   UNL     1       8.453   5.540  13.947  0.00  0.00    +0.000 HD
ENDBRANCH  11  13
ENDBRANCH  10  11
ENDBRANCH   6  10
ENDBRANCH   3   6
ENDBRANCH   1   2
BRANCH   1  15
ATOM     15  C   UNL     1       3.818   2.709  19.835  0.00  0.00    +0.000 C 
ATOM     16  O   UNL     1       4.892   2.167  20.122  0.00  0.00    +0.000 OA
BRANCH  15  18
ATOM     17  C   UNL     1       2.200   2.742  21.544  0.00  0.00    +0.000 C 
ATOM     18  O   UNL     1       2.596   2.269  20.253  0.00  0.00    +0.000 OA
ENDBRANCH  15  18
ENDBRANCH   1  15
BRANCH   1  19
ATOM     19  C   UNL     1       2.353   4.004  18.199  0.00  0.00    +0.000 C 
BRANCH  19  20
ATOM     20  C   UNL     1       1.795   5.419  18.144  0.00  0.00    +0.000 C 
BRANCH  20  21
ATOM     21  O   UNL     1       2.848   6.344  17.872  0.00  0.00    +0.000 OA
BRANCH  21  22
ATOM     22  C   UNL     1       2.703   7.572  18.579  0.00  0.00    +0.000 C 
ATOM     23  C   UNL     1       1.759   8.504  17.830  0.00  0.00    +0.000 C 
ATOM     24  C   UNL     1       1.303   9.503  18.886  0.00  0.00    +0.000 C 
ATOM     25  C   UNL     1       1.367   8.761  20.218  0.00  0.00    +0.000 C 
ATOM     26  C   UNL     1       2.001   7.408  19.923  0.00  0.00    +0.000 C 
ENDBRANCH  21  22
ENDBRANCH  20  21
ENDBRANCH  19  20
ENDBRANCH   1  19
TORSDOF 12
ENDMDL
MODEL 3
REMARK VINA RESULT:      -6.6      2.130      6.429
REMARK  Name = 
REMARK  13 active torsions:
REMARK  status: ('A' for Active; 'I' for Inactive)
REMARK    1  A    between atoms: C_1  and  O_2
REMARK    2  A    between atoms: O_2  and  C_3
REMARK    3  A    between atoms: C_3  and  C_5
REMARK    4  A    between atoms: C_5  and  C_6
REMARK    5  A    between atoms: C_5  and  N_14
REMARK    6  A    between atoms: C_6  and  C_7
REMARK    7  A    between atoms: C_7  and  O_8
REMARK    8  A    between atoms: O_8  and  C_9
REMARK    9  A    between atoms: C_15  and  C_17
REMARK   10  A    between atoms: C_17  and  N_18
REMARK   11  A    between atoms: C_17  and  C_19
REMARK   12  A    between atoms: C_19  and  C_20
REMARK   13  A    between atoms: C_20  and  O_22
REMARK                            x       y       z     vdW  Elec       q    Type
REMARK                         _______ _______ _______ _____ _____    ______ ____
ROOT
ATOM      1  C   UNL     1       5.901   5.022  18.116  0.00  0.00    +0.000 C 
ENDROOT
BRANCH   1   2
ATOM      2  N   UNL     1       4.943   3.963  17.747  0.00  0.00    +0.000 N 
ATOM      3  C   UNL     1       4.455   3.083  18.678  0.00  0.00    +0.000 C 
ATOM      4  O   UNL     1       4.787   3.078  19.865  0.00  0.00    +0.000 OA
ATOM      5  H   UNL     1       4.653   3.889  16.776  0.00  0.00    +0.000 HD
BRANCH   3   6
ATOM      6  C   UNL     1       3.512   2.005  18.118  0.00  0.00    +0.000 C 
BRANCH   6   7
ATOM      7  N   UNL     1       4.146   0.687  18.353  0.00  0.00    +0.000 NA
ATOM      8  H   UNL     1       4.681   0.414  17.523  0.00  0.00    +0.000 HD
ATOM      9  H   UNL     1       3.426  -0.029  18.454  0.00  0.00    +0.000 HD
ENDBRANCH   6   7
BRANCH   6  10
ATOM     10  C   UNL     1       2.166   2.077  18.834  0.00  0.00    +0.000 C 
BRANCH  10  11
ATOM     11  C   UNL     1       1.519   3.434  18.666  0.00  0.00    +0.000 C 
ATOM     12  O   UNL     1       1.198   4.169  19.596  0.00  0.00    +0.000 OA
BRANCH  11  13
ATOM     13  O   UNL     1       1.336   3.776  17.377  0.00  0.00    +0.000 OA
ATOM     14  H   UNL     1       0.641   4.460  17.240  0.00  0.00    +0.000 HD
ENDBRANCH  11  13
ENDBRANCH  10  11
ENDBRANCH   6  10
ENDBRANCH   3   6
ENDBRANCH   1   2
BRANCH   1  15
ATOM     15  C   UNL     1       5.399   6.382  17.591  0.00  0.00    +0.000 C 
ATOM     16  O   UNL     1       6.126   7.367  17.418  0.00  0.00    +0.000 OA
BRANCH  15  18
ATOM     17  C   UNL     1       3.367   7.562  17.733  0.00  0.00    +0.000 C 
ATOM     18  O   UNL     1       4.054   6.365  17.357  0.00  0.00    +0.000 OA
ENDBRANCH  15  18
ENDBRANCH   1  15
BRANCH   1  19
ATOM     19  C   UNL     1       7.307   4.692  17.598  0.00  0.00    +0.000 C 
BRANCH  19  20
ATOM     20  C   UNL     1       7.268   4.198  16.159  0.00  0.00    +0.000 C 
BRANCH  20  21
ATOM     21  O   UNL     1       7.493   5.288  15.265  0.00  0.00    +0.000 OA
BRANCH  21  22
ATOM     22  C   UNL     1       6.853   5.113  14.005  0.00  0.00    +0.000 C 
ATOM     23  C   UNL     1       7.892   4.995  12.898  0.00  0.00    +0.000 C 
ATOM     24  C   UNL     1       7.144   4.323  11.752  0.00  0.00    +0.000 C 
ATOM     25  C   UNL     1       6.059   3.471  12.405  0.00  0.00    +0.000 C 
ATOM     26  C   UNL     1       6.104   3.789  13.894  0.00  0.00    +0.000 C 
ENDBRANCH  21  22
ENDBRANCH  20  21
ENDBRANCH  19  20
ENDBRANCH   1  19
TORSDOF 12
ENDMDL
MODEL 4
REMARK VINA RESULT:      -6.6      1.663      4.752
REMARK  Name = 
REMARK  13 active torsions:
REMARK  status: ('A' for Active; 'I' for Inactive)
REMARK    1  A    between atoms: C_1  and  O_2
REMARK    2  A    between atoms: O_2  and  C_3
REMARK    3  A    between atoms: C_3  and  C_5
REMARK    4  A    between atoms: C_5  and  C_6
REMARK    5  A    between atoms: C_5  and  N_14
REMARK    6  A    between atoms: C_6  and  C_7
REMARK    7  A    between atoms: C_7  and  O_8
REMARK    8  A    between atoms: O_8  and  C_9
REMARK    9  A    between atoms: C_15  and  C_17
REMARK   10  A    between atoms: C_17  and  N_18
REMARK   11  A    between atoms: C_17  and  C_19
REMARK   12  A    between atoms: C_19  and  C_20
REMARK   13  A    between atoms: C_20  and  O_22
REMARK                            x       y       z     vdW  Elec       q    Type
REMARK                         _______ _______ _______ _____ _____    ______ ____
ROOT
ATOM      1  C   UNL     1       6.157   5.999  17.814  0.00  0.00    +0.000 C 
ENDROOT
BRANCH   1   2
ATOM      2  N   UNL     1       6.481   4.984  16.795  0.00  0.00    +0.000 N 
ATOM      3  C   UNL     1       6.287   5.223  15.458  0.00  0.00    +0.000 C 
ATOM      4  O   UNL     1       5.810   6.265  15.005  0.00  0.00    +0.000 OA
ATOM      5  H   UNL     1       6.847   4.088  17.103  0.00  0.00    +0.000 HD
BRANCH   3   6
ATOM      6  C   UNL     1       6.620   4.041  14.534  0.00  0.00    +0.000 C 
BRANCH   6   7
ATOM      7  N   UNL     1       5.707   2.926  14.883  0.00  0.00    +0.000 NA
ATOM      8  H   UNL     1       4.787   3.304  15.126  0.00  0.00    +0.000 HD
ATOM      9  H   UNL     1       6.038   2.462  15.729  0.00  0.00    +0.000 HD
ENDBRANCH   6   7
BRANCH   6  10
ATOM     10  C   UNL     1       6.416   4.452  13.079  0.00  0.00    +0.000 C 
BRANCH  10  11
ATOM     11  C   UNL     1       5.819   3.328  12.262  0.00  0.00    +0.000 C 
ATOM     12  O   UNL     1       4.670   3.322  11.826  0.00  0.00    +0.000 OA
BRANCH  11  13
ATOM     13  O   UNL     1       6.683   2.320  12.038  0.00  0.00    +0.000 OA
ATOM     14  H   UNL     1       6.261   1.504  11.684  0.00  0.00    +0.000 HD
ENDBRANCH  11  13
ENDBRANCH  10  11
ENDBRANCH   6  10
ENDBRANCH   3   6
ENDBRANCH   1   2
BRANCH   1  15
ATOM     15  C   UNL     1       7.402   6.862  18.101  0.00  0.00    +0.000 C 
ATOM     16  O   UNL     1       8.264   6.574  18.939  0.00  0.00    +0.000 OA
BRANCH  15  18
ATOM     17  C   UNL     1       8.149   9.085  17.888  0.00  0.00    +0.000 C 
ATOM     18  O   UNL     1       7.423   7.987  17.327  0.00  0.00    +0.000 OA
ENDBRANCH  15  18
ENDBRANCH   1  15
BRANCH   1  19
ATOM     19  C   UNL     1       5.611   5.340  19.088  0.00  0.00    +0.000 C 
BRANCH  19  20
ATOM     20  C   UNL     1       4.112   5.563  19.230  0.00  0.00    +0.000 C 
BRANCH  20  21
ATOM     21  O   UNL     1       3.437   5.079  18.069  0.00  0.00    +0.000 OA
BRANCH  21  22
ATOM     22  C   UNL     1       2.153   4.538  18.359  0.00  0.00    +0.000 C 
ATOM     23  C   UNL     1       2.085   3.078  17.928  0.00  0.00    +0.000 C 
ATOM     24  C   UNL     1       0.919   2.505  18.724  0.00  0.00    +0.000 C 
ATOM     25  C   UNL     1       0.846   3.329  20.008  0.00  0.00    +0.000 C 
ATOM     26  C   UNL     1       1.865   4.450  19.855  0.00  0.00    +0.000 C 
ENDBRANCH  21  22
ENDBRANCH  20  21
ENDBRANCH  19  20
ENDBRANCH   1  19
TORSDOF 12
ENDMDL
MODEL 5
REMARK VINA RESULT:      -6.6      2.719      6.639
REMARK  Name = 
REMARK  13 active torsions:
REMARK  status: ('A' for Active; 'I' for Inactive)
REMARK    1  A    between atoms: C_1  and  O_2
REMARK    2  A    between atoms: O_2  and  C_3
REMARK    3  A    between atoms: C_3  and  C_5
REMARK    4  A    between atoms: C_5  and  C_6
REMARK    5  A    between atoms: C_5  and  N_14
REMARK    6  A    between atoms: C_6  and  C_7
REMARK    7  A    between atoms: C_7  and  O_8
REMARK    8  A    between atoms: O_8  and  C_9
REMARK    9  A    between atoms: C_15  and  C_17
REMARK   10  A    between atoms: C_17  and  N_18
REMARK   11  A    between atoms: C_17  and  C_19
REMARK   12  A    between atoms: C_19  and  C_20
REMARK   13  A    between atoms: C_20  and  O_22
REMARK                            x       y       z     vdW  Elec       q    Type
REMARK                         _______ _______ _______ _____ _____    ______ ____
ROOT
ATOM      1  C   UNL     1       4.398   6.053  17.924  0.00  0.00    +0.000 C 
ENDROOT
BRANCH   1   2
ATOM      2  N   UNL     1       3.982   4.667  18.210  0.00  0.00    +0.000 N 
ATOM      3  C   UNL     1       4.717   3.855  19.035  0.00  0.00    +0.000 C 
ATOM      4  O   UNL     1       5.776   4.189  19.569  0.00  0.00    +0.000 OA
ATOM      5  H   UNL     1       3.134   4.316  17.774  0.00  0.00    +0.000 HD
BRANCH   3   6
ATOM      6  C   UNL     1       4.177   2.423  19.182  0.00  0.00    +0.000 C 
BRANCH   6   7
ATOM      7  N   UNL     1       4.976   1.746  20.230  0.00  0.00    +0.000 NA
ATOM      8  H   UNL     1       4.772   0.743  20.218  0.00  0.00    +0.000 HD
ATOM      9  H   UNL     1       4.678   2.068  21.152  0.00  0.00    +0.000 HD
ENDBRANCH   6   7
BRANCH   6  10
ATOM     10  C   UNL     1       2.706   2.467  19.586  0.00  0.00    +0.000 C 
BRANCH  10  11
ATOM     11  C   UNL     1       2.526   3.075  20.960  0.00  0.00    +0.000 C 
ATOM     12  O   UNL     1       2.801   2.503  22.012  0.00  0.00    +0.000 OA
BRANCH  11  13
ATOM     13  O   UNL     1       2.042   4.331  20.923  0.00  0.00    +0.000 OA
ATOM     14  H   UNL     1       1.498   4.572  21.708  0.00  0.00    +0.000 HD
ENDBRANCH  11  13
ENDBRANCH  10  11
ENDBRANCH   6  10
ENDBRANCH   3   6
ENDBRANCH   1   2
BRANCH   1  15
ATOM     15  C   UNL     1       3.222   7.014  18.188  0.00  0.00    +0.000 C 
ATOM     16  O   UNL     1       2.938   7.973  17.462  0.00  0.00    +0.000 OA
BRANCH  15  18
ATOM     17  C   UNL     1       1.932   7.783  20.002  0.00  0.00    +0.000 C 
ATOM     18  O   UNL     1       2.548   6.681  19.327  0.00  0.00    +0.000 OA
ENDBRANCH  15  18
ENDBRANCH   1  15
BRANCH   1  19
ATOM     19  C   UNL     1       4.929   6.179  16.489  0.00  0.00    +0.000 C 
BRANCH  19  20
ATOM     20  C   UNL     1       6.450   6.141  16.454  0.00  0.00    +0.000 C 
BRANCH  20  21
ATOM     21  O   UNL     1       6.890   4.970  15.765  0.00  0.00    +0.000 OA
BRANCH  21  22
ATOM     22  C   UNL     1       6.514   4.962  14.392  0.00  0.00    +0.000 C 
ATOM     23  C   UNL     1       7.747   5.085  13.505  0.00  0.00    +0.000 C 
ATOM     24  C   UNL     1       7.288   4.563  12.149  0.00  0.00    +0.000 C 
ATOM     25  C   UNL     1       6.180   3.554  12.444  0.00  0.00    +0.000 C 
ATOM     26  C   UNL     1       5.921   3.630  13.942  0.00  0.00    +0.000 C 
ENDBRANCH  21  22
ENDBRANCH  20  21
ENDBRANCH  19  20
ENDBRANCH   1  19
TORSDOF 12
ENDMDL
MODEL 6
REMARK VINA RESULT:      -6.6      1.831      6.409
REMARK  Name = 
REMARK  13 active torsions:
REMARK  status: ('A' for Active; 'I' for Inactive)
REMARK    1  A    between atoms: C_1  and  O_2
REMARK    2  A    between atoms: O_2  and  C_3
REMARK    3  A    between atoms: C_3  and  C_5
REMARK    4  A    between atoms: C_5  and  C_6
REMARK    5  A    between atoms: C_5  and  N_14
REMARK    6  A    between atoms: C_6  and  C_7
REMARK    7  A    between atoms: C_7  and  O_8
REMARK    8  A    between atoms: O_8  and  C_9
REMARK    9  A    between atoms: C_15  and  C_17
REMARK   10  A    between atoms: C_17  and  N_18
REMARK   11  A    between atoms: C_17  and  C_19
REMARK   12  A    between atoms: C_19  and  C_20
REMARK   13  A    between atoms: C_20  and  O_22
REMARK                            x       y       z     vdW  Elec       q    Type
REMARK                         _______ _______ _______ _____ _____    ______ ____
ROOT
ATOM      1  C   UNL     1       6.617   4.648  17.814  0.00  0.00    +0.000 C 
ENDROOT
BRANCH   1   2
ATOM      2  N   UNL     1       5.219   4.867  18.229  0.00  0.00    +0.000 N 
ATOM      3  C   UNL     1       4.601   4.039  19.131  0.00  0.00    +0.000 C 
ATOM      4  O   UNL     1       5.133   3.048  19.635  0.00  0.00    +0.000 OA
ATOM      5  H   UNL     1       4.711   5.648  17.824  0.00  0.00    +0.000 HD
BRANCH   3   6
ATOM      6  C   UNL     1       3.127   4.372  19.411  0.00  0.00    +0.000 C 
BRANCH   6   7
ATOM      7  N   UNL     1       2.484   4.695  18.116  0.00  0.00    +0.000 NA
ATOM      8  H   UNL     1       3.171   4.599  17.362  0.00  0.00    +0.000 HD
ATOM      9  H   UNL     1       2.211   5.678  18.103  0.00  0.00    +0.000 HD
ENDBRANCH   6   7
BRANCH   6  10
ATOM     10  C   UNL     1       2.441   3.170  20.054  0.00  0.00    +0.000 C 
BRANCH  10  11
ATOM     11  C   UNL     1       1.744   2.312  19.022  0.00  0.00    +0.000 C 
ATOM     12  O   UNL     1       0.542   2.370  18.770  0.00  0.00    +0.000 OA
BRANCH  11  13
ATOM     13  O   UNL     1       2.578   1.473  18.380  0.00  0.00    +0.000 OA
ATOM     14  H   UNL     1       2.339   0.522  18.475  0.00  0.00    +0.000 HD
ENDBRANCH  11  13
ENDBRANCH  10  11
ENDBRANCH   6  10
ENDBRANCH   3   6
ENDBRANCH   1   2
BRANCH   1  15
ATOM     15  C   UNL     1       7.488   5.834  18.273  0.00  0.00    +0.000 C 
ATOM     16  O   UNL     1       7.889   5.988  19.433  0.00  0.00    +0.000 OA
BRANCH  15  18
ATOM     17  C   UNL     1       7.747   8.079  17.612  0.00  0.00    +0.000 C 
ATOM     18  O   UNL     1       7.746   6.695  17.247  0.00  0.00    +0.000 OA
ENDBRANCH  15  18
ENDBRANCH   1  15
BRANCH   1  19
ATOM     19  C   UNL     1       6.708   4.424  16.297  0.00  0.00    +0.000 C 
BRANCH  19  20
ATOM     20  C   UNL     1       5.376   4.699  15.614  0.00  0.00    +0.000 C 
BRANCH  20  21
ATOM     21  O   UNL     1       5.585   4.941  14.223  0.00  0.00    +0.000 OA
BRANCH  21  22
ATOM     22  C   UNL     1       5.956   3.768  13.506  0.00  0.00    +0.000 C 
ATOM     23  C   UNL     1       4.845   3.361  12.547  0.00  0.00    +0.000 C 
ATOM     24  C   UNL     1       5.537   2.464  11.529  0.00  0.00    +0.000 C 
ATOM     25  C   UNL     1       6.987   2.939  11.473  0.00  0.00    +0.000 C 
ATOM     26  C   UNL     1       7.135   3.989  12.565  0.00  0.00    +0.000 C 
ENDBRANCH  21  22
ENDBRANCH  20  21
ENDBRANCH  19  20
ENDBRANCH   1  19
TORSDOF 12
ENDMDL
MODEL 7
REMARK VINA RESULT:      -6.5      2.495      4.213
REMARK  Name = 
REMARK  13 active torsions:
REMARK  status: ('A' for Active; 'I' for Inactive)
REMARK    1  A    between atoms: C_1  and  O_2
REMARK    2  A    between atoms: O_2  and  C_3
REMARK    3  A    between atoms: C_3  and  C_5
REMARK    4  A    between atoms: C_5  and  C_6
REMARK    5  A    between atoms: C_5  and  N_14
REMARK    6  A    between atoms: C_6  and  C_7
REMARK    7  A    between atoms: C_7  and  O_8
REMARK    8  A    between atoms: O_8  and  C_9
REMARK    9  A    between atoms: C_15  and  C_17
REMARK   10  A    between atoms: C_17  and  N_18
REMARK   11  A    between atoms: C_17  and  C_19
REMARK   12  A    between atoms: C_19  and  C_20
REMARK   13  A    between atoms: C_20  and  O_22
REMARK                            x       y       z     vdW  Elec       q    Type
REMARK                         _______ _______ _______ _____ _____    ______ ____
ROOT
ATOM      1  C   UNL     1       2.990   6.173  17.462  0.00  0.00    +0.000 C 
ENDROOT
BRANCH   1   2
ATOM      2  N   UNL     1       4.389   5.725  17.588  0.00  0.00    +0.000 N 
ATOM      3  C   UNL     1       5.351   6.125  16.696  0.00  0.00    +0.000 C 
ATOM      4  O   UNL     1       5.133   6.846  15.721  0.00  0.00    +0.000 OA
ATOM      5  H   UNL     1       4.631   5.101  18.351  0.00  0.00    +0.000 HD
BRANCH   3   6
ATOM      6  C   UNL     1       6.745   5.522  16.935  0.00  0.00    +0.000 C 
BRANCH   6   7
ATOM      7  N   UNL     1       7.507   5.633  15.669  0.00  0.00    +0.000 NA
ATOM      8  H   UNL     1       8.292   6.276  15.800  0.00  0.00    +0.000 HD
ATOM      9  H   UNL     1       6.923   6.067  14.953  0.00  0.00    +0.000 HD
ENDBRANCH   6   7
BRANCH   6  10
ATOM     10  C   UNL     1       7.455   6.292  18.045  0.00  0.00    +0.000 C 
BRANCH  10  11
ATOM     11  C   UNL     1       7.354   5.573  19.372  0.00  0.00    +0.000 C 
ATOM     12  O   UNL     1       6.311   5.118  19.835  0.00  0.00    +0.000 OA
BRANCH  11  13
ATOM     13  O   UNL     1       8.536   5.463  20.005  0.00  0.00    +0.000 OA
ATOM     14  H   UNL     1       8.718   4.561  20.358  0.00  0.00    +0.000 HD
ENDBRANCH  11  13
ENDBRANCH  10  11
ENDBRANCH   6  10
ENDBRANCH   3   6
ENDBRANCH   1   2
BRANCH   1  15
ATOM     15  C   UNL     1       2.737   7.360  18.413  0.00  0.00    +0.000 C 
ATOM     16  O   UNL     1       2.481   7.239  19.616  0.00  0.00    +0.000 OA
BRANCH  15  18
ATOM     17  C   UNL     1       1.740   9.458  18.028  0.00  0.00    +0.000 C 
ATOM     18  O   UNL     1       2.816   8.555  17.757  0.00  0.00    +0.000 OA
ENDBRANCH  15  18
ENDBRANCH   1  15
BRANCH   1  19
ATOM     19  C   UNL     1       2.019   5.013  17.724  0.00  0.00    +0.000 C 
BRANCH  19  20
ATOM     20  C   UNL     1       2.553   3.703  17.161  0.00  0.00    +0.000 C 
BRANCH  20  21
ATOM     21  O   UNL     1       3.126   2.922  18.210  0.00  0.00    +0.000 OA
BRANCH  21  22
ATOM     22  C   UNL     1       2.634   3.280  19.498  0.00  0.00    +0.000 C 
ATOM     23  C   UNL     1       1.281   2.626  19.747  0.00  0.00    +0.000 C 
ATOM     24  C   UNL     1       1.124   2.655  21.262  0.00  0.00    +0.000 C 
ATOM     25  C   UNL     1       2.541   2.617  21.829  0.00  0.00    +0.000 C 
ATOM     26  C   UNL     1       3.482   2.722  20.637  0.00  0.00    +0.000 C 
ENDBRANCH  21  22
ENDBRANCH  20  21
ENDBRANCH  19  20
ENDBRANCH   1  19
TORSDOF 12
ENDMDL
MODEL 8
REMARK VINA RESULT:      -6.5      2.729      4.971
REMARK  Name = 
REMARK  13 active torsions:
REMARK  status: ('A' for Active; 'I' for Inactive)
REMARK    1  A    between atoms: C_1  and  O_2
REMARK    2  A    between atoms: O_2  and  C_3
REMARK    3  A    between atoms: C_3  and  C_5
REMARK    4  A    between atoms: C_5  and  C_6
REMARK    5  A    between atoms: C_5  and  N_14
REMARK    6  A    between atoms: C_6  and  C_7
REMARK    7  A    between atoms: C_7  and  O_8
REMARK    8  A    between atoms: O_8  and  C_9
REMARK    9  A    between atoms: C_15  and  C_17
REMARK   10  A    between atoms: C_17  and  N_18
REMARK   11  A    between atoms: C_17  and  C_19
REMARK   12  A    between atoms: C_19  and  C_20
REMARK   13  A    between atoms: C_20  and  O_22
REMARK                            x       y       z     vdW  Elec       q    Type
REMARK                         _______ _______ _______ _____ _____    ______ ____
ROOT
ATOM      1  C   UNL     1       4.108   3.603  19.413  0.00  0.00    +0.000 C 
ENDROOT
BRANCH   1   2
ATOM      2  N   UNL     1       5.046   4.090  18.385  0.00  0.00    +0.000 N 
ATOM      3  C   UNL     1       6.205   4.740  18.724  0.00  0.00    +0.000 C 
ATOM      4  O   UNL     1       6.541   4.996  19.881  0.00  0.00    +0.000 OA
ATOM      5  H   UNL     1       4.813   3.942  17.408  0.00  0.00    +0.000 HD
BRANCH   3   6
ATOM      6  C   UNL     1       7.042   5.233  17.532  0.00  0.00    +0.000 C 
BRANCH   6   7
ATOM      7  N   UNL     1       8.064   4.201  17.243  0.00  0.00    +0.000 NA
ATOM      8  H   UNL     1       8.931   4.433  17.736  0.00  0.00    +0.000 HD
ATOM      9  H   UNL     1       8.307   4.225  16.252  0.00  0.00    +0.000 HD
ENDBRANCH   6   7
BRANCH   6  10
ATOM     10  C   UNL     1       6.140   5.435  16.318  0.00  0.00    +0.000 C 
BRANCH  10  11
ATOM     11  C   UNL     1       6.724   4.795  15.079  0.00  0.00    +0.000 C 
ATOM     12  O   UNL     1       6.327   3.740  14.591  0.00  0.00    +0.000 OA
BRANCH  11  13
ATOM     13  O   UNL     1       7.730   5.509  14.539  0.00  0.00    +0.000 OA
ATOM     14  H   UNL     1       7.958   5.244  13.618  0.00  0.00    +0.000 HD
ENDBRANCH  11  13
ENDBRANCH  10  11
ENDBRANCH   6  10
ENDBRANCH   3   6
ENDBRANCH   1   2
BRANCH   1  15
ATOM     15  C   UNL     1       3.216   2.495  18.820  0.00  0.00    +0.000 C 
ATOM     16  O   UNL     1       3.414   1.962  17.723  0.00  0.00    +0.000 OA
BRANCH  15  18
ATOM     17  C   UNL     1       0.889   2.198  19.025  0.00  0.00    +0.000 C 
ATOM     18  O   UNL     1       2.176   2.188  19.650  0.00  0.00    +0.000 OA
ENDBRANCH  15  18
ENDBRANCH   1  15
BRANCH   1  19
ATOM     19  C   UNL     1       3.278   4.760  19.987  0.00  0.00    +0.000 C 
BRANCH  19  20
ATOM     20  C   UNL     1       2.497   5.479  18.897  0.00  0.00    +0.000 C 
BRANCH  20  21
ATOM     21  O   UNL     1       3.008   6.801  18.724  0.00  0.00    +0.000 OA
BRANCH  21  22
ATOM     22  C   UNL     1       1.982   7.778  18.586  0.00  0.00    +0.000 C 
ATOM     23  C   UNL     1       1.545   8.283  19.955  0.00  0.00    +0.000 C 
ATOM     24  C   UNL     1       0.866   9.616  19.664  0.00  0.00    +0.000 C 
ATOM     25  C   UNL     1       1.529  10.154  18.399  0.00  0.00    +0.000 C 
ATOM     26  C   UNL     1       2.460   9.055  17.904  0.00  0.00    +0.000 C 
ENDBRANCH  21  22
ENDBRANCH  20  21
ENDBRANCH  19  20
ENDBRANCH   1  19
TORSDOF 12
ENDMDL
MODEL 9
REMARK VINA RESULT:      -6.5      3.075      5.493
REMARK  Name = 
REMARK  13 active torsions:
REMARK  status: ('A' for Active; 'I' for Inactive)
REMARK    1  A    between atoms: C_1  and  O_2
REMARK    2  A    between atoms: O_2  and  C_3
REMARK    3  A    between atoms: C_3  and  C_5
REMARK    4  A    between atoms: C_5  and  C_6
REMARK    5  A    between atoms: C_5  and  N_14
REMARK    6  A    between atoms: C_6  and  C_7
REMARK    7  A    between atoms: C_7  and  O_8
REMARK    8  A    between atoms: O_8  and  C_9
REMARK    9  A    between atoms: C_15  and  C_17
REMARK   10  A    between atoms: C_17  and  N_18
REMARK   11  A    between atoms: C_17  and  C_19
REMARK   12  A    between atoms: C_19  and  C_20
REMARK   13  A    between atoms: C_20  and  O_22
REMARK                            x       y       z     vdW  Elec       q    Type
REMARK                         _______ _______ _______ _____ _____    ______ ____
ROOT
ATOM      1  C   UNL     1       3.760   4.573  19.713  0.00  0.00    +0.000 C 
ENDROOT
BRANCH   1   2
ATOM      2  N   UNL     1       4.685   4.589  18.565  0.00  0.00    +0.000 N 
ATOM      3  C   UNL     1       6.017   4.877  18.723  0.00  0.00    +0.000 C 
ATOM      4  O   UNL     1       6.537   5.170  19.801  0.00  0.00    +0.000 OA
ATOM      5  H   UNL     1       4.314   4.389  17.641  0.00  0.00    +0.000 HD
BRANCH   3   6
ATOM      6  C   UNL     1       6.831   4.909  17.419  0.00  0.00    +0.000 C 
BRANCH   6   7
ATOM      7  N   UNL     1       8.085   4.154  17.653  0.00  0.00    +0.000 NA
ATOM      8  H   UNL     1       8.807   4.793  17.997  0.00  0.00    +0.000 HD
ATOM      9  H   UNL     1       8.444   3.799  16.766  0.00  0.00    +0.000 HD
ENDBRANCH   6   7
BRANCH   6  10
ATOM     10  C   UNL     1       6.028   4.261  16.295  0.00  0.00    +0.000 C 
BRANCH  10  11
ATOM     11  C   UNL     1       6.697   4.454  14.952  0.00  0.00    +0.000 C 
ATOM     12  O   UNL     1       6.397   3.836  13.933  0.00  0.00    +0.000 OA
BRANCH  11  13
ATOM     13  O   UNL     1       7.659   5.395  14.971  0.00  0.00    +0.000 OA
ATOM     14  H   UNL     1       8.317   5.279  15.694  0.00  0.00    +0.000 HD
ENDBRANCH  11  13
ENDBRANCH  10  11
ENDBRANCH   6  10
ENDBRANCH   3   6
ENDBRANCH   1   2
BRANCH   1  15
ATOM     15  C   UNL     1       3.126   3.174  19.849  0.00  0.00    +0.000 C 
ATOM     16  O   UNL     1       2.832   2.452  18.889  0.00  0.00    +0.000 OA
BRANCH  15  18
ATOM     17  C   UNL     1       1.541   2.702  21.525  0.00  0.00    +0.000 C 
ATOM     18  O   UNL     1       2.916   2.843  21.156  0.00  0.00    +0.000 OA
ENDBRANCH  15  18
ENDBRANCH   1  15
BRANCH   1  19
ATOM     19  C   UNL     1       2.698   5.672  19.574  0.00  0.00    +0.000 C 
BRANCH  19  20
ATOM     20  C   UNL     1       2.802   6.380  18.230  0.00  0.00    +0.000 C 
BRANCH  20  21
ATOM     21  O   UNL     1       3.002   7.778  18.433  0.00  0.00    +0.000 OA
BRANCH  21  22
ATOM     22  C   UNL     1       1.781   8.505  18.527  0.00  0.00    +0.000 C 
ATOM     23  C   UNL     1       1.452   8.798  19.985  0.00  0.00    +0.000 C 
ATOM     24  C   UNL     1       0.468   9.959  19.922  0.00  0.00    +0.000 C 
ATOM     25  C   UNL     1       0.806  10.723  18.644  0.00  0.00    +0.000 C 
ATOM     26  C   UNL     1       1.868   9.903  17.924  0.00  0.00    +0.000 C 
ENDBRANCH  21  22
ENDBRANCH  20  21
ENDBRANCH  19  20
ENDBRANCH   1  19
TORSDOF 12
ENDMDL
