MODEL 1
REMARK VINA RESULT:      -8.1      0.000      0.000
REMARK  Name = 
REMARK  6 active torsions:
REMARK  status: ('A' for Active; 'I' for Inactive)
REMARK    1  A    between atoms: O_1  and  C_2
REMARK    2  A    between atoms: C_2  and  C_3
REMARK    3  A    between atoms: C_2  and  C_15
REMARK    4  A    between atoms: C_3  and  O_4
REMARK    5  A    between atoms: O_4  and  C_5
REMARK    6  A    between atoms: C_15  and  N_16
REMARK                            x       y       z     vdW  Elec       q    Type
REMARK                         _______ _______ _______ _____ _____    ______ ____
ROOT
ATOM      1  C   UNL     1       1.215   3.675  19.840  0.00  0.00    +0.000 C 
ENDROOT
BRANCH   1   2
ATOM      2  O   UNL     1      -0.037   3.042  19.819  0.00  0.00    +0.000 OA
ATOM      3  H   UNL     1      -0.715   3.732  20.041  0.00  0.00    +0.000 HD
ENDBRANCH   1   2
BRANCH   1   4
ATOM      4  C   UNL     1       1.141   5.027  20.577  0.00  0.00    +0.000 C 
BRANCH   4   5
ATOM      5  O   UNL     1       2.227   5.858  20.336  0.00  0.00    +0.000 OA
BRANCH   5   6
ATOM      6  C   UNL     1       2.157   6.991  19.563  0.00  0.00    +0.000 A 
ATOM      7  C   UNL     1       2.728   7.025  18.267  0.00  0.00    +0.000 A 
ATOM      8  C   UNL     1       2.673   8.175  17.484  0.00  0.00    +0.000 A 
ATOM      9  C   UNL     1       2.051   9.320  17.960  0.00  0.00    +0.000 A 
ATOM     10  C   UNL     1       1.471   9.329  19.235  0.00  0.00    +0.000 A 
ATOM     11  C   UNL     1       0.844  10.495  19.706  0.00  0.00    +0.000 A 
ATOM     12  C   UNL     1       0.264  10.514  20.972  0.00  0.00    +0.000 A 
ATOM     13  C   UNL     1       0.298   9.374  21.776  0.00  0.00    +0.000 A 
ATOM     14  C   UNL     1       0.919   8.203  21.323  0.00  0.00    +0.000 A 
ATOM     15  C   UNL     1       1.516   8.161  20.049  0.00  0.00    +0.000 A 
ENDBRANCH   5   6
ENDBRANCH   4   5
ENDBRANCH   1   4
BRANCH   1  16
ATOM     16  C   UNL     1       2.229   2.775  20.598  0.00  0.00    +0.000 C 
BRANCH  16  17
ATOM     17  N   UNL     1       3.056   1.890  19.732  0.00  0.00    +0.000 NA
ATOM     18  C   UNL     1       2.752   1.977  18.284  0.00  0.00    +0.000 C 
ATOM     19  C   UNL     1       3.101   3.360  17.719  0.00  0.00    +0.000 C 
ATOM     20  N   UNL     1       4.494   3.683  18.013  0.00  0.00    +0.000 N 
ATOM     21  C   UNL     1       5.343   4.216  16.983  0.00  0.00    +0.000 A 
ATOM     22  C   UNL     1       6.469   5.012  17.288  0.00  0.00    +0.000 A 
ATOM     23  C   UNL     1       7.216   5.579  16.253  0.00  0.00    +0.000 A 
ATOM     24  C   UNL     1       6.856   5.349  14.927  0.00  0.00    +0.000 A 
ATOM     25  C   UNL     1       5.744   4.555  14.652  0.00  0.00    +0.000 A 
ATOM     26  N   UNL     1       5.017   4.028  15.672  0.00  0.00    +0.000 NA
ATOM     27  C   UNL     1       4.933   3.530  19.398  0.00  0.00    +0.000 C 
ATOM     28  C   UNL     1       4.508   2.141  19.926  0.00  0.00    +0.000 C 
ENDBRANCH  16  17
ENDBRANCH   1  16
TORSDOF 6
ENDMDL
MODEL 2
REMARK VINA RESULT:      -8.1      4.637      9.510
REMARK  Name = 
REMARK  6 active torsions:
REMARK  status: ('A' for Active; 'I' for Inactive)
REMARK    1  A    between atoms: O_1  and  C_2
REMARK    2  A    between atoms: C_2  and  C_3
REMARK    3  A    between atoms: C_2  and  C_15
REMARK    4  A    between atoms: C_3  and  O_4
REMARK    5  A    between atoms: O_4  and  C_5
REMARK    6  A    between atoms: C_15  and  N_16
REMARK                            x       y       z     vdW  Elec       q    Type
REMARK                         _______ _______ _______ _____ _____    ______ ____
ROOT
ATOM      1  C   UNL     1       1.360   9.426  17.945  0.00  0.00    +0.000 C 
ENDROOT
BRANCH   1   2
ATOM      2  O   UNL     1       2.135  10.464  17.407  0.00  0.00    +0.000 OA
ATOM      3  H   UNL     1       3.000  10.066  17.127  0.00  0.00    +0.000 HD
ENDBRANCH   1   2
BRANCH   1   4
ATOM      4  C   UNL     1       2.199   8.539  18.887  0.00  0.00    +0.000 C 
BRANCH   4   5
ATOM      5  O   UNL     1       2.010   7.177  18.692  0.00  0.00    +0.000 OA
BRANCH   5   6
ATOM      6  C   UNL     1       2.920   6.370  18.054  0.00  0.00    +0.000 A 
ATOM      7  C   UNL     1       4.057   6.919  17.413  0.00  0.00    +0.000 A 
ATOM      8  C   UNL     1       4.976   6.107  16.754  0.00  0.00    +0.000 A 
ATOM      9  C   UNL     1       4.796   4.732  16.711  0.00  0.00    +0.000 A 
ATOM     10  C   UNL     1       3.687   4.147  17.335  0.00  0.00    +0.000 A 
ATOM     11  C   UNL     1       3.515   2.754  17.285  0.00  0.00    +0.000 A 
ATOM     12  C   UNL     1       2.416   2.162  17.902  0.00  0.00    +0.000 A 
ATOM     13  C   UNL     1       1.483   2.950  18.576  0.00  0.00    +0.000 A 
ATOM     14  C   UNL     1       1.637   4.341  18.635  0.00  0.00    +0.000 A 
ATOM     15  C   UNL     1       2.737   4.962  18.016  0.00  0.00    +0.000 A 
ENDBRANCH   5   6
ENDBRANCH   4   5
ENDBRANCH   1   4
BRANCH   1  16
ATOM     16  C   UNL     1       0.198  10.034  18.776  0.00  0.00    +0.000 C 
BRANCH  16  17
ATOM     17  N   UNL     1       0.431  11.421  19.266  0.00  0.00    +0.000 NA
ATOM     18  C   UNL     1      -0.636  12.390  18.921  0.00  0.00    +0.000 C 
ATOM     19  C   UNL     1      -1.955  12.043  19.623  0.00  0.00    +0.000 C 
ATOM     20  N   UNL     1      -1.744  11.940  21.064  0.00  0.00    +0.000 N 
ATOM     21  C   UNL     1      -2.653  12.582  21.973  0.00  0.00    +0.000 A 
ATOM     22  C   UNL     1      -2.830  12.119  23.296  0.00  0.00    +0.000 A 
ATOM     23  C   UNL     1      -3.786  12.719  24.117  0.00  0.00    +0.000 A 
ATOM     24  C   UNL     1      -4.552  13.780  23.635  0.00  0.00    +0.000 A 
ATOM     25  C   UNL     1      -4.354  14.222  22.329  0.00  0.00    +0.000 A 
ATOM     26  N   UNL     1      -3.433  13.612  21.537  0.00  0.00    +0.000 NA
ATOM     27  C   UNL     1      -0.644  11.091  21.514  0.00  0.00    +0.000 C 
ATOM     28  C   UNL     1       0.642  11.451  20.737  0.00  0.00    +0.000 C 
ENDBRANCH  16  17
ENDBRANCH   1  16
TORSDOF 6
ENDMDL
MODEL 3
REMARK VINA RESULT:      -8.0      4.654      9.673
REMARK  Name = 
REMARK  6 active torsions:
REMARK  status: ('A' for Active; 'I' for Inactive)
REMARK    1  A    between atoms: O_1  and  C_2
REMARK    2  A    between atoms: C_2  and  C_3
REMARK    3  A    between atoms: C_2  and  C_15
REMARK    4  A    between atoms: C_3  and  O_4
REMARK    5  A    between atoms: O_4  and  C_5
REMARK    6  A    between atoms: C_15  and  N_16
REMARK                            x       y       z     vdW  Elec       q    Type
REMARK                         _______ _______ _______ _____ _____    ______ ____
ROOT
ATOM      1  C   UNL     1       1.308   9.431  17.902  0.00  0.00    +0.000 C 
ENDROOT
BRANCH   1   2
ATOM      2  O   UNL     1       2.188  10.456  17.523  0.00  0.00    +0.000 OA
ATOM      3  H   UNL     1       1.745  10.965  16.795  0.00  0.00    +0.000 HD
ENDBRANCH   1   2
BRANCH   1   4
ATOM      4  C   UNL     1       2.032   8.365  18.750  0.00  0.00    +0.000 C 
BRANCH   4   5
ATOM      5  O   UNL     1       3.146   7.815  18.128  0.00  0.00    +0.000 OA
BRANCH   5   6
ATOM      6  C   UNL     1       3.262   6.481  17.825  0.00  0.00    +0.000 A 
ATOM      7  C   UNL     1       2.168   5.598  17.992  0.00  0.00    +0.000 A 
ATOM      8  C   UNL     1       2.283   4.242  17.699  0.00  0.00    +0.000 A 
ATOM      9  C   UNL     1       3.483   3.723  17.233  0.00  0.00    +0.000 A 
ATOM     10  C   UNL     1       4.589   4.561  17.050  0.00  0.00    +0.000 A 
ATOM     11  C   UNL     1       5.798   4.025  16.577  0.00  0.00    +0.000 A 
ATOM     12  C   UNL     1       6.905   4.850  16.392  0.00  0.00    +0.000 A 
ATOM     13  C   UNL     1       6.816   6.214  16.670  0.00  0.00    +0.000 A 
ATOM     14  C   UNL     1       5.619   6.767  17.143  0.00  0.00    +0.000 A 
ATOM     15  C   UNL     1       4.489   5.952  17.342  0.00  0.00    +0.000 A 
ENDBRANCH   5   6
ENDBRANCH   4   5
ENDBRANCH   1   4
BRANCH   1  16
ATOM     16  C   UNL     1       0.167  10.031  18.767  0.00  0.00    +0.000 C 
BRANCH  16  17
ATOM     17  N   UNL     1       0.415  11.412  19.267  0.00  0.00    +0.000 NA
ATOM     18  C   UNL     1      -0.644  12.394  18.931  0.00  0.00    +0.000 C 
ATOM     19  C   UNL     1      -1.965  12.054  19.633  0.00  0.00    +0.000 C 
ATOM     20  N   UNL     1      -1.752  11.939  21.073  0.00  0.00    +0.000 N 
ATOM     21  C   UNL     1      -2.653  12.582  21.988  0.00  0.00    +0.000 A 
ATOM     22  C   UNL     1      -2.832  12.111  23.308  0.00  0.00    +0.000 A 
ATOM     23  C   UNL     1      -3.781  12.715  24.135  0.00  0.00    +0.000 A 
ATOM     24  C   UNL     1      -4.538  13.785  23.663  0.00  0.00    +0.000 A 
ATOM     25  C   UNL     1      -4.339  14.236  22.359  0.00  0.00    +0.000 A 
ATOM     26  N   UNL     1      -3.425  13.623  21.561  0.00  0.00    +0.000 NA
ATOM     27  C   UNL     1      -0.660  11.075  21.515  0.00  0.00    +0.000 C 
ATOM     28  C   UNL     1       0.629  11.430  20.738  0.00  0.00    +0.000 C 
ENDBRANCH  16  17
ENDBRANCH   1  16
TORSDOF 6
ENDMDL
MODEL 4
REMARK VINA RESULT:      -8.0      6.110      8.153
REMARK  Name = 
REMARK  6 active torsions:
REMARK  status: ('A' for Active; 'I' for Inactive)
REMARK    1  A    between atoms: O_1  and  C_2
REMARK    2  A    between atoms: C_2  and  C_3
REMARK    3  A    between atoms: C_2  and  C_15
REMARK    4  A    between atoms: C_3  and  O_4
REMARK    5  A    between atoms: O_4  and  C_5
REMARK    6  A    between atoms: C_15  and  N_16
REMARK                            x       y       z     vdW  Elec       q    Type
REMARK                         _______ _______ _______ _____ _____    ______ ____
ROOT
ATOM      1  C   UNL     1       8.200   8.536  17.848  0.00  0.00    +0.000 C 
ENDROOT
BRANCH   1   2
ATOM      2  O   UNL     1       7.053   9.243  17.456  0.00  0.00    +0.000 OA
ATOM      3  H   UNL     1       7.362  10.046  16.961  0.00  0.00    +0.000 HD
ENDBRANCH   1   2
BRANCH   1   4
ATOM      4  C   UNL     1       8.897   9.227  19.037  0.00  0.00    +0.000 C 
BRANCH   4   5
ATOM      5  O   UNL     1       9.796  10.217  18.662  0.00  0.00    +0.000 OA
BRANCH   5   6
ATOM      6  C   UNL     1       9.987  11.376  19.374  0.00  0.00    +0.000 A 
ATOM      7  C   UNL     1       9.649  11.452  20.747  0.00  0.00    +0.000 A 
ATOM      8  C   UNL     1       9.827  12.627  21.471  0.00  0.00    +0.000 A 
ATOM      9  C   UNL     1      10.345  13.758  20.858  0.00  0.00    +0.000 A 
ATOM     10  C   UNL     1      10.697  13.727  19.503  0.00  0.00    +0.000 A 
ATOM     11  C   UNL     1      11.221  14.878  18.892  0.00  0.00    +0.000 A 
ATOM     12  C   UNL     1      11.573  14.858  17.545  0.00  0.00    +0.000 A 
ATOM     13  C   UNL     1      11.412  13.691  16.797  0.00  0.00    +0.000 A 
ATOM     14  C   UNL     1      10.890  12.534  17.388  0.00  0.00    +0.000 A 
ATOM     15  C   UNL     1      10.523  12.531  18.747  0.00  0.00    +0.000 A 
ENDBRANCH   5   6
ENDBRANCH   4   5
ENDBRANCH   1   4
BRANCH   1  16
ATOM     16  C   UNL     1       7.790   7.109  18.302  0.00  0.00    +0.000 C 
BRANCH  16  17
ATOM     17  N   UNL     1       7.447   6.171  17.198  0.00  0.00    +0.000 NA
ATOM     18  C   UNL     1       7.383   4.743  17.592  0.00  0.00    +0.000 C 
ATOM     19  C   UNL     1       6.232   4.484  18.572  0.00  0.00    +0.000 C 
ATOM     20  N   UNL     1       4.974   4.960  18.004  0.00  0.00    +0.000 N 
ATOM     21  C   UNL     1       3.802   4.131  18.056  0.00  0.00    +0.000 A 
ATOM     22  C   UNL     1       2.501   4.682  18.024  0.00  0.00    +0.000 A 
ATOM     23  C   UNL     1       1.392   3.845  18.163  0.00  0.00    +0.000 A 
ATOM     24  C   UNL     1       1.569   2.472  18.319  0.00  0.00    +0.000 A 
ATOM     25  C   UNL     1       2.862   1.952  18.341  0.00  0.00    +0.000 A 
ATOM     26  N   UNL     1       3.931   2.783  18.225  0.00  0.00    +0.000 NA
ATOM     27  C   UNL     1       4.954   6.325  17.486  0.00  0.00    +0.000 C 
ATOM     28  C   UNL     1       6.163   6.541  16.547  0.00  0.00    +0.000 C 
ENDBRANCH  16  17
ENDBRANCH   1  16
TORSDOF 6
ENDMDL
MODEL 5
REMARK VINA RESULT:      -8.0      1.793      2.796
REMARK  Name = 
REMARK  6 active torsions:
REMARK  status: ('A' for Active; 'I' for Inactive)
REMARK    1  A    between atoms: O_1  and  C_2
REMARK    2  A    between atoms: C_2  and  C_3
REMARK    3  A    between atoms: C_2  and  C_15
REMARK    4  A    between atoms: C_3  and  O_4
REMARK    5  A    between atoms: O_4  and  C_5
REMARK    6  A    between atoms: C_15  and  N_16
REMARK                            x       y       z     vdW  Elec       q    Type
REMARK                         _______ _______ _______ _____ _____    ______ ____
ROOT
ATOM      1  C   UNL     1       3.121   5.331  19.559  0.00  0.00    +0.000 C 
ENDROOT
BRANCH   1   2
ATOM      2  O   UNL     1       3.164   5.261  20.960  0.00  0.00    +0.000 OA
ATOM      3  H   UNL     1       2.484   5.896  21.304  0.00  0.00    +0.000 HD
ENDBRANCH   1   2
BRANCH   1   4
ATOM      4  C   UNL     1       2.228   6.497  19.091  0.00  0.00    +0.000 C 
BRANCH   4   5
ATOM      5  O   UNL     1       2.182   7.562  19.981  0.00  0.00    +0.000 OA
BRANCH   5   6
ATOM      6  C   UNL     1       1.506   8.731  19.731  0.00  0.00    +0.000 A 
ATOM      7  C   UNL     1       1.556   9.342  18.454  0.00  0.00    +0.000 A 
ATOM      8  C   UNL     1       0.884  10.534  18.197  0.00  0.00    +0.000 A 
ATOM      9  C   UNL     1       0.144  11.152  19.194  0.00  0.00    +0.000 A 
ATOM     10  C   UNL     1       0.064  10.580  20.470  0.00  0.00    +0.000 A 
ATOM     11  C   UNL     1      -0.689  11.215  21.472  0.00  0.00    +0.000 A 
ATOM     12  C   UNL     1      -0.775  10.655  22.744  0.00  0.00    +0.000 A 
ATOM     13  C   UNL     1      -0.117   9.458  23.028  0.00  0.00    +0.000 A 
ATOM     14  C   UNL     1       0.639   8.810  22.042  0.00  0.00    +0.000 A 
ATOM     15  C   UNL     1       0.744   9.359  20.750  0.00  0.00    +0.000 A 
ENDBRANCH   5   6
ENDBRANCH   4   5
ENDBRANCH   1   4
BRANCH   1  16
ATOM     16  C   UNL     1       4.554   5.581  19.016  0.00  0.00    +0.000 C 
BRANCH  16  17
ATOM     17  N   UNL     1       5.301   4.355  18.621  0.00  0.00    +0.000 NA
ATOM     18  C   UNL     1       4.655   3.549  17.558  0.00  0.00    +0.000 C 
ATOM     19  C   UNL     1       4.606   4.312  16.228  0.00  0.00    +0.000 C 
ATOM     20  N   UNL     1       5.947   4.750  15.853  0.00  0.00    +0.000 N 
ATOM     21  C   UNL     1       6.420   4.555  14.510  0.00  0.00    +0.000 A 
ATOM     22  C   UNL     1       7.424   5.377  13.950  0.00  0.00    +0.000 A 
ATOM     23  C   UNL     1       7.791   5.206  12.614  0.00  0.00    +0.000 A 
ATOM     24  C   UNL     1       7.178   4.221  11.842  0.00  0.00    +0.000 A 
ATOM     25  C   UNL     1       6.195   3.419  12.419  0.00  0.00    +0.000 A 
ATOM     26  N   UNL     1       5.835   3.613  13.716  0.00  0.00    +0.000 NA
ATOM     27  C   UNL     1       6.719   5.466  16.866  0.00  0.00    +0.000 C 
ATOM     28  C   UNL     1       6.689   4.676  18.195  0.00  0.00    +0.000 C 
ENDBRANCH  16  17
ENDBRANCH   1  16
TORSDOF 6
ENDMDL
MODEL 6
REMARK VINA RESULT:      -8.0      5.670      7.642
REMARK  Name = 
REMARK  6 active torsions:
REMARK  status: ('A' for Active; 'I' for Inactive)
REMARK    1  A    between atoms: O_1  and  C_2
REMARK    2  A    between atoms: C_2  and  C_3
REMARK    3  A    between atoms: C_2  and  C_15
REMARK    4  A    between atoms: C_3  and  O_4
REMARK    5  A    between atoms: O_4  and  C_5
REMARK    6  A    between atoms: C_15  and  N_16
REMARK                            x       y       z     vdW  Elec       q    Type
REMARK                         _______ _______ _______ _____ _____    ______ ____
ROOT
ATOM      1  C   UNL     1       7.827   7.839  17.700  0.00  0.00    +0.000 C 
ENDROOT
BRANCH   1   2
ATOM      2  O   UNL     1       8.456   7.436  16.513  0.00  0.00    +0.000 OA
ATOM      3  H   UNL     1       8.599   8.253  15.967  0.00  0.00    +0.000 HD
ENDBRANCH   1   2
BRANCH   1   4
ATOM      4  C   UNL     1       8.007   9.351  17.937  0.00  0.00    +0.000 C 
BRANCH   4   5
ATOM      5  O   UNL     1       9.044   9.662  18.808  0.00  0.00    +0.000 OA
BRANCH   5   6
ATOM      6  C   UNL     1       9.678  10.880  18.827  0.00  0.00    +0.000 A 
ATOM      7  C   UNL     1      10.426  11.329  17.710  0.00  0.00    +0.000 A 
ATOM      8  C   UNL     1      11.082  12.556  17.728  0.00  0.00    +0.000 A 
ATOM      9  C   UNL     1      11.017  13.372  18.847  0.00  0.00    +0.000 A 
ATOM     10  C   UNL     1      10.286  12.969  19.972  0.00  0.00    +0.000 A 
ATOM     11  C   UNL     1      10.227  13.805  21.100  0.00  0.00    +0.000 A 
ATOM     12  C   UNL     1       9.503  13.413  22.223  0.00  0.00    +0.000 A 
ATOM     13  C   UNL     1       8.829  12.192  22.232  0.00  0.00    +0.000 A 
ATOM     14  C   UNL     1       8.877  11.345  21.117  0.00  0.00    +0.000 A 
ATOM     15  C   UNL     1       9.606  11.717  19.971  0.00  0.00    +0.000 A 
ENDBRANCH   5   6
ENDBRANCH   4   5
ENDBRANCH   1   4
BRANCH   1  16
ATOM     16  C   UNL     1       6.304   7.553  17.593  0.00  0.00    +0.000 C 
BRANCH  16  17
ATOM     17  N   UNL     1       5.951   6.192  17.103  0.00  0.00    +0.000 NA
ATOM     18  C   UNL     1       6.278   5.090  18.039  0.00  0.00    +0.000 C 
ATOM     19  C   UNL     1       5.438   5.175  19.320  0.00  0.00    +0.000 C 
ATOM     20  N   UNL     1       4.018   5.214  18.985  0.00  0.00    +0.000 N 
ATOM     21  C   UNL     1       3.087   4.377  19.691  0.00  0.00    +0.000 A 
ATOM     22  C   UNL     1       1.721   4.717  19.805  0.00  0.00    +0.000 A 
ATOM     23  C   UNL     1       0.871   3.918  20.572  0.00  0.00    +0.000 A 
ATOM     24  C   UNL     1       1.368   2.784  21.212  0.00  0.00    +0.000 A 
ATOM     25  C   UNL     1       2.719   2.467  21.080  0.00  0.00    +0.000 A 
ATOM     26  N   UNL     1       3.536   3.267  20.345  0.00  0.00    +0.000 NA
ATOM     27  C   UNL     1       3.597   6.196  17.988  0.00  0.00    +0.000 C 
ATOM     28  C   UNL     1       4.511   6.098  16.745  0.00  0.00    +0.000 C 
ENDBRANCH  16  17
ENDBRANCH   1  16
TORSDOF 6
ENDMDL
MODEL 7
REMARK VINA RESULT:      -8.0      5.309      7.535
REMARK  Name = 
REMARK  6 active torsions:
REMARK  status: ('A' for Active; 'I' for Inactive)
REMARK    1  A    between atoms: O_1  and  C_2
REMARK    2  A    between atoms: C_2  and  C_3
REMARK    3  A    between atoms: C_2  and  C_15
REMARK    4  A    between atoms: C_3  and  O_4
REMARK    5  A    between atoms: O_4  and  C_5
REMARK    6  A    between atoms: C_15  and  N_16
REMARK                            x       y       z     vdW  Elec       q    Type
REMARK                         _______ _______ _______ _____ _____    ______ ____
ROOT
ATOM      1  C   UNL     1       7.527   7.370  18.116  0.00  0.00    +0.000 C 
ENDROOT
BRANCH   1   2
ATOM      2  O   UNL     1       8.364   6.801  19.088  0.00  0.00    +0.000 OA
ATOM      3  H   UNL     1       9.153   6.433  18.612  0.00  0.00    +0.000 HD
ENDBRANCH   1   2
BRANCH   1   4
ATOM      4  C   UNL     1       8.187   8.605  17.470  0.00  0.00    +0.000 C 
BRANCH   4   5
ATOM      5  O   UNL     1       8.732   9.494  18.388  0.00  0.00    +0.000 OA
BRANCH   5   6
ATOM      6  C   UNL     1       8.777  10.853  18.191  0.00  0.00    +0.000 A 
ATOM      7  C   UNL     1       7.764  11.516  17.455  0.00  0.00    +0.000 A 
ATOM      8  C   UNL     1       7.811  12.890  17.241  0.00  0.00    +0.000 A 
ATOM      9  C   UNL     1       8.858  13.646  17.748  0.00  0.00    +0.000 A 
ATOM     10  C   UNL     1       9.879  13.031  18.484  0.00  0.00    +0.000 A 
ATOM     11  C   UNL     1      10.934  13.806  18.993  0.00  0.00    +0.000 A 
ATOM     12  C   UNL     1      11.954  13.205  19.726  0.00  0.00    +0.000 A 
ATOM     13  C   UNL     1      11.929  11.830  19.963  0.00  0.00    +0.000 A 
ATOM     14  C   UNL     1      10.886  11.041  19.463  0.00  0.00    +0.000 A 
ATOM     15  C   UNL     1       9.846  11.625  18.716  0.00  0.00    +0.000 A 
ENDBRANCH   5   6
ENDBRANCH   4   5
ENDBRANCH   1   4
BRANCH   1  16
ATOM     16  C   UNL     1       7.267   6.329  16.993  0.00  0.00    +0.000 C 
BRANCH  16  17
ATOM     17  N   UNL     1       5.933   6.429  16.339  0.00  0.00    +0.000 NA
ATOM     18  C   UNL     1       5.369   5.138  15.878  0.00  0.00    +0.000 C 
ATOM     19  C   UNL     1       5.055   4.210  17.058  0.00  0.00    +0.000 C 
ATOM     20  N   UNL     1       4.180   4.890  18.009  0.00  0.00    +0.000 N 
ATOM     21  C   UNL     1       3.028   4.213  18.539  0.00  0.00    +0.000 A 
ATOM     22  C   UNL     1       2.468   4.566  19.787  0.00  0.00    +0.000 A 
ATOM     23  C   UNL     1       1.403   3.826  20.301  0.00  0.00    +0.000 A 
ATOM     24  C   UNL     1       0.886   2.752  19.578  0.00  0.00    +0.000 A 
ATOM     25  C   UNL     1       1.451   2.427  18.347  0.00  0.00    +0.000 A 
ATOM     26  N   UNL     1       2.502   3.146  17.871  0.00  0.00    +0.000 NA
ATOM     27  C   UNL     1       4.587   6.221  18.452  0.00  0.00    +0.000 C 
ATOM     28  C   UNL     1       4.939   7.091  17.224  0.00  0.00    +0.000 C 
ENDBRANCH  16  17
ENDBRANCH   1  16
TORSDOF 6
ENDMDL
MODEL 8
REMARK VINA RESULT:      -8.0      4.557      9.333
REMARK  Name = 
REMARK  6 active torsions:
REMARK  status: ('A' for Active; 'I' for Inactive)
REMARK    1  A    between atoms: O_1  and  C_2
REMARK    2  A    between atoms: C_2  and  C_3
REMARK    3  A    between atoms: C_2  and  C_15
REMARK    4  A    between atoms: C_3  and  O_4
REMARK    5  A    between atoms: O_4  and  C_5
REMARK    6  A    between atoms: C_15  and  N_16
REMARK                            x       y       z     vdW  Elec       q    Type
REMARK                         _______ _______ _______ _____ _____    ______ ____
ROOT
ATOM      1  C   UNL     1       1.376   9.286  17.901  0.00  0.00    +0.000 C 
ENDROOT
BRANCH   1   2
ATOM      2  O   UNL     1       2.148  10.349  17.409  0.00  0.00    +0.000 OA
ATOM      3  H   UNL     1       1.568  11.155  17.413  0.00  0.00    +0.000 HD
ENDBRANCH   1   2
BRANCH   1   4
ATOM      4  C   UNL     1       2.257   8.253  18.631  0.00  0.00    +0.000 C 
BRANCH   4   5
ATOM      5  O   UNL     1       2.152   6.965  18.121  0.00  0.00    +0.000 OA
BRANCH   5   6
ATOM      6  C   UNL     1       3.063   5.970  18.382  0.00  0.00    +0.000 A 
ATOM      7  C   UNL     1       4.350   5.988  17.792  0.00  0.00    +0.000 A 
ATOM      8  C   UNL     1       5.273   4.976  18.042  0.00  0.00    +0.000 A 
ATOM      9  C   UNL     1       4.948   3.921  18.881  0.00  0.00    +0.000 A 
ATOM     10  C   UNL     1       3.687   3.865  19.488  0.00  0.00    +0.000 A 
ATOM     11  C   UNL     1       3.370   2.792  20.337  0.00  0.00    +0.000 A 
ATOM     12  C   UNL     1       2.119   2.727  20.946  0.00  0.00    +0.000 A 
ATOM     13  C   UNL     1       1.177   3.731  20.719  0.00  0.00    +0.000 A 
ATOM     14  C   UNL     1       1.475   4.809  19.876  0.00  0.00    +0.000 A 
ATOM     15  C   UNL     1       2.731   4.894  19.246  0.00  0.00    +0.000 A 
ENDBRANCH   5   6
ENDBRANCH   4   5
ENDBRANCH   1   4
BRANCH   1  16
ATOM     16  C   UNL     1       0.341   9.834  18.921  0.00  0.00    +0.000 C 
BRANCH  16  17
ATOM     17  N   UNL     1       0.625  11.204  19.431  0.00  0.00    +0.000 NA
ATOM     18  C   UNL     1      -0.373  12.230  19.044  0.00  0.00    +0.000 C 
ATOM     19  C   UNL     1      -1.740  11.950  19.682  0.00  0.00    +0.000 C 
ATOM     20  N   UNL     1      -1.601  11.829  21.130  0.00  0.00    +0.000 N 
ATOM     21  C   UNL     1      -2.517  12.513  22.001  0.00  0.00    +0.000 A 
ATOM     22  C   UNL     1      -2.779  12.053  23.311  0.00  0.00    +0.000 A 
ATOM     23  C   UNL     1      -3.740  12.700  24.091  0.00  0.00    +0.000 A 
ATOM     24  C   UNL     1      -4.426  13.801  23.582  0.00  0.00    +0.000 A 
ATOM     25  C   UNL     1      -4.145  14.239  22.290  0.00  0.00    +0.000 A 
ATOM     26  N   UNL     1      -3.221  13.585  21.537  0.00  0.00    +0.000 NA
ATOM     27  C   UNL     1      -0.571  10.920  21.625  0.00  0.00    +0.000 C 
ATOM     28  C   UNL     1       0.768  11.216  20.910  0.00  0.00    +0.000 C 
ENDBRANCH  16  17
ENDBRANCH   1  16
TORSDOF 6
ENDMDL
MODEL 9
REMARK VINA RESULT:      -7.9      6.024      7.792
REMARK  Name = 
REMARK  6 active torsions:
REMARK  status: ('A' for Active; 'I' for Inactive)
REMARK    1  A    between atoms: O_1  and  C_2
REMARK    2  A    between atoms: C_2  and  C_3
REMARK    3  A    between atoms: C_2  and  C_15
REMARK    4  A    between atoms: C_3  and  O_4
REMARK    5  A    between atoms: O_4  and  C_5
REMARK    6  A    between atoms: C_15  and  N_16
REMARK                            x       y       z     vdW  Elec       q    Type
REMARK                         _______ _______ _______ _____ _____    ______ ____
ROOT
ATOM      1  C   UNL     1       8.255   8.558  17.822  0.00  0.00    +0.000 C 
ENDROOT
BRANCH   1   2
ATOM      2  O   UNL     1       7.146   9.366  17.530  0.00  0.00    +0.000 OA
ATOM      3  H   UNL     1       7.238   9.656  16.585  0.00  0.00    +0.000 HD
ENDBRANCH   1   2
BRANCH   1   4
ATOM      4  C   UNL     1       9.094   9.162  18.966  0.00  0.00    +0.000 C 
BRANCH   4   5
ATOM      5  O   UNL     1       8.815  10.498  19.221  0.00  0.00    +0.000 OA
BRANCH   5   6
ATOM      6  C   UNL     1       9.697  11.519  18.962  0.00  0.00    +0.000 A 
ATOM      7  C   UNL     1      10.469  11.531  17.775  0.00  0.00    +0.000 A 
ATOM      8  C   UNL     1      11.373  12.556  17.512  0.00  0.00    +0.000 A 
ATOM      9  C   UNL     1      11.539  13.596  18.415  0.00  0.00    +0.000 A 
ATOM     10  C   UNL     1      10.793  13.626  19.600  0.00  0.00    +0.000 A 
ATOM     11  C   UNL     1      10.968  14.684  20.506  0.00  0.00    +0.000 A 
ATOM     12  C   UNL     1      10.232  14.724  21.688  0.00  0.00    +0.000 A 
ATOM     13  C   UNL     1       9.313  13.714  21.974  0.00  0.00    +0.000 A 
ATOM     14  C   UNL     1       9.125  12.650  21.082  0.00  0.00    +0.000 A 
ATOM     15  C   UNL     1       9.860  12.586  19.884  0.00  0.00    +0.000 A 
ENDBRANCH   5   6
ENDBRANCH   4   5
ENDBRANCH   1   4
BRANCH   1  16
ATOM     16  C   UNL     1       7.761   7.160  18.283  0.00  0.00    +0.000 C 
BRANCH  16  17
ATOM     17  N   UNL     1       7.434   6.213  17.181  0.00  0.00    +0.000 NA
ATOM     18  C   UNL     1       7.381   4.787  17.582  0.00  0.00    +0.000 C 
ATOM     19  C   UNL     1       6.227   4.521  18.558  0.00  0.00    +0.000 C 
ATOM     20  N   UNL     1       4.968   4.982  17.980  0.00  0.00    +0.000 N 
ATOM     21  C   UNL     1       3.803   4.141  18.028  0.00  0.00    +0.000 A 
ATOM     22  C   UNL     1       2.498   4.679  17.986  0.00  0.00    +0.000 A 
ATOM     23  C   UNL     1       1.396   3.833  18.123  0.00  0.00    +0.000 A 
ATOM     24  C   UNL     1       1.586   2.462  18.287  0.00  0.00    +0.000 A 
ATOM     25  C   UNL     1       2.884   1.954  18.319  0.00  0.00    +0.000 A 
ATOM     26  N   UNL     1       3.945   2.796  18.205  0.00  0.00    +0.000 NA
ATOM     27  C   UNL     1       4.938   6.344  17.454  0.00  0.00    +0.000 C 
ATOM     28  C   UNL     1       6.150   6.567  16.521  0.00  0.00    +0.000 C 
ENDBRANCH  16  17
ENDBRANCH   1  16
TORSDOF 6
ENDMDL
