MODEL 1
REMARK VINA RESULT:      -8.2      0.000      0.000
REMARK  Name = 
REMARK  9 active torsions:
REMARK  status: ('A' for Active; 'I' for Inactive)
REMARK    1  A    between atoms: C_1  and  C_2
REMARK    2  A    between atoms: C_2  and  C_3
REMARK    3  A    between atoms: C_2  and  O_4
REMARK    4  A    between atoms: O_4  and  C_5
REMARK    5  A    between atoms: C_5  and  C_7
REMARK    6  A    between atoms: C_7  and  S_8
REMARK    7  A    between atoms: S_8  and  C_9
REMARK    8  A    between atoms: C_11  and  C_12
REMARK    9  A    between atoms: C_20  and  C_21
REMARK                            x       y       z     vdW  Elec       q    Type
REMARK                         _______ _______ _______ _____ _____    ______ ____
ROOT
ATOM      1  C   UNL     1       3.757   4.468  18.060  0.00  0.00    +0.000 A 
ATOM      2  N   UNL     1       3.304   5.728  18.066  0.00  0.00    +0.000 NA
ATOM      3  C   UNL     1       2.554   6.120  19.117  0.00  0.00    +0.000 A 
ATOM      4  C   UNL     1       2.260   5.256  20.155  0.00  0.00    +0.000 A 
ATOM      5  C   UNL     1       2.772   3.973  20.080  0.00  0.00    +0.000 A 
ATOM      6  N   UNL     1       3.522   3.567  19.026  0.00  0.00    +0.000 NA
ENDROOT
BRANCH   3   7
ATOM      7  C   UNL     1       2.097   7.526  19.098  0.00  0.00    +0.000 A 
ATOM      8  C   UNL     1       1.503   8.108  20.235  0.00  0.00    +0.000 A 
ATOM      9  C   UNL     1       1.054   9.434  20.222  0.00  0.00    +0.000 A 
ATOM     10  C   UNL     1       1.191  10.191  19.068  0.00  0.00    +0.000 A 
ATOM     11  F   UNL     1       0.753  11.457  19.049  0.00  0.00    +0.000 F 
ATOM     12  C   UNL     1       1.770   9.652  17.930  0.00  0.00    +0.000 A 
ATOM     13  C   UNL     1       2.218   8.328  17.944  0.00  0.00    +0.000 A 
ENDBRANCH   3   7
BRANCH   5  14
ATOM     14  C   UNL     1       2.513   2.993  21.213  0.00  0.00    +0.000 C 
ATOM     15  F   UNL     1       1.457   2.159  20.971  0.00  0.00    +0.000 F 
ATOM     16  F   UNL     1       3.573   2.176  21.463  0.00  0.00    +0.000 F 
ATOM     17  F   UNL     1       2.222   3.611  22.393  0.00  0.00    +0.000 F 
ENDBRANCH   5  14
BRANCH   1  18
ATOM     18  S   UNL     1       4.831   3.998  16.729  0.00  0.00    +0.000 S 
BRANCH  18  19
ATOM     19  C   UNL     1       5.347   5.652  16.167  0.00  0.00    +0.000 C 
BRANCH  19  20
ATOM     20  C   UNL     1       6.714   5.620  15.520  0.00  0.00    +0.000 C 
ATOM     21  O   UNL     1       6.940   5.367  14.343  0.00  0.00    +0.000 OA
BRANCH  20  22
ATOM     22  O   UNL     1       7.672   5.975  16.428  0.00  0.00    +0.000 OA
BRANCH  22  24
ATOM     23  C   UNL     1       7.671   5.976  18.849  0.00  0.00    +0.000 C 
ATOM     24  C   UNL     1       7.190   6.682  17.587  0.00  0.00    +0.000 C 
ATOM     25  C   UNL     1       7.732   8.105  17.529  0.00  0.00    +0.000 C 
ENDBRANCH  22  24
ENDBRANCH  20  22
ENDBRANCH  19  20
ENDBRANCH  18  19
ENDBRANCH   1  18
TORSDOF 7
ENDMDL
MODEL 2
REMARK VINA RESULT:      -8.2      0.590      1.130
REMARK  Name = 
REMARK  9 active torsions:
REMARK  status: ('A' for Active; 'I' for Inactive)
REMARK    1  A    between atoms: C_1  and  C_2
REMARK    2  A    between atoms: C_2  and  C_3
REMARK    3  A    between atoms: C_2  and  O_4
REMARK    4  A    between atoms: O_4  and  C_5
REMARK    5  A    between atoms: C_5  and  C_7
REMARK    6  A    between atoms: C_7  and  S_8
REMARK    7  A    between atoms: S_8  and  C_9
REMARK    8  A    between atoms: C_11  and  C_12
REMARK    9  A    between atoms: C_20  and  C_21
REMARK                            x       y       z     vdW  Elec       q    Type
REMARK                         _______ _______ _______ _____ _____    ______ ____
ROOT
ATOM      1  C   UNL     1       3.666   4.408  17.894  0.00  0.00    +0.000 A 
ATOM      2  N   UNL     1       3.259   5.683  17.942  0.00  0.00    +0.000 NA
ATOM      3  C   UNL     1       2.472   6.051  18.974  0.00  0.00    +0.000 A 
ATOM      4  C   UNL     1       2.095   5.149  19.951  0.00  0.00    +0.000 A 
ATOM      5  C   UNL     1       2.564   3.853  19.835  0.00  0.00    +0.000 A 
ATOM      6  N   UNL     1       3.350   3.471  18.799  0.00  0.00    +0.000 NA
ENDROOT
BRANCH   3   7
ATOM      7  C   UNL     1       2.067   7.473  19.005  0.00  0.00    +0.000 A 
ATOM      8  C   UNL     1       2.224   8.294  17.871  0.00  0.00    +0.000 A 
ATOM      9  C   UNL     1       1.856   9.644  17.895  0.00  0.00    +0.000 A 
ATOM     10  C   UNL     1       1.331  10.190  19.058  0.00  0.00    +0.000 A 
ATOM     11  F   UNL     1       0.988  11.484  19.087  0.00  0.00    +0.000 F 
ATOM     12  C   UNL     1       1.163   9.412  20.193  0.00  0.00    +0.000 A 
ATOM     13  C   UNL     1       1.529   8.064  20.168  0.00  0.00    +0.000 A 
ENDBRANCH   3   7
BRANCH   5  14
ATOM     14  C   UNL     1       2.212   2.829  20.903  0.00  0.00    +0.000 C 
ATOM     15  F   UNL     1       1.593   1.719  20.400  0.00  0.00    +0.000 F 
ATOM     16  F   UNL     1       3.303   2.365  21.575  0.00  0.00    +0.000 F 
ATOM     17  F   UNL     1       1.362   3.319  21.849  0.00  0.00    +0.000 F 
ENDBRANCH   5  14
BRANCH   1  18
ATOM     18  S   UNL     1       4.788   3.963  16.593  0.00  0.00    +0.000 S 
BRANCH  18  19
ATOM     19  C   UNL     1       5.549   5.590  16.290  0.00  0.00    +0.000 C 
BRANCH  19  20
ATOM     20  C   UNL     1       7.057   5.494  16.214  0.00  0.00    +0.000 C 
ATOM     21  O   UNL     1       7.694   4.487  15.934  0.00  0.00    +0.000 OA
BRANCH  20  22
ATOM     22  O   UNL     1       7.617   6.720  16.445  0.00  0.00    +0.000 OA
BRANCH  22  24
ATOM     23  C   UNL     1       7.920   6.323  18.815  0.00  0.00    +0.000 C 
ATOM     24  C   UNL     1       7.373   7.271  17.754  0.00  0.00    +0.000 C 
ATOM     25  C   UNL     1       8.071   8.624  17.832  0.00  0.00    +0.000 C 
ENDBRANCH  22  24
ENDBRANCH  20  22
ENDBRANCH  19  20
ENDBRANCH  18  19
ENDBRANCH   1  18
TORSDOF 7
ENDMDL
MODEL 3
REMARK VINA RESULT:      -8.1      0.493      1.147
REMARK  Name = 
REMARK  9 active torsions:
REMARK  status: ('A' for Active; 'I' for Inactive)
REMARK    1  A    between atoms: C_1  and  C_2
REMARK    2  A    between atoms: C_2  and  C_3
REMARK    3  A    between atoms: C_2  and  O_4
REMARK    4  A    between atoms: O_4  and  C_5
REMARK    5  A    between atoms: C_5  and  C_7
REMARK    6  A    between atoms: C_7  and  S_8
REMARK    7  A    between atoms: S_8  and  C_9
REMARK    8  A    between atoms: C_11  and  C_12
REMARK    9  A    between atoms: C_20  and  C_21
REMARK                            x       y       z     vdW  Elec       q    Type
REMARK                         _______ _______ _______ _____ _____    ______ ____
ROOT
ATOM      1  C   UNL     1       3.800   4.401  18.046  0.00  0.00    +0.000 A 
ATOM      2  N   UNL     1       3.354   5.663  18.040  0.00  0.00    +0.000 NA
ATOM      3  C   UNL     1       2.602   6.067  19.084  0.00  0.00    +0.000 A 
ATOM      4  C   UNL     1       2.298   5.213  20.127  0.00  0.00    +0.000 A 
ATOM      5  C   UNL     1       2.803   3.927  20.064  0.00  0.00    +0.000 A 
ATOM      6  N   UNL     1       3.555   3.508  19.017  0.00  0.00    +0.000 NA
ENDROOT
BRANCH   3   7
ATOM      7  C   UNL     1       2.153   7.475  19.053  0.00  0.00    +0.000 A 
ATOM      8  C   UNL     1       1.546   8.066  20.178  0.00  0.00    +0.000 A 
ATOM      9  C   UNL     1       1.106   9.395  20.154  0.00  0.00    +0.000 A 
ATOM     10  C   UNL     1       1.262  10.146  18.998  0.00  0.00    +0.000 A 
ATOM     11  F   UNL     1       0.832  11.414  18.968  0.00  0.00    +0.000 F 
ATOM     12  C   UNL     1       1.854   9.598  17.870  0.00  0.00    +0.000 A 
ATOM     13  C   UNL     1       2.294   8.272  17.896  0.00  0.00    +0.000 A 
ENDBRANCH   3   7
BRANCH   5  14
ATOM     14  C   UNL     1       2.533   2.957  21.204  0.00  0.00    +0.000 C 
ATOM     15  F   UNL     1       3.596   2.144  21.482  0.00  0.00    +0.000 F 
ATOM     16  F   UNL     1       2.236   3.583  22.376  0.00  0.00    +0.000 F 
ATOM     17  F   UNL     1       1.492   2.114  20.948  0.00  0.00    +0.000 F 
ENDBRANCH   5  14
BRANCH   1  18
ATOM     18  S   UNL     1       4.878   3.914  16.723  0.00  0.00    +0.000 S 
BRANCH  18  19
ATOM     19  C   UNL     1       5.090   5.528  15.907  0.00  0.00    +0.000 C 
BRANCH  19  20
ATOM     20  C   UNL     1       6.523   6.010  15.988  0.00  0.00    +0.000 C 
ATOM     21  O   UNL     1       7.478   5.508  15.408  0.00  0.00    +0.000 OA
BRANCH  20  22
ATOM     22  O   UNL     1       6.597   7.135  16.761  0.00  0.00    +0.000 OA
BRANCH  22  24
ATOM     23  C   UNL     1       7.982   8.757  17.906  0.00  0.00    +0.000 C 
ATOM     24  C   UNL     1       7.827   7.298  17.494  0.00  0.00    +0.000 C 
ATOM     25  C   UNL     1       7.765   6.397  18.722  0.00  0.00    +0.000 C 
ENDBRANCH  22  24
ENDBRANCH  20  22
ENDBRANCH  19  20
ENDBRANCH  18  19
ENDBRANCH   1  18
TORSDOF 7
ENDMDL
MODEL 4
REMARK VINA RESULT:      -8.0      1.714      2.528
REMARK  Name = 
REMARK  9 active torsions:
REMARK  status: ('A' for Active; 'I' for Inactive)
REMARK    1  A    between atoms: C_1  and  C_2
REMARK    2  A    between atoms: C_2  and  C_3
REMARK    3  A    between atoms: C_2  and  O_4
REMARK    4  A    between atoms: O_4  and  C_5
REMARK    5  A    between atoms: C_5  and  C_7
REMARK    6  A    between atoms: C_7  and  S_8
REMARK    7  A    between atoms: S_8  and  C_9
REMARK    8  A    between atoms: C_11  and  C_12
REMARK    9  A    between atoms: C_20  and  C_21
REMARK                            x       y       z     vdW  Elec       q    Type
REMARK                         _______ _______ _______ _____ _____    ______ ____
ROOT
ATOM      1  C   UNL     1       5.094   5.098  18.924  0.00  0.00    +0.000 A 
ATOM      2  N   UNL     1       4.383   6.230  19.004  0.00  0.00    +0.000 NA
ATOM      3  C   UNL     1       3.045   6.141  18.865  0.00  0.00    +0.000 A 
ATOM      4  C   UNL     1       2.421   4.927  18.645  0.00  0.00    +0.000 A 
ATOM      5  C   UNL     1       3.224   3.802  18.583  0.00  0.00    +0.000 A 
ATOM      6  N   UNL     1       4.571   3.880  18.716  0.00  0.00    +0.000 NA
ENDROOT
BRANCH   3   7
ATOM      7  C   UNL     1       2.295   7.409  18.988  0.00  0.00    +0.000 A 
ATOM      8  C   UNL     1       1.756   7.813  20.225  0.00  0.00    +0.000 A 
ATOM      9  C   UNL     1       1.033   9.005  20.348  0.00  0.00    +0.000 A 
ATOM     10  C   UNL     1       0.836   9.805  19.232  0.00  0.00    +0.000 A 
ATOM     11  F   UNL     1       0.137  10.941  19.345  0.00  0.00    +0.000 F 
ATOM     12  C   UNL     1       1.352   9.440  17.998  0.00  0.00    +0.000 A 
ATOM     13  C   UNL     1       2.074   8.250  17.876  0.00  0.00    +0.000 A 
ENDBRANCH   3   7
BRANCH   5  14
ATOM     14  C   UNL     1       2.587   2.435  18.382  0.00  0.00    +0.000 C 
ATOM     15  F   UNL     1       2.399   2.119  17.066  0.00  0.00    +0.000 F 
ATOM     16  F   UNL     1       3.334   1.420  18.898  0.00  0.00    +0.000 F 
ATOM     17  F   UNL     1       1.356   2.334  18.958  0.00  0.00    +0.000 F 
ENDBRANCH   5  14
BRANCH   1  18
ATOM     18  S   UNL     1       6.840   5.212  19.218  0.00  0.00    +0.000 S 
BRANCH  18  19
ATOM     19  C   UNL     1       7.448   4.744  17.566  0.00  0.00    +0.000 C 
BRANCH  19  20
ATOM     20  C   UNL     1       7.271   5.868  16.568  0.00  0.00    +0.000 C 
ATOM     21  O   UNL     1       7.175   7.057  16.843  0.00  0.00    +0.000 OA
BRANCH  20  22
ATOM     22  O   UNL     1       7.292   5.372  15.294  0.00  0.00    +0.000 OA
BRANCH  22  24
ATOM     23  C   UNL     1       4.910   4.939  15.254  0.00  0.00    +0.000 C 
ATOM     24  C   UNL     1       6.301   4.366  15.009  0.00  0.00    +0.000 C 
ATOM     25  C   UNL     1       6.460   3.949  13.551  0.00  0.00    +0.000 C 
ENDBRANCH  22  24
ENDBRANCH  20  22
ENDBRANCH  19  20
ENDBRANCH  18  19
ENDBRANCH   1  18
TORSDOF 7
ENDMDL
MODEL 5
REMARK VINA RESULT:      -7.9      1.687      2.637
REMARK  Name = 
REMARK  9 active torsions:
REMARK  status: ('A' for Active; 'I' for Inactive)
REMARK    1  A    between atoms: C_1  and  C_2
REMARK    2  A    between atoms: C_2  and  C_3
REMARK    3  A    between atoms: C_2  and  O_4
REMARK    4  A    between atoms: O_4  and  C_5
REMARK    5  A    between atoms: C_5  and  C_7
REMARK    6  A    between atoms: C_7  and  S_8
REMARK    7  A    between atoms: S_8  and  C_9
REMARK    8  A    between atoms: C_11  and  C_12
REMARK    9  A    between atoms: C_20  and  C_21
REMARK                            x       y       z     vdW  Elec       q    Type
REMARK                         _______ _______ _______ _____ _____    ______ ____
ROOT
ATOM      1  C   UNL     1       5.162   5.102  19.073  0.00  0.00    +0.000 A 
ATOM      2  N   UNL     1       4.417   6.213  19.131  0.00  0.00    +0.000 NA
ATOM      3  C   UNL     1       3.085   6.083  18.961  0.00  0.00    +0.000 A 
ATOM      4  C   UNL     1       2.503   4.850  18.733  0.00  0.00    +0.000 A 
ATOM      5  C   UNL     1       3.340   3.749  18.695  0.00  0.00    +0.000 A 
ATOM      6  N   UNL     1       4.680   3.869  18.859  0.00  0.00    +0.000 NA
ENDROOT
BRANCH   3   7
ATOM      7  C   UNL     1       2.295   7.329  19.060  0.00  0.00    +0.000 A 
ATOM      8  C   UNL     1       2.060   8.128  17.924  0.00  0.00    +0.000 A 
ATOM      9  C   UNL     1       1.325   9.316  18.011  0.00  0.00    +0.000 A 
ATOM     10  C   UNL     1       0.821   9.721  19.239  0.00  0.00    +0.000 A 
ATOM     11  F   UNL     1       0.126  10.862  19.327  0.00  0.00    +0.000 F 
ATOM     12  C   UNL     1       1.032   8.960  20.378  0.00  0.00    +0.000 A 
ATOM     13  C   UNL     1       1.766   7.774  20.290  0.00  0.00    +0.000 A 
ENDBRANCH   3   7
BRANCH   5  14
ATOM     14  C   UNL     1       2.749   2.363  18.487  0.00  0.00    +0.000 C 
ATOM     15  F   UNL     1       2.291   2.161  17.215  0.00  0.00    +0.000 F 
ATOM     16  F   UNL     1       3.645   1.364  18.715  0.00  0.00    +0.000 F 
ATOM     17  F   UNL     1       1.684   2.113  19.299  0.00  0.00    +0.000 F 
ENDBRANCH   5  14
BRANCH   1  18
ATOM     18  S   UNL     1       6.897   5.270  19.406  0.00  0.00    +0.000 S 
BRANCH  18  19
ATOM     19  C   UNL     1       7.537   5.145  17.706  0.00  0.00    +0.000 C 
BRANCH  19  20
ATOM     20  C   UNL     1       7.234   6.391  16.903  0.00  0.00    +0.000 C 
ATOM     21  O   UNL     1       7.735   7.494  17.081  0.00  0.00    +0.000 OA
BRANCH  20  22
ATOM     22  O   UNL     1       6.354   6.098  15.898  0.00  0.00    +0.000 OA
BRANCH  22  24
ATOM     23  C   UNL     1       5.058   4.137  15.319  0.00  0.00    +0.000 C 
ATOM     24  C   UNL     1       6.447   4.761  15.368  0.00  0.00    +0.000 C 
ATOM     25  C   UNL     1       7.045   4.851  13.969  0.00  0.00    +0.000 C 
ENDBRANCH  22  24
ENDBRANCH  20  22
ENDBRANCH  19  20
ENDBRANCH  18  19
ENDBRANCH   1  18
TORSDOF 7
ENDMDL
MODEL 6
REMARK VINA RESULT:      -7.9      1.721      2.803
REMARK  Name = 
REMARK  9 active torsions:
REMARK  status: ('A' for Active; 'I' for Inactive)
REMARK    1  A    between atoms: C_1  and  C_2
REMARK    2  A    between atoms: C_2  and  C_3
REMARK    3  A    between atoms: C_2  and  O_4
REMARK    4  A    between atoms: O_4  and  C_5
REMARK    5  A    between atoms: C_5  and  C_7
REMARK    6  A    between atoms: C_7  and  S_8
REMARK    7  A    between atoms: S_8  and  C_9
REMARK    8  A    between atoms: C_11  and  C_12
REMARK    9  A    between atoms: C_20  and  C_21
REMARK                            x       y       z     vdW  Elec       q    Type
REMARK                         _______ _______ _______ _____ _____    ______ ____
ROOT
ATOM      1  C   UNL     1       4.881   4.988  18.730  0.00  0.00    +0.000 A 
ATOM      2  N   UNL     1       4.244   6.159  18.854  0.00  0.00    +0.000 NA
ATOM      3  C   UNL     1       2.897   6.152  18.781  0.00  0.00    +0.000 A 
ATOM      4  C   UNL     1       2.192   4.979  18.584  0.00  0.00    +0.000 A 
ATOM      5  C   UNL     1       2.921   3.809  18.474  0.00  0.00    +0.000 A 
ATOM      6  N   UNL     1       4.275   3.806  18.540  0.00  0.00    +0.000 NA
ENDROOT
BRANCH   3   7
ATOM      7  C   UNL     1       2.232   7.461  18.950  0.00  0.00    +0.000 A 
ATOM      8  C   UNL     1       2.112   8.356  17.869  0.00  0.00    +0.000 A 
ATOM      9  C   UNL     1       1.496   9.604  18.023  0.00  0.00    +0.000 A 
ATOM     10  C   UNL     1       0.997   9.972  19.264  0.00  0.00    +0.000 A 
ATOM     11  F   UNL     1       0.416  11.169  19.417  0.00  0.00    +0.000 F 
ATOM     12  C   UNL     1       1.098   9.118  20.351  0.00  0.00    +0.000 A 
ATOM     13  C   UNL     1       1.713   7.872  20.196  0.00  0.00    +0.000 A 
ENDBRANCH   3   7
BRANCH   5  14
ATOM     14  C   UNL     1       2.195   2.485  18.297  0.00  0.00    +0.000 C 
ATOM     15  F   UNL     1       2.518   1.563  19.252  0.00  0.00    +0.000 F 
ATOM     16  F   UNL     1       0.839   2.610  18.355  0.00  0.00    +0.000 F 
ATOM     17  F   UNL     1       2.471   1.884  17.105  0.00  0.00    +0.000 F 
ENDBRANCH   5  14
BRANCH   1  18
ATOM     18  S   UNL     1       6.643   4.995  18.936  0.00  0.00    +0.000 S 
BRANCH  18  19
ATOM     19  C   UNL     1       7.143   4.675  17.214  0.00  0.00    +0.000 C 
BRANCH  19  20
ATOM     20  C   UNL     1       7.092   5.934  16.376  0.00  0.00    +0.000 C 
ATOM     21  O   UNL     1       7.640   6.995  16.648  0.00  0.00    +0.000 OA
BRANCH  20  22
ATOM     22  O   UNL     1       6.389   5.704  15.226  0.00  0.00    +0.000 OA
BRANCH  22  24
ATOM     23  C   UNL     1       5.727   3.865  13.796  0.00  0.00    +0.000 C 
ATOM     24  C   UNL     1       6.895   4.637  14.399  0.00  0.00    +0.000 C 
ATOM     25  C   UNL     1       7.751   5.260  13.301  0.00  0.00    +0.000 C 
ENDBRANCH  22  24
ENDBRANCH  20  22
ENDBRANCH  19  20
ENDBRANCH  18  19
ENDBRANCH   1  18
TORSDOF 7
ENDMDL
MODEL 7
REMARK VINA RESULT:      -7.9      1.970      3.151
REMARK  Name = 
REMARK  9 active torsions:
REMARK  status: ('A' for Active; 'I' for Inactive)
REMARK    1  A    between atoms: C_1  and  C_2
REMARK    2  A    between atoms: C_2  and  C_3
REMARK    3  A    between atoms: C_2  and  O_4
REMARK    4  A    between atoms: O_4  and  C_5
REMARK    5  A    between atoms: C_5  and  C_7
REMARK    6  A    between atoms: C_7  and  S_8
REMARK    7  A    between atoms: S_8  and  C_9
REMARK    8  A    between atoms: C_11  and  C_12
REMARK    9  A    between atoms: C_20  and  C_21
REMARK                            x       y       z     vdW  Elec       q    Type
REMARK                         _______ _______ _______ _____ _____    ______ ____
ROOT
ATOM      1  C   UNL     1       5.092   5.165  17.881  0.00  0.00    +0.000 A 
ATOM      2  N   UNL     1       4.318   6.250  18.008  0.00  0.00    +0.000 NA
ATOM      3  C   UNL     1       3.251   6.166  18.829  0.00  0.00    +0.000 A 
ATOM      4  C   UNL     1       2.960   5.004  19.518  0.00  0.00    +0.000 A 
ATOM      5  C   UNL     1       3.813   3.929  19.341  0.00  0.00    +0.000 A 
ATOM      6  N   UNL     1       4.885   4.000  18.514  0.00  0.00    +0.000 NA
ENDROOT
BRANCH   3   7
ATOM      7  C   UNL     1       2.438   7.394  18.962  0.00  0.00    +0.000 A 
ATOM      8  C   UNL     1       2.248   8.257  17.866  0.00  0.00    +0.000 A 
ATOM      9  C   UNL     1       1.491   9.429  17.985  0.00  0.00    +0.000 A 
ATOM     10  C   UNL     1       0.921   9.753  19.208  0.00  0.00    +0.000 A 
ATOM     11  F   UNL     1       0.205  10.878  19.329  0.00  0.00    +0.000 F 
ATOM     12  C   UNL     1       1.088   8.928  20.310  0.00  0.00    +0.000 A 
ATOM     13  C   UNL     1       1.843   7.758  20.188  0.00  0.00    +0.000 A 
ENDBRANCH   3   7
BRANCH   5  14
ATOM     14  C   UNL     1       3.563   2.638  20.105  0.00  0.00    +0.000 C 
ATOM     15  F   UNL     1       2.841   2.823  21.251  0.00  0.00    +0.000 F 
ATOM     16  F   UNL     1       2.868   1.718  19.381  0.00  0.00    +0.000 F 
ATOM     17  F   UNL     1       4.714   2.023  20.499  0.00  0.00    +0.000 F 
ENDBRANCH   5  14
BRANCH   1  18
ATOM     18  S   UNL     1       6.552   5.320  16.885  0.00  0.00    +0.000 S 
BRANCH  18  19
ATOM     19  C   UNL     1       5.787   5.279  15.233  0.00  0.00    +0.000 C 
BRANCH  19  20
ATOM     20  C   UNL     1       6.764   4.805  14.178  0.00  0.00    +0.000 C 
ATOM     21  O   UNL     1       7.815   5.359  13.879  0.00  0.00    +0.000 OA
BRANCH  20  22
ATOM     22  O   UNL     1       6.335   3.625  13.638  0.00  0.00    +0.000 OA
BRANCH  22  24
ATOM     23  C   UNL     1       7.128   2.566  11.610  0.00  0.00    +0.000 C 
ATOM     24  C   UNL     1       6.198   3.618  12.204  0.00  0.00    +0.000 C 
ATOM     25  C   UNL     1       4.745   3.299  11.872  0.00  0.00    +0.000 C 
ENDBRANCH  22  24
ENDBRANCH  20  22
ENDBRANCH  19  20
ENDBRANCH  18  19
ENDBRANCH   1  18
TORSDOF 7
ENDMDL
MODEL 8
REMARK VINA RESULT:      -7.8      0.540      1.493
REMARK  Name = 
REMARK  9 active torsions:
REMARK  status: ('A' for Active; 'I' for Inactive)
REMARK    1  A    between atoms: C_1  and  C_2
REMARK    2  A    between atoms: C_2  and  C_3
REMARK    3  A    between atoms: C_2  and  O_4
REMARK    4  A    between atoms: O_4  and  C_5
REMARK    5  A    between atoms: C_5  and  C_7
REMARK    6  A    between atoms: C_7  and  S_8
REMARK    7  A    between atoms: S_8  and  C_9
REMARK    8  A    between atoms: C_11  and  C_12
REMARK    9  A    between atoms: C_20  and  C_21
REMARK                            x       y       z     vdW  Elec       q    Type
REMARK                         _______ _______ _______ _____ _____    ______ ____
ROOT
ATOM      1  C   UNL     1       3.738   4.357  17.962  0.00  0.00    +0.000 A 
ATOM      2  N   UNL     1       3.296   5.621  17.963  0.00  0.00    +0.000 NA
ATOM      3  C   UNL     1       2.575   6.032  19.026  0.00  0.00    +0.000 A 
ATOM      4  C   UNL     1       2.297   5.183  20.081  0.00  0.00    +0.000 A 
ATOM      5  C   UNL     1       2.796   3.895  20.010  0.00  0.00    +0.000 A 
ATOM      6  N   UNL     1       3.517   3.470  18.943  0.00  0.00    +0.000 NA
ENDROOT
BRANCH   3   7
ATOM      7  C   UNL     1       2.130   7.441  19.001  0.00  0.00    +0.000 A 
ATOM      8  C   UNL     1       2.289   8.230  17.845  0.00  0.00    +0.000 A 
ATOM      9  C   UNL     1       1.883   9.569  17.816  0.00  0.00    +0.000 A 
ATOM     10  C   UNL     1       1.317  10.137  18.948  0.00  0.00    +0.000 A 
ATOM     11  F   UNL     1       0.937  11.421  18.927  0.00  0.00    +0.000 F 
ATOM     12  C   UNL     1       1.145   9.392  20.105  0.00  0.00    +0.000 A 
ATOM     13  C   UNL     1       1.550   8.055  20.132  0.00  0.00    +0.000 A 
ENDBRANCH   3   7
BRANCH   5  14
ATOM     14  C   UNL     1       2.554   2.930  21.160  0.00  0.00    +0.000 C 
ATOM     15  F   UNL     1       2.265   3.561  22.338  0.00  0.00    +0.000 F 
ATOM     16  F   UNL     1       1.511   2.085  20.934  0.00  0.00    +0.000 F 
ATOM     17  F   UNL     1       3.633   2.142  21.428  0.00  0.00    +0.000 F 
ENDBRANCH   5  14
BRANCH   1  18
ATOM     18  S   UNL     1       4.777   3.861  16.612  0.00  0.00    +0.000 S 
BRANCH  18  19
ATOM     19  C   UNL     1       5.083   5.492  15.861  0.00  0.00    +0.000 C 
BRANCH  19  20
ATOM     20  C   UNL     1       6.506   5.952  16.088  0.00  0.00    +0.000 C 
ATOM     21  O   UNL     1       7.461   5.703  15.362  0.00  0.00    +0.000 OA
BRANCH  20  22
ATOM     22  O   UNL     1       6.572   6.745  17.199  0.00  0.00    +0.000 OA
BRANCH  22  24
ATOM     23  C   UNL     1       8.280   7.774  18.572  0.00  0.00    +0.000 C 
ATOM     24  C   UNL     1       7.666   6.464  18.093  0.00  0.00    +0.000 C 
ATOM     25  C   UNL     1       7.119   5.666  19.271  0.00  0.00    +0.000 C 
ENDBRANCH  22  24
ENDBRANCH  20  22
ENDBRANCH  19  20
ENDBRANCH  18  19
ENDBRANCH   1  18
TORSDOF 7
ENDMDL
MODEL 9
REMARK VINA RESULT:      -7.8      1.021      2.375
REMARK  Name = 
REMARK  9 active torsions:
REMARK  status: ('A' for Active; 'I' for Inactive)
REMARK    1  A    between atoms: C_1  and  C_2
REMARK    2  A    between atoms: C_2  and  C_3
REMARK    3  A    between atoms: C_2  and  O_4
REMARK    4  A    between atoms: O_4  and  C_5
REMARK    5  A    between atoms: C_5  and  C_7
REMARK    6  A    between atoms: C_7  and  S_8
REMARK    7  A    between atoms: S_8  and  C_9
REMARK    8  A    between atoms: C_11  and  C_12
REMARK    9  A    between atoms: C_20  and  C_21
REMARK                            x       y       z     vdW  Elec       q    Type
REMARK                         _______ _______ _______ _____ _____    ______ ____
ROOT
ATOM      1  C   UNL     1       3.672   4.524  18.001  0.00  0.00    +0.000 A 
ATOM      2  N   UNL     1       3.217   5.782  18.029  0.00  0.00    +0.000 NA
ATOM      3  C   UNL     1       2.497   6.165  19.104  0.00  0.00    +0.000 A 
ATOM      4  C   UNL     1       2.234   5.293  20.144  0.00  0.00    +0.000 A 
ATOM      5  C   UNL     1       2.747   4.012  20.044  0.00  0.00    +0.000 A 
ATOM      6  N   UNL     1       3.466   3.615  18.966  0.00  0.00    +0.000 NA
ENDROOT
BRANCH   3   7
ATOM      7  C   UNL     1       2.037   7.570  19.109  0.00  0.00    +0.000 A 
ATOM      8  C   UNL     1       2.172   8.379  17.964  0.00  0.00    +0.000 A 
ATOM      9  C   UNL     1       1.751   9.714  17.963  0.00  0.00    +0.000 A 
ATOM     10  C   UNL     1       1.195  10.257  19.112  0.00  0.00    +0.000 A 
ATOM     11  F   UNL     1       0.801  11.537  19.118  0.00  0.00    +0.000 F 
ATOM     12  C   UNL     1       1.047   9.491  20.258  0.00  0.00    +0.000 A 
ATOM     13  C   UNL     1       1.466   8.158  20.258  0.00  0.00    +0.000 A 
ENDBRANCH   3   7
BRANCH   5  14
ATOM     14  C   UNL     1       2.522   3.023  21.177  0.00  0.00    +0.000 C 
ATOM     15  F   UNL     1       2.262   3.628  22.375  0.00  0.00    +0.000 F 
ATOM     16  F   UNL     1       1.468   2.189  20.954  0.00  0.00    +0.000 F 
ATOM     17  F   UNL     1       3.601   2.221  21.404  0.00  0.00    +0.000 F 
ENDBRANCH   5  14
BRANCH   1  18
ATOM     18  S   UNL     1       4.708   4.065  16.635  0.00  0.00    +0.000 S 
BRANCH  18  19
ATOM     19  C   UNL     1       6.314   4.629  17.282  0.00  0.00    +0.000 C 
BRANCH  19  20
ATOM     20  C   UNL     1       7.101   5.389  16.235  0.00  0.00    +0.000 C 
ATOM     21  O   UNL     1       7.442   6.562  16.313  0.00  0.00    +0.000 OA
BRANCH  20  22
ATOM     22  O   UNL     1       7.434   4.557  15.203  0.00  0.00    +0.000 OA
BRANCH  22  24
ATOM     23  C   UNL     1       8.072   5.389  13.020  0.00  0.00    +0.000 C 
ATOM     24  C   UNL     1       6.920   4.942  13.913  0.00  0.00    +0.000 C 
ATOM     25  C   UNL     1       6.212   3.734  13.310  0.00  0.00    +0.000 C 
ENDBRANCH  22  24
ENDBRANCH  20  22
ENDBRANCH  19  20
ENDBRANCH  18  19
ENDBRANCH   1  18
TORSDOF 7
ENDMDL
