MODEL 1
REMARK VINA RESULT:      -5.9      0.000      0.000
REMARK  Name = 
REMARK  8 active torsions:
REMARK  status: ('A' for Active; 'I' for Inactive)
REMARK    1  A    between atoms: C_1  and  C_2
REMARK    2  A    between atoms: C_2  and  N_3
REMARK    3  A    between atoms: C_2  and  C_4
REMARK    4  A    between atoms: C_12  and  C_13
REMARK    5  A    between atoms: N_15  and  C_16
REMARK    6  A    between atoms: C_16  and  C_17
REMARK    7  A    between atoms: C_17  and  C_18
REMARK    8  A    between atoms: C_18  and  O_19
REMARK                            x       y       z     vdW  Elec       q    Type
REMARK                         _______ _______ _______ _____ _____    ______ ____
ROOT
ATOM      1  C   UNL     1      -0.343  12.872  19.655  0.00  0.00    +0.000 A 
ATOM      2  C   UNL     1      -1.314  11.963  20.022  0.00  0.00    +0.000 A 
ATOM      3  S   UNL     1      -0.832  10.387  19.604  0.00  0.00    +0.000 S 
ATOM      4  C   UNL     1       0.694  10.994  19.039  0.00  0.00    +0.000 A 
ATOM      5  N   UNL     1       1.652  10.203  18.493  0.00  0.00    +0.000 N 
ATOM      6  C   UNL     1       1.880   8.870  18.870  0.00  0.00    +0.000 A 
ATOM      7  C   UNL     1       2.367   7.980  17.916  0.00  0.00    +0.000 A 
ATOM      8  C   UNL     1       2.468   6.618  18.225  0.00  0.00    +0.000 A 
ATOM      9  C   UNL     1       2.108   6.175  19.498  0.00  0.00    +0.000 A 
ATOM     10  C   UNL     1       1.692   7.137  20.405  0.00  0.00    +0.000 A 
ATOM     11  N   UNL     1       1.579   8.456  20.116  0.00  0.00    +0.000 NA
ATOM     12  N   UNL     1       0.801  12.305  19.088  0.00  0.00    +0.000 NA
ATOM     13  H   UNL     1       2.496  10.682  18.212  0.00  0.00    +0.000 HD
ENDROOT
BRANCH   9  14
ATOM     14  C   UNL     1       2.132   4.764  19.953  0.00  0.00    +0.000 C 
ATOM     15  O   UNL     1       2.337   4.505  21.137  0.00  0.00    +0.000 OA
ATOM     16  N   UNL     1       1.954   3.774  19.009  0.00  0.00    +0.000 N 
ATOM     17  H   UNL     1       1.837   3.994  18.032  0.00  0.00    +0.000 HD
BRANCH  16  18
ATOM     18  C   UNL     1       2.045   2.371  19.365  0.00  0.00    +0.000 C 
BRANCH  18  19
ATOM     19  C   UNL     1       3.358   1.737  18.907  0.00  0.00    +0.000 C 
BRANCH  19  20
ATOM     20  C   UNL     1       4.569   2.103  19.758  0.00  0.00    +0.000 C 
BRANCH  20  21
ATOM     21  O   UNL     1       5.235   3.241  19.231  0.00  0.00    +0.000 OA
ATOM     22  H   UNL     1       6.046   2.906  18.786  0.00  0.00    +0.000 HD
ENDBRANCH  20  21
ENDBRANCH  19  20
ENDBRANCH  18  19
ENDBRANCH  16  18
ENDBRANCH   9  14
BRANCH   1  24
ATOM     23  C   UNL     1       0.046  15.106  18.565  0.00  0.00    +0.000 C 
ATOM     24  C   UNL     1      -0.450  14.364  19.803  0.00  0.00    +0.000 C 
BRANCH  24  25
ATOM     25  N   UNL     1      -1.849  14.694  20.086  0.00  0.00    +0.000 NA
ATOM     26  H   UNL     1      -1.948  15.706  19.989  0.00  0.00    +0.000 HD
ATOM     27  H   UNL     1      -2.060  14.474  21.056  0.00  0.00    +0.000 HD
ENDBRANCH  24  25
ENDBRANCH   1  24
TORSDOF 7
ENDMDL
MODEL 2
REMARK VINA RESULT:      -5.8      3.686      8.915
REMARK  Name = 
REMARK  8 active torsions:
REMARK  status: ('A' for Active; 'I' for Inactive)
REMARK    1  A    between atoms: C_1  and  C_2
REMARK    2  A    between atoms: C_2  and  N_3
REMARK    3  A    between atoms: C_2  and  C_4
REMARK    4  A    between atoms: C_12  and  C_13
REMARK    5  A    between atoms: N_15  and  C_16
REMARK    6  A    between atoms: C_16  and  C_17
REMARK    7  A    between atoms: C_17  and  C_18
REMARK    8  A    between atoms: C_18  and  O_19
REMARK                            x       y       z     vdW  Elec       q    Type
REMARK                         _______ _______ _______ _____ _____    ______ ____
ROOT
ATOM      1  C   UNL     1       3.458   3.192  19.074  0.00  0.00    +0.000 A 
ATOM      2  C   UNL     1       2.460   3.366  18.135  0.00  0.00    +0.000 A 
ATOM      3  S   UNL     1       1.550   4.756  18.495  0.00  0.00    +0.000 S 
ATOM      4  C   UNL     1       2.598   5.106  19.834  0.00  0.00    +0.000 A 
ATOM      5  N   UNL     1       2.419   6.168  20.660  0.00  0.00    +0.000 N 
ATOM      6  C   UNL     1       1.884   7.400  20.253  0.00  0.00    +0.000 A 
ATOM      7  C   UNL     1       1.162   8.155  21.174  0.00  0.00    +0.000 A 
ATOM      8  C   UNL     1       0.500   9.315  20.756  0.00  0.00    +0.000 A 
ATOM      9  C   UNL     1       0.601   9.719  19.424  0.00  0.00    +0.000 A 
ATOM     10  C   UNL     1       1.391   8.944  18.588  0.00  0.00    +0.000 A 
ATOM     11  N   UNL     1       2.026   7.813  18.977  0.00  0.00    +0.000 NA
ATOM     12  N   UNL     1       3.523   4.194  20.045  0.00  0.00    +0.000 NA
ATOM     13  H   UNL     1       3.104   6.261  21.396  0.00  0.00    +0.000 HD
ENDROOT
BRANCH   9  14
ATOM     14  C   UNL     1      -0.070  10.902  18.834  0.00  0.00    +0.000 C 
ATOM     15  O   UNL     1       0.204  12.029  19.242  0.00  0.00    +0.000 OA
ATOM     16  N   UNL     1      -1.020  10.690  17.856  0.00  0.00    +0.000 N 
ATOM     17  H   UNL     1      -1.274   9.759  17.564  0.00  0.00    +0.000 HD
BRANCH  16  18
ATOM     18  C   UNL     1      -1.776  11.791  17.290  0.00  0.00    +0.000 C 
BRANCH  18  19
ATOM     19  C   UNL     1      -3.278  11.511  17.257  0.00  0.00    +0.000 C 
BRANCH  19  20
ATOM     20  C   UNL     1      -3.787  10.936  15.939  0.00  0.00    +0.000 C 
BRANCH  20  21
ATOM     21  O   UNL     1      -2.730  10.336  15.205  0.00  0.00    +0.000 OA
ATOM     22  H   UNL     1      -2.238   9.769  15.841  0.00  0.00    +0.000 HD
ENDBRANCH  20  21
ENDBRANCH  19  20
ENDBRANCH  18  19
ENDBRANCH  16  18
ENDBRANCH   9  14
BRANCH   1  24
ATOM     23  C   UNL     1       4.733   1.603  20.549  0.00  0.00    +0.000 C 
ATOM     24  C   UNL     1       4.414   2.033  19.120  0.00  0.00    +0.000 C 
BRANCH  24  25
ATOM     25  N   UNL     1       3.827   0.929  18.358  0.00  0.00    +0.000 NA
ATOM     26  H   UNL     1       3.241   1.341  17.629  0.00  0.00    +0.000 HD
ATOM     27  H   UNL     1       3.208   0.393  18.959  0.00  0.00    +0.000 HD
ENDBRANCH  24  25
ENDBRANCH   1  24
TORSDOF 7
ENDMDL
MODEL 3
REMARK VINA RESULT:      -5.8      1.220      1.468
REMARK  Name = 
REMARK  8 active torsions:
REMARK  status: ('A' for Active; 'I' for Inactive)
REMARK    1  A    between atoms: C_1  and  C_2
REMARK    2  A    between atoms: C_2  and  N_3
REMARK    3  A    between atoms: C_2  and  C_4
REMARK    4  A    between atoms: C_12  and  C_13
REMARK    5  A    between atoms: N_15  and  C_16
REMARK    6  A    between atoms: C_16  and  C_17
REMARK    7  A    between atoms: C_17  and  C_18
REMARK    8  A    between atoms: C_18  and  O_19
REMARK                            x       y       z     vdW  Elec       q    Type
REMARK                         _______ _______ _______ _____ _____    ______ ____
ROOT
ATOM      1  C   UNL     1      -0.724  12.893  19.577  0.00  0.00    +0.000 A 
ATOM      2  C   UNL     1      -1.583  11.887  19.971  0.00  0.00    +0.000 A 
ATOM      3  S   UNL     1      -0.954  10.370  19.530  0.00  0.00    +0.000 S 
ATOM      4  C   UNL     1       0.481  11.134  18.920  0.00  0.00    +0.000 A 
ATOM      5  N   UNL     1       1.498  10.447  18.340  0.00  0.00    +0.000 N 
ATOM      6  C   UNL     1       1.875   9.145  18.703  0.00  0.00    +0.000 A 
ATOM      7  C   UNL     1       2.421   8.310  17.730  0.00  0.00    +0.000 A 
ATOM      8  C   UNL     1       2.672   6.966  18.029  0.00  0.00    +0.000 A 
ATOM      9  C   UNL     1       2.402   6.487  19.311  0.00  0.00    +0.000 A 
ATOM     10  C   UNL     1       1.918   7.400  20.236  0.00  0.00    +0.000 A 
ATOM     11  N   UNL     1       1.659   8.700  19.957  0.00  0.00    +0.000 NA
ATOM     12  N   UNL     1       0.453  12.449  18.971  0.00  0.00    +0.000 NA
ATOM     13  H   UNL     1       2.278  11.011  18.034  0.00  0.00    +0.000 HD
ENDROOT
BRANCH   9  14
ATOM     14  C   UNL     1       2.587   5.086  19.760  0.00  0.00    +0.000 C 
ATOM     15  O   UNL     1       1.857   4.620  20.632  0.00  0.00    +0.000 OA
ATOM     16  N   UNL     1       3.611   4.353  19.196  0.00  0.00    +0.000 N 
ATOM     17  H   UNL     1       4.237   4.760  18.518  0.00  0.00    +0.000 HD
BRANCH  16  18
ATOM     18  C   UNL     1       3.905   3.005  19.642  0.00  0.00    +0.000 C 
BRANCH  18  19
ATOM     19  C   UNL     1       3.513   1.950  18.610  0.00  0.00    +0.000 C 
BRANCH  19  20
ATOM     20  C   UNL     1       2.471   2.411  17.596  0.00  0.00    +0.000 C 
BRANCH  20  21
ATOM     21  O   UNL     1       1.198   2.558  18.207  0.00  0.00    +0.000 OA
ATOM     22  H   UNL     1       1.181   3.460  18.599  0.00  0.00    +0.000 HD
ENDBRANCH  20  21
ENDBRANCH  19  20
ENDBRANCH  18  19
ENDBRANCH  16  18
ENDBRANCH   9  14
BRANCH   1  24
ATOM     23  C   UNL     1      -0.355  14.930  21.007  0.00  0.00    +0.000 C 
ATOM     24  C   UNL     1      -0.981  14.366  19.735  0.00  0.00    +0.000 C 
BRANCH  24  25
ATOM     25  N   UNL     1      -0.461  15.048  18.547  0.00  0.00    +0.000 NA
ATOM     26  H   UNL     1      -1.156  15.744  18.270  0.00  0.00    +0.000 HD
ATOM     27  H   UNL     1      -0.392  14.386  17.779  0.00  0.00    +0.000 HD
ENDBRANCH  24  25
ENDBRANCH   1  24
TORSDOF 7
ENDMDL
MODEL 4
REMARK VINA RESULT:      -5.7      4.279      8.469
REMARK  Name = 
REMARK  8 active torsions:
REMARK  status: ('A' for Active; 'I' for Inactive)
REMARK    1  A    between atoms: C_1  and  C_2
REMARK    2  A    between atoms: C_2  and  N_3
REMARK    3  A    between atoms: C_2  and  C_4
REMARK    4  A    between atoms: C_12  and  C_13
REMARK    5  A    between atoms: N_15  and  C_16
REMARK    6  A    between atoms: C_16  and  C_17
REMARK    7  A    between atoms: C_17  and  C_18
REMARK    8  A    between atoms: C_18  and  O_19
REMARK                            x       y       z     vdW  Elec       q    Type
REMARK                         _______ _______ _______ _____ _____    ______ ____
ROOT
ATOM      1  C   UNL     1       4.946   5.017  18.317  0.00  0.00    +0.000 A 
ATOM      2  C   UNL     1       3.959   4.920  17.357  0.00  0.00    +0.000 A 
ATOM      3  S   UNL     1       2.572   5.771  17.851  0.00  0.00    +0.000 S 
ATOM      4  C   UNL     1       3.399   6.304  19.282  0.00  0.00    +0.000 A 
ATOM      5  N   UNL     1       2.815   7.076  20.233  0.00  0.00    +0.000 N 
ATOM      6  C   UNL     1       1.834   8.043  19.968  0.00  0.00    +0.000 A 
ATOM      7  C   UNL     1       0.874   8.309  20.942  0.00  0.00    +0.000 A 
ATOM      8  C   UNL     1      -0.196   9.162  20.649  0.00  0.00    +0.000 A 
ATOM      9  C   UNL     1      -0.268   9.764  19.393  0.00  0.00    +0.000 A 
ATOM     10  C   UNL     1       0.762   9.495  18.505  0.00  0.00    +0.000 A 
ATOM     11  N   UNL     1       1.796   8.661  18.770  0.00  0.00    +0.000 NA
ATOM     12  N   UNL     1       4.611   5.809  19.418  0.00  0.00    +0.000 NA
ATOM     13  H   UNL     1       3.409   7.322  21.012  0.00  0.00    +0.000 HD
ENDROOT
BRANCH   9  14
ATOM     14  C   UNL     1      -1.356  10.661  18.933  0.00  0.00    +0.000 C 
ATOM     15  O   UNL     1      -1.764  11.558  19.668  0.00  0.00    +0.000 OA
ATOM     16  N   UNL     1      -1.904  10.431  17.688  0.00  0.00    +0.000 N 
ATOM     17  H   UNL     1      -1.598   9.661  17.113  0.00  0.00    +0.000 HD
BRANCH  16  18
ATOM     18  C   UNL     1      -3.026  11.213  17.203  0.00  0.00    +0.000 C 
BRANCH  18  19
ATOM     19  C   UNL     1      -3.062  11.300  15.679  0.00  0.00    +0.000 C 
BRANCH  19  20
ATOM     20  C   UNL     1      -3.237   9.960  14.971  0.00  0.00    +0.000 C 
BRANCH  20  21
ATOM     21  O   UNL     1      -2.640   9.983  13.684  0.00  0.00    +0.000 OA
ATOM     22  H   UNL     1      -3.317  10.348  13.070  0.00  0.00    +0.000 HD
ENDBRANCH  20  21
ENDBRANCH  19  20
ENDBRANCH  18  19
ENDBRANCH  16  18
ENDBRANCH   9  14
BRANCH   1  24
ATOM     23  C   UNL     1       6.932   4.449  16.882  0.00  0.00    +0.000 C 
ATOM     24  C   UNL     1       6.284   4.335  18.259  0.00  0.00    +0.000 C 
BRANCH  24  25
ATOM     25  N   UNL     1       7.140   4.923  19.292  0.00  0.00    +0.000 NA
ATOM     26  H   UNL     1       8.038   5.138  18.855  0.00  0.00    +0.000 HD
ATOM     27  H   UNL     1       7.327   4.231  20.012  0.00  0.00    +0.000 HD
ENDBRANCH  24  25
ENDBRANCH   1  24
TORSDOF 7
ENDMDL
MODEL 5
REMARK VINA RESULT:      -5.7      3.860      8.717
REMARK  Name = 
REMARK  8 active torsions:
REMARK  status: ('A' for Active; 'I' for Inactive)
REMARK    1  A    between atoms: C_1  and  C_2
REMARK    2  A    between atoms: C_2  and  N_3
REMARK    3  A    between atoms: C_2  and  C_4
REMARK    4  A    between atoms: C_12  and  C_13
REMARK    5  A    between atoms: N_15  and  C_16
REMARK    6  A    between atoms: C_16  and  C_17
REMARK    7  A    between atoms: C_17  and  C_18
REMARK    8  A    between atoms: C_18  and  O_19
REMARK                            x       y       z     vdW  Elec       q    Type
REMARK                         _______ _______ _______ _____ _____    ______ ____
ROOT
ATOM      1  C   UNL     1       4.038   4.763  18.573  0.00  0.00    +0.000 A 
ATOM      2  C   UNL     1       3.034   4.855  17.630  0.00  0.00    +0.000 A 
ATOM      3  S   UNL     1       1.825   5.925  18.163  0.00  0.00    +0.000 S 
ATOM      4  C   UNL     1       2.754   6.282  19.585  0.00  0.00    +0.000 A 
ATOM      5  N   UNL     1       2.329   7.126  20.558  0.00  0.00    +0.000 N 
ATOM      6  C   UNL     1       1.527   8.254  20.325  0.00  0.00    +0.000 A 
ATOM      7  C   UNL     1       0.643   8.665  21.321  0.00  0.00    +0.000 A 
ATOM      8  C   UNL     1      -0.267   9.696  21.060  0.00  0.00    +0.000 A 
ATOM      9  C   UNL     1      -0.253  10.323  19.815  0.00  0.00    +0.000 A 
ATOM     10  C   UNL     1       0.700   9.895  18.903  0.00  0.00    +0.000 A 
ATOM     11  N   UNL     1       1.577   8.890  19.138  0.00  0.00    +0.000 NA
ATOM     12  N   UNL     1       3.864   5.581  19.691  0.00  0.00    +0.000 NA
ATOM     13  H   UNL     1       2.969   7.252  21.329  0.00  0.00    +0.000 HD
ENDROOT
BRANCH   9  14
ATOM     14  C   UNL     1      -1.175  11.403  19.388  0.00  0.00    +0.000 C 
ATOM     15  O   UNL     1      -0.757  12.331  18.698  0.00  0.00    +0.000 OA
ATOM     16  N   UNL     1      -2.485  11.346  19.818  0.00  0.00    +0.000 N 
ATOM     17  H   UNL     1      -2.807  10.609  20.426  0.00  0.00    +0.000 HD
BRANCH  16  18
ATOM     18  C   UNL     1      -3.425  12.407  19.510  0.00  0.00    +0.000 C 
BRANCH  18  19
ATOM     19  C   UNL     1      -4.597  11.921  18.660  0.00  0.00    +0.000 C 
BRANCH  19  20
ATOM     20  C   UNL     1      -4.194  11.180  17.389  0.00  0.00    +0.000 C 
BRANCH  20  21
ATOM     21  O   UNL     1      -3.168  11.876  16.699  0.00  0.00    +0.000 OA
ATOM     22  H   UNL     1      -2.667  12.379  17.380  0.00  0.00    +0.000 HD
ENDBRANCH  20  21
ENDBRANCH  19  20
ENDBRANCH  18  19
ENDBRANCH  16  18
ENDBRANCH   9  14
BRANCH   1  24
ATOM     23  C   UNL     1       6.545   4.641  18.405  0.00  0.00    +0.000 C 
ATOM     24  C   UNL     1       5.236   3.860  18.479  0.00  0.00    +0.000 C 
BRANCH  24  25
ATOM     25  N   UNL     1       5.224   2.966  19.640  0.00  0.00    +0.000 NA
ATOM     26  H   UNL     1       5.772   3.417  20.375  0.00  0.00    +0.000 HD
ATOM     27  H   UNL     1       5.706   2.102  19.408  0.00  0.00    +0.000 HD
ENDBRANCH  24  25
ENDBRANCH   1  24
TORSDOF 7
ENDMDL
MODEL 6
REMARK VINA RESULT:      -5.7      1.418      1.679
REMARK  Name = 
REMARK  8 active torsions:
REMARK  status: ('A' for Active; 'I' for Inactive)
REMARK    1  A    between atoms: C_1  and  C_2
REMARK    2  A    between atoms: C_2  and  N_3
REMARK    3  A    between atoms: C_2  and  C_4
REMARK    4  A    between atoms: C_12  and  C_13
REMARK    5  A    between atoms: N_15  and  C_16
REMARK    6  A    between atoms: C_16  and  C_17
REMARK    7  A    between atoms: C_17  and  C_18
REMARK    8  A    between atoms: C_18  and  O_19
REMARK                            x       y       z     vdW  Elec       q    Type
REMARK                         _______ _______ _______ _____ _____    ______ ____
ROOT
ATOM      1  C   UNL     1      -0.469  13.828  19.592  0.00  0.00    +0.000 A 
ATOM      2  C   UNL     1      -1.372  12.924  20.112  0.00  0.00    +0.000 A 
ATOM      3  S   UNL     1      -0.930  11.339  19.683  0.00  0.00    +0.000 S 
ATOM      4  C   UNL     1       0.501  11.939  18.904  0.00  0.00    +0.000 A 
ATOM      5  N   UNL     1       1.389  11.139  18.263  0.00  0.00    +0.000 N 
ATOM      6  C   UNL     1       1.680   9.821  18.647  0.00  0.00    +0.000 A 
ATOM      7  C   UNL     1       2.049   8.903  17.667  0.00  0.00    +0.000 A 
ATOM      8  C   UNL     1       2.205   7.553  18.001  0.00  0.00    +0.000 A 
ATOM      9  C   UNL     1       2.021   7.149  19.324  0.00  0.00    +0.000 A 
ATOM     10  C   UNL     1       1.716   8.137  20.248  0.00  0.00    +0.000 A 
ATOM     11  N   UNL     1       1.550   9.445  19.935  0.00  0.00    +0.000 NA
ATOM     12  N   UNL     1       0.597  13.252  18.898  0.00  0.00    +0.000 NA
ATOM     13  H   UNL     1       2.183  11.614  17.858  0.00  0.00    +0.000 HD
ENDROOT
BRANCH   9  14
ATOM     14  C   UNL     1       2.121   5.754  19.816  0.00  0.00    +0.000 C 
ATOM     15  O   UNL     1       1.654   5.456  20.913  0.00  0.00    +0.000 OA
ATOM     16  N   UNL     1       2.777   4.832  19.027  0.00  0.00    +0.000 N 
ATOM     17  H   UNL     1       3.202   5.097  18.152  0.00  0.00    +0.000 HD
BRANCH  16  18
ATOM     18  C   UNL     1       2.987   3.470  19.478  0.00  0.00    +0.000 C 
BRANCH  18  19
ATOM     19  C   UNL     1       2.285   2.446  18.587  0.00  0.00    +0.000 C 
BRANCH  19  20
ATOM     20  C   UNL     1       0.785   2.313  18.833  0.00  0.00    +0.000 C 
BRANCH  20  21
ATOM     21  O   UNL     1       0.402   3.002  20.014  0.00  0.00    +0.000 OA
ATOM     22  H   UNL     1       0.443   3.962  19.801  0.00  0.00    +0.000 HD
ENDBRANCH  20  21
ENDBRANCH  19  20
ENDBRANCH  18  19
ENDBRANCH  16  18
ENDBRANCH   9  14
BRANCH   1  24
ATOM     23  C   UNL     1       0.169  16.043  18.584  0.00  0.00    +0.000 C 
ATOM     24  C   UNL     1      -0.574  15.324  19.706  0.00  0.00    +0.000 C 
BRANCH  24  25
ATOM     25  N   UNL     1      -1.994  15.681  19.709  0.00  0.00    +0.000 NA
ATOM     26  H   UNL     1      -2.074  16.605  20.137  0.00  0.00    +0.000 HD
ATOM     27  H   UNL     1      -2.505  15.039  20.309  0.00  0.00    +0.000 HD
ENDBRANCH  24  25
ENDBRANCH   1  24
TORSDOF 7
ENDMDL
MODEL 7
REMARK VINA RESULT:      -5.6      1.282      1.444
REMARK  Name = 
REMARK  8 active torsions:
REMARK  status: ('A' for Active; 'I' for Inactive)
REMARK    1  A    between atoms: C_1  and  C_2
REMARK    2  A    between atoms: C_2  and  N_3
REMARK    3  A    between atoms: C_2  and  C_4
REMARK    4  A    between atoms: C_12  and  C_13
REMARK    5  A    between atoms: N_15  and  C_16
REMARK    6  A    between atoms: C_16  and  C_17
REMARK    7  A    between atoms: C_17  and  C_18
REMARK    8  A    between atoms: C_18  and  O_19
REMARK                            x       y       z     vdW  Elec       q    Type
REMARK                         _______ _______ _______ _____ _____    ______ ____
ROOT
ATOM      1  C   UNL     1      -0.264  13.217  19.085  0.00  0.00    +0.000 A 
ATOM      2  C   UNL     1      -1.248  12.349  19.514  0.00  0.00    +0.000 A 
ATOM      3  S   UNL     1      -0.778  10.740  19.226  0.00  0.00    +0.000 S 
ATOM      4  C   UNL     1       0.758  11.286  18.630  0.00  0.00    +0.000 A 
ATOM      5  N   UNL     1       1.713  10.446  18.158  0.00  0.00    +0.000 N 
ATOM      6  C   UNL     1       1.924   9.145  18.641  0.00  0.00    +0.000 A 
ATOM      7  C   UNL     1       2.411   8.177  17.766  0.00  0.00    +0.000 A 
ATOM      8  C   UNL     1       2.495   6.843  18.182  0.00  0.00    +0.000 A 
ATOM      9  C   UNL     1       2.120   6.506  19.483  0.00  0.00    +0.000 A 
ATOM     10  C   UNL     1       1.706   7.541  20.307  0.00  0.00    +0.000 A 
ATOM     11  N   UNL     1       1.608   8.834  19.914  0.00  0.00    +0.000 NA
ATOM     12  N   UNL     1       0.878  12.596  18.576  0.00  0.00    +0.000 NA
ATOM     13  H   UNL     1       2.565  10.893  17.848  0.00  0.00    +0.000 HD
ENDROOT
BRANCH   9  14
ATOM     14  C   UNL     1       2.125   5.136  20.049  0.00  0.00    +0.000 C 
ATOM     15  O   UNL     1       2.908   4.847  20.951  0.00  0.00    +0.000 OA
ATOM     16  N   UNL     1       1.258   4.207  19.510  0.00  0.00    +0.000 N 
ATOM     17  H   UNL     1       0.655   4.439  18.736  0.00  0.00    +0.000 HD
BRANCH  16  18
ATOM     18  C   UNL     1       1.263   2.827  19.955  0.00  0.00    +0.000 C 
BRANCH  18  19
ATOM     19  C   UNL     1       1.497   1.844  18.809  0.00  0.00    +0.000 C 
BRANCH  19  20
ATOM     20  C   UNL     1       2.586   2.263  17.827  0.00  0.00    +0.000 C 
BRANCH  20  21
ATOM     21  O   UNL     1       2.111   3.262  16.937  0.00  0.00    +0.000 OA
ATOM     22  H   UNL     1       2.906   3.735  16.601  0.00  0.00    +0.000 HD
ENDBRANCH  20  21
ENDBRANCH  19  20
ENDBRANCH  18  19
ENDBRANCH  16  18
ENDBRANCH   9  14
BRANCH   1  24
ATOM     23  C   UNL     1      -1.235  15.221  20.255  0.00  0.00    +0.000 C 
ATOM     24  C   UNL     1      -0.358  14.717  19.113  0.00  0.00    +0.000 C 
BRANCH  24  25
ATOM     25  N   UNL     1       1.000  15.256  19.216  0.00  0.00    +0.000 NA
ATOM     26  H   UNL     1       1.607  14.491  19.517  0.00  0.00    +0.000 HD
ATOM     27  H   UNL     1       1.032  15.957  19.951  0.00  0.00    +0.000 HD
ENDBRANCH  24  25
ENDBRANCH   1  24
TORSDOF 7
ENDMDL
MODEL 8
REMARK VINA RESULT:      -5.6      4.345      8.948
REMARK  Name = 
REMARK  8 active torsions:
REMARK  status: ('A' for Active; 'I' for Inactive)
REMARK    1  A    between atoms: C_1  and  C_2
REMARK    2  A    between atoms: C_2  and  N_3
REMARK    3  A    between atoms: C_2  and  C_4
REMARK    4  A    between atoms: C_12  and  C_13
REMARK    5  A    between atoms: N_15  and  C_16
REMARK    6  A    between atoms: C_16  and  C_17
REMARK    7  A    between atoms: C_17  and  C_18
REMARK    8  A    between atoms: C_18  and  O_19
REMARK                            x       y       z     vdW  Elec       q    Type
REMARK                         _______ _______ _______ _____ _____    ______ ____
ROOT
ATOM      1  C   UNL     1       4.174   4.876  18.562  0.00  0.00    +0.000 A 
ATOM      2  C   UNL     1       3.105   4.734  17.701  0.00  0.00    +0.000 A 
ATOM      3  S   UNL     1       1.851   5.795  18.141  0.00  0.00    +0.000 S 
ATOM      4  C   UNL     1       2.842   6.456  19.404  0.00  0.00    +0.000 A 
ATOM      5  N   UNL     1       2.416   7.426  20.252  0.00  0.00    +0.000 N 
ATOM      6  C   UNL     1       1.511   8.439  19.897  0.00  0.00    +0.000 A 
ATOM      7  C   UNL     1       0.666   8.955  20.877  0.00  0.00    +0.000 A 
ATOM      8  C   UNL     1      -0.340   9.861  20.520  0.00  0.00    +0.000 A 
ATOM      9  C   UNL     1      -0.461  10.261  19.190  0.00  0.00    +0.000 A 
ATOM     10  C   UNL     1       0.460   9.747  18.290  0.00  0.00    +0.000 A 
ATOM     11  N   UNL     1       1.430   8.860  18.619  0.00  0.00    +0.000 NA
ATOM     12  N   UNL     1       4.009   5.862  19.537  0.00  0.00    +0.000 NA
ATOM     13  H   UNL     1       3.094   7.727  20.937  0.00  0.00    +0.000 HD
ENDROOT
BRANCH   9  14
ATOM     14  C   UNL     1      -1.494  11.185  18.663  0.00  0.00    +0.000 C 
ATOM     15  O   UNL     1      -1.509  12.360  19.023  0.00  0.00    +0.000 OA
ATOM     16  N   UNL     1      -2.441  10.675  17.798  0.00  0.00    +0.000 N 
ATOM     17  H   UNL     1      -2.452   9.698  17.548  0.00  0.00    +0.000 HD
BRANCH  16  18
ATOM     18  C   UNL     1      -3.531  11.496  17.306  0.00  0.00    +0.000 C 
BRANCH  18  19
ATOM     19  C   UNL     1      -4.896  10.997  17.774  0.00  0.00    +0.000 C 
BRANCH  19  20
ATOM     20  C   UNL     1      -5.925  12.096  18.015  0.00  0.00    +0.000 C 
BRANCH  20  21
ATOM     21  O   UNL     1      -6.813  12.211  16.913  0.00  0.00    +0.000 OA
ATOM     22  H   UNL     1      -6.577  11.486  16.291  0.00  0.00    +0.000 HD
ENDBRANCH  20  21
ENDBRANCH  19  20
ENDBRANCH  18  19
ENDBRANCH  16  18
ENDBRANCH   9  14
BRANCH   1  24
ATOM     23  C   UNL     1       6.675   4.885  18.835  0.00  0.00    +0.000 C 
ATOM     24  C   UNL     1       5.433   4.054  18.526  0.00  0.00    +0.000 C 
BRANCH  24  25
ATOM     25  N   UNL     1       5.285   2.954  19.482  0.00  0.00    +0.000 NA
ATOM     26  H   UNL     1       4.812   2.191  18.995  0.00  0.00    +0.000 HD
ATOM     27  H   UNL     1       4.669   3.242  20.237  0.00  0.00    +0.000 HD
ENDBRANCH  24  25
ENDBRANCH   1  24
TORSDOF 7
ENDMDL
MODEL 9
REMARK VINA RESULT:      -5.6      3.358      8.979
REMARK  Name = 
REMARK  8 active torsions:
REMARK  status: ('A' for Active; 'I' for Inactive)
REMARK    1  A    between atoms: C_1  and  C_2
REMARK    2  A    between atoms: C_2  and  N_3
REMARK    3  A    between atoms: C_2  and  C_4
REMARK    4  A    between atoms: C_12  and  C_13
REMARK    5  A    between atoms: N_15  and  C_16
REMARK    6  A    between atoms: C_16  and  C_17
REMARK    7  A    between atoms: C_17  and  C_18
REMARK    8  A    between atoms: C_18  and  O_19
REMARK                            x       y       z     vdW  Elec       q    Type
REMARK                         _______ _______ _______ _____ _____    ______ ____
ROOT
ATOM      1  C   UNL     1       3.426   3.373  18.936  0.00  0.00    +0.000 A 
ATOM      2  C   UNL     1       2.610   3.686  17.868  0.00  0.00    +0.000 A 
ATOM      3  S   UNL     1       1.696   5.077  18.214  0.00  0.00    +0.000 S 
ATOM      4  C   UNL     1       2.509   5.242  19.739  0.00  0.00    +0.000 A 
ATOM      5  N   UNL     1       2.223   6.225  20.630  0.00  0.00    +0.000 N 
ATOM      6  C   UNL     1       1.805   7.516  20.271  0.00  0.00    +0.000 A 
ATOM      7  C   UNL     1       0.959   8.210  21.132  0.00  0.00    +0.000 A 
ATOM      8  C   UNL     1       0.415   9.436  20.733  0.00  0.00    +0.000 A 
ATOM      9  C   UNL     1       0.755   9.964  19.488  0.00  0.00    +0.000 A 
ATOM     10  C   UNL     1       1.652   9.238  18.719  0.00  0.00    +0.000 A 
ATOM     11  N   UNL     1       2.176   8.044  19.088  0.00  0.00    +0.000 NA
ATOM     12  N   UNL     1       3.355   4.270  20.005  0.00  0.00    +0.000 NA
ATOM     13  H   UNL     1       2.775   6.212  21.477  0.00  0.00    +0.000 HD
ENDROOT
BRANCH   9  14
ATOM     14  C   UNL     1       0.233  11.231  18.921  0.00  0.00    +0.000 C 
ATOM     15  O   UNL     1      -0.707  11.208  18.130  0.00  0.00    +0.000 OA
ATOM     16  N   UNL     1       0.854  12.409  19.283  0.00  0.00    +0.000 N 
ATOM     17  H   UNL     1       1.657  12.413  19.893  0.00  0.00    +0.000 HD
BRANCH  16  18
ATOM     18  C   UNL     1       0.454  13.678  18.707  0.00  0.00    +0.000 C 
BRANCH  18  19
ATOM     19  C   UNL     1       1.516  14.761  18.884  0.00  0.00    +0.000 C 
BRANCH  19  20
ATOM     20  C   UNL     1       2.709  14.639  17.942  0.00  0.00    +0.000 C 
BRANCH  20  21
ATOM     21  O   UNL     1       3.212  13.311  17.928  0.00  0.00    +0.000 OA
ATOM     22  H   UNL     1       2.470  12.731  18.213  0.00  0.00    +0.000 HD
ENDBRANCH  20  21
ENDBRANCH  19  20
ENDBRANCH  18  19
ENDBRANCH  16  18
ENDBRANCH   9  14
BRANCH   1  24
ATOM     23  C   UNL     1       4.623   1.771  20.462  0.00  0.00    +0.000 C 
ATOM     24  C   UNL     1       4.324   2.170  19.020  0.00  0.00    +0.000 C 
BRANCH  24  25
ATOM     25  N   UNL     1       3.682   1.072  18.294  0.00  0.00    +0.000 NA
ATOM     26  H   UNL     1       4.241   0.232  18.458  0.00  0.00    +0.000 HD
ATOM     27  H   UNL     1       3.724   1.256  17.295  0.00  0.00    +0.000 HD
ENDBRANCH  24  25
ENDBRANCH   1  24
TORSDOF 7
ENDMDL
