MODEL 1
REMARK VINA RESULT:      -8.5      0.000      0.000
REMARK  Name = 
REMARK  3 active torsions:
REMARK  status: ('A' for Active; 'I' for Inactive)
REMARK    1  A    between atoms: C_2  and  C_3
REMARK    2  A    between atoms: C_13  and  C_14
REMARK    3  A    between atoms: C_18  and  C_19
REMARK                            x       y       z     vdW  Elec       q    Type
REMARK                         _______ _______ _______ _____ _____    ______ ____
ROOT
ATOM      1  C   UNL     1       0.940  14.288  19.174  0.00  0.00    +0.000 C 
ATOM      2  C   UNL     1      -0.096  15.067  20.013  0.00  0.00    +0.000 C 
ATOM      3  C   UNL     1      -0.704  14.219  21.142  0.00  0.00    +0.000 C 
ATOM      4  C   UNL     1      -1.216  12.861  20.655  0.00  0.00    +0.000 C 
ATOM      5  N   UNL     1      -0.214  12.222  19.808  0.00  0.00    +0.000 N 
ATOM      6  C   UNL     1       0.220  10.916  19.915  0.00  0.00    +0.000 A 
ATOM      7  C   UNL     1       0.282  10.269  21.157  0.00  0.00    +0.000 A 
ATOM      8  C   UNL     1       0.918   9.023  21.296  0.00  0.00    +0.000 A 
ATOM      9  C   UNL     1       1.467   8.463  20.147  0.00  0.00    +0.000 A 
ATOM     10  N   UNL     1       2.202   7.323  19.933  0.00  0.00    +0.000 NA
ATOM     11  C   UNL     1       2.495   7.318  18.638  0.00  0.00    +0.000 A 
ATOM     12  N   UNL     1       1.915   8.398  18.013  0.00  0.00    +0.000 N 
ATOM     13  C   UNL     1       1.296   9.155  18.963  0.00  0.00    +0.000 A 
ATOM     14  N   UNL     1       0.691  10.335  18.781  0.00  0.00    +0.000 NA
ATOM     15  C   UNL     1       0.276  13.004  18.677  0.00  0.00    +0.000 C 
ATOM     16  H   UNL     1       1.994   8.612  17.031  0.00  0.00    +0.000 HD
ENDROOT
BRANCH   1  18
ATOM     17  O   UNL     1       2.237  13.682  21.122  0.00  0.00    +0.000 OA
ATOM     18  C   UNL     1       2.252  14.118  19.964  0.00  0.00    +0.000 C 
ATOM     19  N   UNL     1       3.439  14.576  19.442  0.00  0.00    +0.000 N 
ATOM     20  C   UNL     1       4.609  14.635  20.304  0.00  0.00    +0.000 C 
ATOM     21  C   UNL     1       5.629  15.266  19.423  0.00  0.00    +0.000 C 
ATOM     22  C   UNL     1       5.146  15.459  18.191  0.00  0.00    +0.000 C 
ATOM     23  C   UNL     1       3.742  14.971  18.078  0.00  0.00    +0.000 C 
ENDBRANCH   1  18
BRANCH  11  24
ATOM     24  C   UNL     1       3.318   6.340  17.923  0.00  0.00    +0.000 A 
ATOM     25  C   UNL     1       4.431   6.758  17.206  0.00  0.00    +0.000 A 
ATOM     26  C   UNL     1       5.200   5.804  16.565  0.00  0.00    +0.000 A 
ATOM     27  C   UNL     1       4.819   4.468  16.639  0.00  0.00    +0.000 A 
ATOM     28  C   UNL     1       3.672   4.104  17.353  0.00  0.00    +0.000 A 
ATOM     29  N   UNL     1       2.923   5.039  18.002  0.00  0.00    +0.000 NA
BRANCH  28  30
ATOM     30  C   UNL     1       3.219   2.659  17.351  0.00  0.00    +0.000 C 
ATOM     31  C   UNL     1       3.435   1.782  18.566  0.00  0.00    +0.000 C 
ATOM     32  C   UNL     1       2.048   2.218  18.196  0.00  0.00    +0.000 C 
ENDBRANCH  28  30
ENDBRANCH  11  24
TORSDOF 3
ENDMDL
MODEL 2
REMARK VINA RESULT:      -8.5      1.205      2.333
REMARK  Name = 
REMARK  3 active torsions:
REMARK  status: ('A' for Active; 'I' for Inactive)
REMARK    1  A    between atoms: C_2  and  C_3
REMARK    2  A    between atoms: C_13  and  C_14
REMARK    3  A    between atoms: C_18  and  C_19
REMARK                            x       y       z     vdW  Elec       q    Type
REMARK                         _______ _______ _______ _____ _____    ______ ____
ROOT
ATOM      1  C   UNL     1       0.471  13.820  19.246  0.00  0.00    +0.000 C 
ATOM      2  C   UNL     1      -0.674  14.495  20.030  0.00  0.00    +0.000 C 
ATOM      3  C   UNL     1      -1.261  13.586  21.123  0.00  0.00    +0.000 C 
ATOM      4  C   UNL     1      -1.620  12.191  20.606  0.00  0.00    +0.000 C 
ATOM      5  N   UNL     1      -0.519  11.653  19.812  0.00  0.00    +0.000 N 
ATOM      6  C   UNL     1       0.027  10.392  19.939  0.00  0.00    +0.000 A 
ATOM      7  C   UNL     1       0.082   9.744  21.181  0.00  0.00    +0.000 A 
ATOM      8  C   UNL     1       0.822   8.561  21.351  0.00  0.00    +0.000 A 
ATOM      9  C   UNL     1       1.481   8.061  20.232  0.00  0.00    +0.000 A 
ATOM     10  N   UNL     1       2.328   6.996  20.055  0.00  0.00    +0.000 NA
ATOM     11  C   UNL     1       2.689   7.027  18.777  0.00  0.00    +0.000 A 
ATOM     12  N   UNL     1       2.045   8.054  18.125  0.00  0.00    +0.000 N 
ATOM     13  C   UNL     1       1.310   8.743  19.042  0.00  0.00    +0.000 A 
ATOM     14  N   UNL     1       0.609   9.864  18.831  0.00  0.00    +0.000 NA
ATOM     15  C   UNL     1      -0.044  12.485  18.711  0.00  0.00    +0.000 C 
ATOM     16  H   UNL     1       2.156   8.281  17.149  0.00  0.00    +0.000 HD
ENDROOT
BRANCH   1  18
ATOM     17  O   UNL     1       1.706  13.364  21.274  0.00  0.00    +0.000 OA
ATOM     18  C   UNL     1       1.750  13.766  20.105  0.00  0.00    +0.000 C 
ATOM     19  N   UNL     1       2.929  14.290  19.627  0.00  0.00    +0.000 N 
ATOM     20  C   UNL     1       4.046  14.456  20.543  0.00  0.00    +0.000 C 
ATOM     21  C   UNL     1       5.064  15.131  19.693  0.00  0.00    +0.000 C 
ATOM     22  C   UNL     1       4.633  15.254  18.433  0.00  0.00    +0.000 C 
ATOM     23  C   UNL     1       3.273  14.666  18.267  0.00  0.00    +0.000 C 
ENDBRANCH   1  18
BRANCH  11  24
ATOM     24  C   UNL     1       3.635   6.133  18.106  0.00  0.00    +0.000 A 
ATOM     25  C   UNL     1       3.204   4.911  17.607  0.00  0.00    +0.000 A 
ATOM     26  C   UNL     1       4.119   4.104  16.956  0.00  0.00    +0.000 A 
ATOM     27  C   UNL     1       5.439   4.530  16.847  0.00  0.00    +0.000 A 
ATOM     28  C   UNL     1       5.826   5.759  17.392  0.00  0.00    +0.000 A 
ATOM     29  N   UNL     1       4.923   6.567  18.017  0.00  0.00    +0.000 NA
BRANCH  28  30
ATOM     30  C   UNL     1       7.282   6.171  17.345  0.00  0.00    +0.000 C 
ATOM     31  C   UNL     1       7.676   7.627  17.474  0.00  0.00    +0.000 C 
ATOM     32  C   UNL     1       7.983   6.669  18.586  0.00  0.00    +0.000 C 
ENDBRANCH  28  30
ENDBRANCH  11  24
TORSDOF 3
ENDMDL
MODEL 3
REMARK VINA RESULT:      -8.4      3.848      9.024
REMARK  Name = 
REMARK  3 active torsions:
REMARK  status: ('A' for Active; 'I' for Inactive)
REMARK    1  A    between atoms: C_2  and  C_3
REMARK    2  A    between atoms: C_13  and  C_14
REMARK    3  A    between atoms: C_18  and  C_19
REMARK                            x       y       z     vdW  Elec       q    Type
REMARK                         _______ _______ _______ _____ _____    ______ ____
ROOT
ATOM      1  C   UNL     1       2.512   5.441  17.791  0.00  0.00    +0.000 C 
ATOM      2  C   UNL     1       2.264   3.918  17.812  0.00  0.00    +0.000 C 
ATOM      3  C   UNL     1       3.498   3.121  18.265  0.00  0.00    +0.000 C 
ATOM      4  C   UNL     1       4.771   3.518  17.513  0.00  0.00    +0.000 C 
ATOM      5  N   UNL     1       4.895   4.972  17.471  0.00  0.00    +0.000 N 
ATOM      6  C   UNL     1       6.029   5.695  17.779  0.00  0.00    +0.000 A 
ATOM      7  C   UNL     1       6.934   5.250  18.753  0.00  0.00    +0.000 A 
ATOM      8  C   UNL     1       7.969   6.080  19.217  0.00  0.00    +0.000 A 
ATOM      9  C   UNL     1       8.058   7.351  18.658  0.00  0.00    +0.000 A 
ATOM     10  N   UNL     1       8.879   8.421  18.915  0.00  0.00    +0.000 NA
ATOM     11  C   UNL     1       8.478   9.390  18.101  0.00  0.00    +0.000 A 
ATOM     12  N   UNL     1       7.460   8.943  17.292  0.00  0.00    +0.000 N 
ATOM     13  C   UNL     1       7.154   7.667  17.661  0.00  0.00    +0.000 A 
ATOM     14  N   UNL     1       6.161   6.907  17.181  0.00  0.00    +0.000 NA
ATOM     15  C   UNL     1       3.752   5.707  16.938  0.00  0.00    +0.000 C 
ATOM     16  H   UNL     1       6.990   9.495  16.592  0.00  0.00    +0.000 HD
ENDROOT
BRANCH   1  18
ATOM     17  O   UNL     1       2.856   5.276  20.179  0.00  0.00    +0.000 OA
ATOM     18  C   UNL     1       2.537   6.000  19.228  0.00  0.00    +0.000 C 
ATOM     19  N   UNL     1       2.076   7.270  19.485  0.00  0.00    +0.000 N 
ATOM     20  C   UNL     1       1.873   7.677  20.867  0.00  0.00    +0.000 C 
ATOM     21  C   UNL     1       1.284   9.036  20.721  0.00  0.00    +0.000 C 
ATOM     22  C   UNL     1       1.239   9.405  19.436  0.00  0.00    +0.000 C 
ATOM     23  C   UNL     1       1.804   8.348  18.550  0.00  0.00    +0.000 C 
ENDBRANCH   1  18
BRANCH  11  24
ATOM     24  C   UNL     1       8.998  10.758  18.035  0.00  0.00    +0.000 A 
ATOM     25  C   UNL     1      10.356  10.995  18.207  0.00  0.00    +0.000 A 
ATOM     26  C   UNL     1      10.816  12.295  18.112  0.00  0.00    +0.000 A 
ATOM     27  C   UNL     1       9.904  13.319  17.875  0.00  0.00    +0.000 A 
ATOM     28  C   UNL     1       8.543  13.028  17.737  0.00  0.00    +0.000 A 
ATOM     29  N   UNL     1       8.087  11.745  17.810  0.00  0.00    +0.000 NA
BRANCH  28  30
ATOM     30  C   UNL     1       7.550  14.159  17.568  0.00  0.00    +0.000 C 
ATOM     31  C   UNL     1       6.948  14.842  18.777  0.00  0.00    +0.000 C 
ATOM     32  C   UNL     1       7.931  15.577  17.917  0.00  0.00    +0.000 C 
ENDBRANCH  28  30
ENDBRANCH  11  24
TORSDOF 3
ENDMDL
MODEL 4
REMARK VINA RESULT:      -8.3      1.099      2.028
REMARK  Name = 
REMARK  3 active torsions:
REMARK  status: ('A' for Active; 'I' for Inactive)
REMARK    1  A    between atoms: C_2  and  C_3
REMARK    2  A    between atoms: C_13  and  C_14
REMARK    3  A    between atoms: C_18  and  C_19
REMARK                            x       y       z     vdW  Elec       q    Type
REMARK                         _______ _______ _______ _____ _____    ______ ____
ROOT
ATOM      1  C   UNL     1       1.677  14.473  19.213  0.00  0.00    +0.000 C 
ATOM      2  C   UNL     1       0.662  15.395  19.923  0.00  0.00    +0.000 C 
ATOM      3  C   UNL     1      -0.181  14.653  20.972  0.00  0.00    +0.000 C 
ATOM      4  C   UNL     1      -0.808  13.367  20.429  0.00  0.00    +0.000 C 
ATOM      5  N   UNL     1       0.193  12.588  19.707  0.00  0.00    +0.000 N 
ATOM      6  C   UNL     1       0.435  11.238  19.865  0.00  0.00    +0.000 A 
ATOM      7  C   UNL     1       0.264  10.609  21.106  0.00  0.00    +0.000 A 
ATOM      8  C   UNL     1       0.709   9.292  21.321  0.00  0.00    +0.000 A 
ATOM      9  C   UNL     1       1.311   8.646  20.245  0.00  0.00    +0.000 A 
ATOM     10  N   UNL     1       1.908   7.416  20.120  0.00  0.00    +0.000 NA
ATOM     11  C   UNL     1       2.348   7.352  18.869  0.00  0.00    +0.000 A 
ATOM     12  N   UNL     1       1.993   8.488  18.180  0.00  0.00    +0.000 N 
ATOM     13  C   UNL     1       1.373   9.335  19.049  0.00  0.00    +0.000 A 
ATOM     14  N   UNL     1       0.955  10.582  18.796  0.00  0.00    +0.000 NA
ATOM     15  C   UNL     1       0.912  13.280  18.642  0.00  0.00    +0.000 C 
ATOM     16  H   UNL     1       2.215   8.674  17.214  0.00  0.00    +0.000 HD
ENDROOT
BRANCH   1  18
ATOM     17  O   UNL     1       2.687  13.413  21.137  0.00  0.00    +0.000 OA
ATOM     18  C   UNL     1       2.854  14.145  20.153  0.00  0.00    +0.000 C 
ATOM     19  N   UNL     1       4.068  14.771  19.987  0.00  0.00    +0.000 N 
ATOM     20  C   UNL     1       5.073  14.639  21.030  0.00  0.00    +0.000 C 
ATOM     21  C   UNL     1       6.166  15.521  20.539  0.00  0.00    +0.000 C 
ATOM     22  C   UNL     1       5.875  16.021  19.334  0.00  0.00    +0.000 C 
ATOM     23  C   UNL     1       4.554  15.530  18.849  0.00  0.00    +0.000 C 
ENDBRANCH   1  18
BRANCH  11  24
ATOM     24  C   UNL     1       3.113   6.262  18.258  0.00  0.00    +0.000 A 
ATOM     25  C   UNL     1       2.490   5.057  17.960  0.00  0.00    +0.000 A 
ATOM     26  C   UNL     1       3.236   4.060  17.360  0.00  0.00    +0.000 A 
ATOM     27  C   UNL     1       4.584   4.286  17.101  0.00  0.00    +0.000 A 
ATOM     28  C   UNL     1       5.168   5.509  17.447  0.00  0.00    +0.000 A 
ATOM     29  N   UNL     1       4.432   6.503  18.021  0.00  0.00    +0.000 NA
BRANCH  28  30
ATOM     30  C   UNL     1       6.655   5.711  17.242  0.00  0.00    +0.000 C 
ATOM     31  C   UNL     1       7.584   5.851  18.428  0.00  0.00    +0.000 C 
ATOM     32  C   UNL     1       7.635   4.615  17.580  0.00  0.00    +0.000 C 
ENDBRANCH  28  30
ENDBRANCH  11  24
TORSDOF 3
ENDMDL
MODEL 5
REMARK VINA RESULT:      -8.2      1.246      1.944
REMARK  Name = 
REMARK  3 active torsions:
REMARK  status: ('A' for Active; 'I' for Inactive)
REMARK    1  A    between atoms: C_2  and  C_3
REMARK    2  A    between atoms: C_13  and  C_14
REMARK    3  A    between atoms: C_18  and  C_19
REMARK                            x       y       z     vdW  Elec       q    Type
REMARK                         _______ _______ _______ _____ _____    ______ ____
ROOT
ATOM      1  C   UNL     1       1.010  13.984  19.210  0.00  0.00    +0.000 C 
ATOM      2  C   UNL     1      -0.203  14.751  19.780  0.00  0.00    +0.000 C 
ATOM      3  C   UNL     1      -1.052  13.895  20.734  0.00  0.00    +0.000 C 
ATOM      4  C   UNL     1      -1.420  12.532  20.141  0.00  0.00    +0.000 C 
ATOM      5  N   UNL     1      -0.238  11.905  19.556  0.00  0.00    +0.000 N 
ATOM      6  C   UNL     1       0.172  10.604  19.764  0.00  0.00    +0.000 A 
ATOM      7  C   UNL     1      -0.054   9.956  20.987  0.00  0.00    +0.000 A 
ATOM      8  C   UNL     1       0.544   8.717  21.274  0.00  0.00    +0.000 A 
ATOM      9  C   UNL     1       1.356   8.164  20.288  0.00  0.00    +0.000 A 
ATOM     10  N   UNL     1       2.133   7.033  20.255  0.00  0.00    +0.000 NA
ATOM     11  C   UNL     1       2.724   7.033  19.066  0.00  0.00    +0.000 A 
ATOM     12  N   UNL     1       2.296   8.107  18.321  0.00  0.00    +0.000 N 
ATOM     13  C   UNL     1       1.462   8.856  19.096  0.00  0.00    +0.000 A 
ATOM     14  N   UNL     1       0.904  10.030  18.775  0.00  0.00    +0.000 NA
ATOM     15  C   UNL     1       0.496  12.694  18.572  0.00  0.00    +0.000 C 
ATOM     16  H   UNL     1       2.603   8.323  17.385  0.00  0.00    +0.000 HD
ENDROOT
BRANCH   1  18
ATOM     17  O   UNL     1       1.817  13.391  21.411  0.00  0.00    +0.000 OA
ATOM     18  C   UNL     1       2.100  13.828  20.289  0.00  0.00    +0.000 C 
ATOM     19  N   UNL     1       3.372  14.298  20.060  0.00  0.00    +0.000 N 
ATOM     20  C   UNL     1       4.305  14.370  21.175  0.00  0.00    +0.000 C 
ATOM     21  C   UNL     1       5.497  15.012  20.559  0.00  0.00    +0.000 C 
ATOM     22  C   UNL     1       5.317  15.201  19.247  0.00  0.00    +0.000 C 
ATOM     23  C   UNL     1       3.985  14.699  18.806  0.00  0.00    +0.000 C 
ENDBRANCH   1  18
BRANCH  11  24
ATOM     24  C   UNL     1       3.703   6.064  18.568  0.00  0.00    +0.000 A 
ATOM     25  C   UNL     1       4.190   5.072  19.408  0.00  0.00    +0.000 A 
ATOM     26  C   UNL     1       5.093   4.158  18.897  0.00  0.00    +0.000 A 
ATOM     27  C   UNL     1       5.502   4.281  17.573  0.00  0.00    +0.000 A 
ATOM     28  C   UNL     1       5.001   5.317  16.777  0.00  0.00    +0.000 A 
ATOM     29  N   UNL     1       4.096   6.207  17.271  0.00  0.00    +0.000 NA
BRANCH  28  30
ATOM     30  C   UNL     1       5.521   5.493  15.366  0.00  0.00    +0.000 C 
ATOM     31  C   UNL     1       6.898   4.994  14.984  0.00  0.00    +0.000 C 
ATOM     32  C   UNL     1       5.679   4.305  14.449  0.00  0.00    +0.000 C 
ENDBRANCH  28  30
ENDBRANCH  11  24
TORSDOF 3
ENDMDL
MODEL 6
REMARK VINA RESULT:      -8.1      0.869      1.058
REMARK  Name = 
REMARK  3 active torsions:
REMARK  status: ('A' for Active; 'I' for Inactive)
REMARK    1  A    between atoms: C_2  and  C_3
REMARK    2  A    between atoms: C_13  and  C_14
REMARK    3  A    between atoms: C_18  and  C_19
REMARK                            x       y       z     vdW  Elec       q    Type
REMARK                         _______ _______ _______ _____ _____    ______ ____
ROOT
ATOM      1  C   UNL     1       1.964  14.612  19.158  0.00  0.00    +0.000 C 
ATOM      2  C   UNL     1       0.901  15.582  19.717  0.00  0.00    +0.000 C 
ATOM      3  C   UNL     1      -0.103  14.889  20.652  0.00  0.00    +0.000 C 
ATOM      4  C   UNL     1      -0.702  13.619  20.044  0.00  0.00    +0.000 C 
ATOM      5  N   UNL     1       0.355  12.792  19.469  0.00  0.00    +0.000 N 
ATOM      6  C   UNL     1       0.520  11.436  19.672  0.00  0.00    +0.000 A 
ATOM      7  C   UNL     1       0.161  10.833  20.886  0.00  0.00    +0.000 A 
ATOM      8  C   UNL     1       0.522   9.505  21.171  0.00  0.00    +0.000 A 
ATOM      9  C   UNL     1       1.234   8.819  20.192  0.00  0.00    +0.000 A 
ATOM     10  N   UNL     1       1.794   7.566  20.160  0.00  0.00    +0.000 NA
ATOM     11  C   UNL     1       2.394   7.466  18.980  0.00  0.00    +0.000 A 
ATOM     12  N   UNL     1       2.178   8.604  18.237  0.00  0.00    +0.000 N 
ATOM     13  C   UNL     1       1.482   9.487  19.008  0.00  0.00    +0.000 A 
ATOM     14  N   UNL     1       1.151  10.745  18.688  0.00  0.00    +0.000 NA
ATOM     15  C   UNL     1       1.235  13.440  18.502  0.00  0.00    +0.000 C 
ATOM     16  H   UNL     1       2.533   8.766  17.308  0.00  0.00    +0.000 HD
ENDROOT
BRANCH   1  18
ATOM     17  O   UNL     1       2.649  13.611  21.250  0.00  0.00    +0.000 OA
ATOM     18  C   UNL     1       2.991  14.255  20.250  0.00  0.00    +0.000 C 
ATOM     19  N   UNL     1       4.268  14.762  20.191  0.00  0.00    +0.000 N 
ATOM     20  C   UNL     1       5.134  14.621  21.352  0.00  0.00    +0.000 C 
ATOM     21  C   UNL     1       6.351  15.371  20.942  0.00  0.00    +0.000 C 
ATOM     22  C   UNL     1       6.246  15.806  19.682  0.00  0.00    +0.000 C 
ATOM     23  C   UNL     1       4.948  15.395  19.074  0.00  0.00    +0.000 C 
ENDBRANCH   1  18
BRANCH  11  24
ATOM     24  C   UNL     1       3.189   6.339  18.487  0.00  0.00    +0.000 A 
ATOM     25  C   UNL     1       4.101   6.529  17.458  0.00  0.00    +0.000 A 
ATOM     26  C   UNL     1       4.854   5.448  17.036  0.00  0.00    +0.000 A 
ATOM     27  C   UNL     1       4.652   4.208  17.634  0.00  0.00    +0.000 A 
ATOM     28  C   UNL     1       3.699   4.067  18.649  0.00  0.00    +0.000 A 
ATOM     29  N   UNL     1       2.969   5.134  19.082  0.00  0.00    +0.000 NA
BRANCH  28  30
ATOM     30  C   UNL     1       3.426   2.696  19.231  0.00  0.00    +0.000 C 
ATOM     31  C   UNL     1       2.183   1.927  18.840  0.00  0.00    +0.000 C 
ATOM     32  C   UNL     1       3.528   1.459  18.371  0.00  0.00    +0.000 C 
ENDBRANCH  28  30
ENDBRANCH  11  24
TORSDOF 3
ENDMDL
MODEL 7
REMARK VINA RESULT:      -8.0      2.577      5.144
REMARK  Name = 
REMARK  3 active torsions:
REMARK  status: ('A' for Active; 'I' for Inactive)
REMARK    1  A    between atoms: C_2  and  C_3
REMARK    2  A    between atoms: C_13  and  C_14
REMARK    3  A    between atoms: C_18  and  C_19
REMARK                            x       y       z     vdW  Elec       q    Type
REMARK                         _______ _______ _______ _____ _____    ______ ____
ROOT
ATOM      1  C   UNL     1      -2.550  12.203  20.653  0.00  0.00    +0.000 C 
ATOM      2  C   UNL     1      -2.531  13.726  20.905  0.00  0.00    +0.000 C 
ATOM      3  C   UNL     1      -1.320  14.419  20.259  0.00  0.00    +0.000 C 
ATOM      4  C   UNL     1       0.006  13.732  20.595  0.00  0.00    +0.000 C 
ATOM      5  N   UNL     1      -0.115  12.290  20.406  0.00  0.00    +0.000 N 
ATOM      6  C   UNL     1       0.774  11.488  19.719  0.00  0.00    +0.000 A 
ATOM      7  C   UNL     1       1.487  11.973  18.613  0.00  0.00    +0.000 A 
ATOM      8  C   UNL     1       2.226  11.107  17.789  0.00  0.00    +0.000 A 
ATOM      9  C   UNL     1       2.225   9.757  18.128  0.00  0.00    +0.000 A 
ATOM     10  N   UNL     1       2.766   8.650  17.524  0.00  0.00    +0.000 NA
ATOM     11  C   UNL     1       2.407   7.615  18.275  0.00  0.00    +0.000 A 
ATOM     12  N   UNL     1       1.700   8.045  19.374  0.00  0.00    +0.000 N 
ATOM     13  C   UNL     1       1.540   9.395  19.273  0.00  0.00    +0.000 A 
ATOM     14  N   UNL     1       0.833  10.184  20.092  0.00  0.00    +0.000 NA
ATOM     15  C   UNL     1      -1.209  11.632  21.112  0.00  0.00    +0.000 C 
ATOM     16  H   UNL     1       1.320   7.446  20.090  0.00  0.00    +0.000 HD
ENDROOT
BRANCH   1  18
ATOM     17  O   UNL     1      -2.100  11.774  18.317  0.00  0.00    +0.000 OA
ATOM     18  C   UNL     1      -2.960  11.905  19.197  0.00  0.00    +0.000 C 
ATOM     19  N   UNL     1      -4.286  11.915  18.835  0.00  0.00    +0.000 N 
ATOM     20  C   UNL     1      -4.628  11.885  17.422  0.00  0.00    +0.000 C 
ATOM     21  C   UNL     1      -6.110  12.015  17.444  0.00  0.00    +0.000 C 
ATOM     22  C   UNL     1      -6.573  12.024  18.699  0.00  0.00    +0.000 C 
ATOM     23  C   UNL     1      -5.464  11.888  19.685  0.00  0.00    +0.000 C 
ENDBRANCH   1  18
BRANCH  11  24
ATOM     24  C   UNL     1       2.686   6.200  18.018  0.00  0.00    +0.000 A 
ATOM     25  C   UNL     1       1.804   5.225  18.465  0.00  0.00    +0.000 A 
ATOM     26  C   UNL     1       2.086   3.901  18.182  0.00  0.00    +0.000 A 
ATOM     27  C   UNL     1       3.250   3.591  17.486  0.00  0.00    +0.000 A 
ATOM     28  C   UNL     1       4.118   4.611  17.083  0.00  0.00    +0.000 A 
ATOM     29  N   UNL     1       3.835   5.919  17.343  0.00  0.00    +0.000 NA
BRANCH  28  30
ATOM     30  C   UNL     1       5.425   4.256  16.406  0.00  0.00    +0.000 C 
ATOM     31  C   UNL     1       5.626   4.525  14.930  0.00  0.00    +0.000 C 
ATOM     32  C   UNL     1       6.374   5.336  15.946  0.00  0.00    +0.000 C 
ENDBRANCH  28  30
ENDBRANCH  11  24
TORSDOF 3
ENDMDL
MODEL 8
REMARK VINA RESULT:      -8.0      1.252      2.097
REMARK  Name = 
REMARK  3 active torsions:
REMARK  status: ('A' for Active; 'I' for Inactive)
REMARK    1  A    between atoms: C_2  and  C_3
REMARK    2  A    between atoms: C_13  and  C_14
REMARK    3  A    between atoms: C_18  and  C_19
REMARK                            x       y       z     vdW  Elec       q    Type
REMARK                         _______ _______ _______ _____ _____    ______ ____
ROOT
ATOM      1  C   UNL     1       2.034  14.356  19.090  0.00  0.00    +0.000 C 
ATOM      2  C   UNL     1       0.993  15.432  19.468  0.00  0.00    +0.000 C 
ATOM      3  C   UNL     1      -0.088  14.902  20.424  0.00  0.00    +0.000 C 
ATOM      4  C   UNL     1      -0.717  13.593  19.942  0.00  0.00    +0.000 C 
ATOM      5  N   UNL     1       0.325  12.657  19.531  0.00  0.00    +0.000 N 
ATOM      6  C   UNL     1       0.414  11.332  19.905  0.00  0.00    +0.000 A 
ATOM      7  C   UNL     1      -0.032  10.898  21.161  0.00  0.00    +0.000 A 
ATOM      8  C   UNL     1       0.249   9.601  21.625  0.00  0.00    +0.000 A 
ATOM      9  C   UNL     1       0.975   8.771  20.776  0.00  0.00    +0.000 A 
ATOM     10  N   UNL     1       1.474   7.501  20.927  0.00  0.00    +0.000 NA
ATOM     11  C   UNL     1       2.125   7.231  19.802  0.00  0.00    +0.000 A 
ATOM     12  N   UNL     1       2.002   8.277  18.916  0.00  0.00    +0.000 N 
ATOM     13  C   UNL     1       1.312   9.277  19.535  0.00  0.00    +0.000 A 
ATOM     14  N   UNL     1       1.058  10.498  19.048  0.00  0.00    +0.000 NA
ATOM     15  C   UNL     1       1.282  13.144  18.542  0.00  0.00    +0.000 C 
ATOM     16  H   UNL     1       2.409   8.308  17.995  0.00  0.00    +0.000 HD
ENDROOT
BRANCH   1  18
ATOM     17  O   UNL     1       2.592  13.491  21.278  0.00  0.00    +0.000 OA
ATOM     18  C   UNL     1       2.988  14.093  20.271  0.00  0.00    +0.000 C 
ATOM     19  N   UNL     1       4.249  14.642  20.278  0.00  0.00    +0.000 N 
ATOM     20  C   UNL     1       5.029  14.593  21.505  0.00  0.00    +0.000 C 
ATOM     21  C   UNL     1       6.250  15.363  21.144  0.00  0.00    +0.000 C 
ATOM     22  C   UNL     1       6.225  15.727  19.857  0.00  0.00    +0.000 C 
ATOM     23  C   UNL     1       4.990  15.239  19.181  0.00  0.00    +0.000 C 
ENDBRANCH   1  18
BRANCH  11  24
ATOM     24  C   UNL     1       2.888   6.019  19.493  0.00  0.00    +0.000 A 
ATOM     25  C   UNL     1       2.690   4.864  20.238  0.00  0.00    +0.000 A 
ATOM     26  C   UNL     1       3.408   3.731  19.902  0.00  0.00    +0.000 A 
ATOM     27  C   UNL     1       4.319   3.795  18.853  0.00  0.00    +0.000 A 
ATOM     28  C   UNL     1       4.499   4.992  18.152  0.00  0.00    +0.000 A 
ATOM     29  N   UNL     1       3.779   6.106  18.467  0.00  0.00    +0.000 NA
BRANCH  28  30
ATOM     30  C   UNL     1       5.557   5.074  17.071  0.00  0.00    +0.000 C 
ATOM     31  C   UNL     1       5.285   4.528  15.686  0.00  0.00    +0.000 C 
ATOM     32  C   UNL     1       5.390   6.009  15.898  0.00  0.00    +0.000 C 
ENDBRANCH  28  30
ENDBRANCH  11  24
TORSDOF 3
ENDMDL
MODEL 9
REMARK VINA RESULT:      -8.0      1.068      1.213
REMARK  Name = 
REMARK  3 active torsions:
REMARK  status: ('A' for Active; 'I' for Inactive)
REMARK    1  A    between atoms: C_2  and  C_3
REMARK    2  A    between atoms: C_13  and  C_14
REMARK    3  A    between atoms: C_18  and  C_19
REMARK                            x       y       z     vdW  Elec       q    Type
REMARK                         _______ _______ _______ _____ _____    ______ ____
ROOT
ATOM      1  C   UNL     1       0.469  14.777  20.174  0.00  0.00    +0.000 C 
ATOM      2  C   UNL     1      -0.565  15.561  21.010  0.00  0.00    +0.000 C 
ATOM      3  C   UNL     1      -1.204  14.706  22.117  0.00  0.00    +0.000 C 
ATOM      4  C   UNL     1      -1.732  13.365  21.601  0.00  0.00    +0.000 C 
ATOM      5  N   UNL     1      -0.729  12.722  20.758  0.00  0.00    +0.000 N 
ATOM      6  C   UNL     1      -0.319  11.407  20.850  0.00  0.00    +0.000 A 
ATOM      7  C   UNL     1      -0.286  10.739  22.082  0.00  0.00    +0.000 A 
ATOM      8  C   UNL     1       0.327   9.481  22.211  0.00  0.00    +0.000 A 
ATOM      9  C   UNL     1       0.883   8.929  21.061  0.00  0.00    +0.000 A 
ATOM     10  N   UNL     1       1.601   7.781  20.839  0.00  0.00    +0.000 NA
ATOM     11  C   UNL     1       1.914   7.791  19.548  0.00  0.00    +0.000 A 
ATOM     12  N   UNL     1       1.361   8.891  18.933  0.00  0.00    +0.000 N 
ATOM     13  C   UNL     1       0.742   9.643  19.886  0.00  0.00    +0.000 A 
ATOM     14  N   UNL     1       0.159  10.836  19.714  0.00  0.00    +0.000 NA
ATOM     15  C   UNL     1      -0.209  13.514  19.647  0.00  0.00    +0.000 C 
ATOM     16  H   UNL     1       1.458   9.118  17.956  0.00  0.00    +0.000 HD
ENDROOT
BRANCH   1  18
ATOM     17  O   UNL     1       1.726  14.403  22.205  0.00  0.00    +0.000 OA
ATOM     18  C   UNL     1       1.767  14.572  20.980  0.00  0.00    +0.000 C 
ATOM     19  N   UNL     1       2.991  14.710  20.368  0.00  0.00    +0.000 N 
ATOM     20  C   UNL     1       4.187  14.764  21.195  0.00  0.00    +0.000 C 
ATOM     21  C   UNL     1       5.260  15.019  20.197  0.00  0.00    +0.000 C 
ATOM     22  C   UNL     1       4.769  15.018  18.952  0.00  0.00    +0.000 C 
ATOM     23  C   UNL     1       3.302  14.749  18.950  0.00  0.00    +0.000 C 
ENDBRANCH   1  18
BRANCH  11  24
ATOM     24  C   UNL     1       2.730   6.810  18.830  0.00  0.00    +0.000 A 
ATOM     25  C   UNL     1       3.538   7.215  17.776  0.00  0.00    +0.000 A 
ATOM     26  C   UNL     1       4.315   6.266  17.138  0.00  0.00    +0.000 A 
ATOM     27  C   UNL     1       4.241   4.940  17.554  0.00  0.00    +0.000 A 
ATOM     28  C   UNL     1       3.390   4.582  18.604  0.00  0.00    +0.000 A 
ATOM     29  N   UNL     1       2.637   5.517  19.249  0.00  0.00    +0.000 NA
BRANCH  28  30
ATOM     30  C   UNL     1       3.251   3.124  18.989  0.00  0.00    +0.000 C 
ATOM     31  C   UNL     1       2.031   2.330  18.576  0.00  0.00    +0.000 C 
ATOM     32  C   UNL     1       3.360   2.038  17.947  0.00  0.00    +0.000 C 
ENDBRANCH  28  30
ENDBRANCH  11  24
TORSDOF 3
ENDMDL
