MODEL 1
REMARK VINA RESULT:      -8.7      0.000      0.000
REMARK  Name = 
REMARK  5 active torsions:
REMARK  status: ('A' for Active; 'I' for Inactive)
REMARK    1  A    between atoms: C_2  and  C_3
REMARK    2  A    between atoms: C_4  and  N_5
REMARK    3  A    between atoms: N_6  and  C_7
REMARK    4  A    between atoms: C_11  and  S_12
REMARK    5  A    between atoms: S_12  and  N_13
REMARK                            x       y       z     vdW  Elec       q    Type
REMARK                         _______ _______ _______ _____ _____    ______ ____
ROOT
ATOM      1  C   UNL     1       1.949   4.112  18.758  0.00  0.00    +0.000 A 
ATOM      2  C   UNL     1       2.145   4.960  19.856  0.00  0.00    +0.000 A 
ATOM      3  N   UNL     1       2.605   6.111  19.207  0.00  0.00    +0.000 N 
ATOM      4  C   UNL     1       3.554   5.622  18.353  0.00  0.00    +0.000 A 
ATOM      5  N   UNL     1       4.666   6.262  17.946  0.00  0.00    +0.000 NA
ATOM      6  C   UNL     1       5.333   5.574  17.045  0.00  0.00    +0.000 A 
ATOM      7  C   UNL     1       6.523   6.145  16.638  0.00  0.00    +0.000 A 
ATOM      8  C   UNL     1       7.327   5.515  15.707  0.00  0.00    +0.000 A 
ATOM      9  C   UNL     1       6.922   4.299  15.178  0.00  0.00    +0.000 A 
ATOM     10  C   UNL     1       5.710   3.718  15.581  0.00  0.00    +0.000 A 
ATOM     11  C   UNL     1       4.877   4.321  16.529  0.00  0.00    +0.000 A 
ATOM     12  N   UNL     1       3.730   3.721  16.930  0.00  0.00    +0.000 NA
ATOM     13  C   UNL     1       3.076   4.387  17.922  0.00  0.00    +0.000 A 
ENDROOT
BRANCH   3  14
ATOM     14  C   UNL     1       2.050   7.419  19.161  0.00  0.00    +0.000 A 
ATOM     15  C   UNL     1       2.111   8.210  18.015  0.00  0.00    +0.000 A 
ATOM     16  C   UNL     1       1.627   9.522  18.051  0.00  0.00    +0.000 A 
ATOM     17  C   UNL     1       1.101  10.063  19.238  0.00  0.00    +0.000 A 
ATOM     18  C   UNL     1       1.048   9.273  20.380  0.00  0.00    +0.000 A 
ATOM     19  C   UNL     1       1.524   7.962  20.351  0.00  0.00    +0.000 A 
BRANCH  18  20
ATOM     20  S   UNL     1       0.451   9.937  21.903  0.00  0.00    +0.000 S 
ATOM     21  O   UNL     1       0.490  11.380  21.839  0.00  0.00    +0.000 OA
ATOM     22  O   UNL     1      -0.733   9.226  22.300  0.00  0.00    +0.000 OA
BRANCH  20  23
ATOM     23  N   UNL     1       1.660   9.492  22.971  0.00  0.00    +0.000 NA
ATOM     24  H   UNL     1       2.556   9.852  22.673  0.00  0.00    +0.000 HD
ATOM     25  H   UNL     1       1.395   9.770  23.925  0.00  0.00    +0.000 HD
ENDBRANCH  20  23
ENDBRANCH  18  20
ENDBRANCH   3  14
BRANCH   2  26
ATOM     26  N   UNL     1       2.668   4.587  21.071  0.00  0.00    +0.000 N 
ATOM     27  H   UNL     1       2.015   4.149  21.728  0.00  0.00    +0.000 HD
ATOM     28  H   UNL     1       3.408   3.873  20.974  0.00  0.00    +0.000 HD
ENDBRANCH   2  26
BRANCH   1  30
ATOM     29  N   UNL     1       0.305   2.127  18.638  0.00  0.00    +0.000 NA
ATOM     30  C   UNL     1       1.014   3.037  18.749  0.00  0.00    +0.000 C 
ENDBRANCH   1  30
TORSDOF 5
ENDMDL
MODEL 2
REMARK VINA RESULT:      -8.7      4.287      6.815
REMARK  Name = 
REMARK  5 active torsions:
REMARK  status: ('A' for Active; 'I' for Inactive)
REMARK    1  A    between atoms: C_2  and  C_3
REMARK    2  A    between atoms: C_4  and  N_5
REMARK    3  A    between atoms: N_6  and  C_7
REMARK    4  A    between atoms: C_11  and  S_12
REMARK    5  A    between atoms: S_12  and  N_13
REMARK                            x       y       z     vdW  Elec       q    Type
REMARK                         _______ _______ _______ _____ _____    ______ ____
ROOT
ATOM      1  C   UNL     1       2.339   4.352  20.377  0.00  0.00    +0.000 A 
ATOM      2  C   UNL     1       2.639   3.868  19.096  0.00  0.00    +0.000 A 
ATOM      3  N   UNL     1       3.469   4.893  18.627  0.00  0.00    +0.000 N 
ATOM      4  C   UNL     1       2.770   6.023  18.947  0.00  0.00    +0.000 A 
ATOM      5  N   UNL     1       2.774   7.183  18.265  0.00  0.00    +0.000 NA
ATOM      6  C   UNL     1       2.081   8.120  18.875  0.00  0.00    +0.000 A 
ATOM      7  C   UNL     1       1.987   9.316  18.190  0.00  0.00    +0.000 A 
ATOM      8  C   UNL     1       1.274  10.377  18.714  0.00  0.00    +0.000 A 
ATOM      9  C   UNL     1       0.653  10.230  19.945  0.00  0.00    +0.000 A 
ATOM     10  C   UNL     1       0.752   9.020  20.649  0.00  0.00    +0.000 A 
ATOM     11  C   UNL     1       1.456   7.923  20.145  0.00  0.00    +0.000 A 
ATOM     12  N   UNL     1       1.504   6.752  20.828  0.00  0.00    +0.000 NA
ATOM     13  C   UNL     1       2.149   5.754  20.165  0.00  0.00    +0.000 A 
ENDROOT
BRANCH   3  14
ATOM     14  C   UNL     1       4.830   4.853  18.219  0.00  0.00    +0.000 A 
ATOM     15  C   UNL     1       5.879   4.979  19.128  0.00  0.00    +0.000 A 
ATOM     16  C   UNL     1       7.198   5.021  18.664  0.00  0.00    +0.000 A 
ATOM     17  C   UNL     1       7.478   4.963  17.286  0.00  0.00    +0.000 A 
ATOM     18  C   UNL     1       6.429   4.844  16.383  0.00  0.00    +0.000 A 
ATOM     19  C   UNL     1       5.112   4.796  16.839  0.00  0.00    +0.000 A 
BRANCH  18  20
ATOM     20  S   UNL     1       6.738   4.830  14.645  0.00  0.00    +0.000 S 
ATOM     21  O   UNL     1       8.020   5.443  14.386  0.00  0.00    +0.000 OA
ATOM     22  O   UNL     1       6.391   3.541  14.112  0.00  0.00    +0.000 OA
BRANCH  20  23
ATOM     23  N   UNL     1       5.591   5.909  14.081  0.00  0.00    +0.000 NA
ATOM     24  H   UNL     1       4.983   6.215  14.829  0.00  0.00    +0.000 HD
ATOM     25  H   UNL     1       6.058   6.677  13.582  0.00  0.00    +0.000 HD
ENDBRANCH  20  23
ENDBRANCH  18  20
ENDBRANCH   3  14
BRANCH   2  26
ATOM     26  N   UNL     1       1.755   3.243  18.250  0.00  0.00    +0.000 N 
ATOM     27  H   UNL     1       2.070   3.113  17.284  0.00  0.00    +0.000 HD
ATOM     28  H   UNL     1       1.542   2.279  18.553  0.00  0.00    +0.000 HD
ENDBRANCH   2  26
BRANCH   1  30
ATOM     29  N   UNL     1       1.724   2.736  22.291  0.00  0.00    +0.000 NA
ATOM     30  C   UNL     1       1.993   3.513  21.475  0.00  0.00    +0.000 C 
ENDBRANCH   1  30
TORSDOF 5
ENDMDL
MODEL 3
REMARK VINA RESULT:      -8.3      3.583      5.684
REMARK  Name = 
REMARK  5 active torsions:
REMARK  status: ('A' for Active; 'I' for Inactive)
REMARK    1  A    between atoms: C_2  and  C_3
REMARK    2  A    between atoms: C_4  and  N_5
REMARK    3  A    between atoms: N_6  and  C_7
REMARK    4  A    between atoms: C_11  and  S_12
REMARK    5  A    between atoms: S_12  and  N_13
REMARK                            x       y       z     vdW  Elec       q    Type
REMARK                         _______ _______ _______ _____ _____    ______ ____
ROOT
ATOM      1  C   UNL     1       6.537   6.331  17.200  0.00  0.00    +0.000 A 
ATOM      2  C   UNL     1       5.166   6.331  17.488  0.00  0.00    +0.000 A 
ATOM      3  N   UNL     1       4.828   5.029  17.103  0.00  0.00    +0.000 N 
ATOM      4  C   UNL     1       5.419   4.909  15.877  0.00  0.00    +0.000 A 
ATOM      5  N   UNL     1       4.973   4.168  14.846  0.00  0.00    +0.000 NA
ATOM      6  C   UNL     1       5.812   4.174  13.832  0.00  0.00    +0.000 A 
ATOM      7  C   UNL     1       5.379   3.488  12.713  0.00  0.00    +0.000 A 
ATOM      8  C   UNL     1       6.159   3.431  11.574  0.00  0.00    +0.000 A 
ATOM      9  C   UNL     1       7.391   4.068  11.566  0.00  0.00    +0.000 A 
ATOM     10  C   UNL     1       7.840   4.758  12.703  0.00  0.00    +0.000 A 
ATOM     11  C   UNL     1       7.073   4.846  13.869  0.00  0.00    +0.000 A 
ATOM     12  N   UNL     1       7.512   5.552  14.940  0.00  0.00    +0.000 NA
ATOM     13  C   UNL     1       6.615   5.619  15.962  0.00  0.00    +0.000 A 
ENDROOT
BRANCH   3  14
ATOM     14  C   UNL     1       4.297   3.956  17.872  0.00  0.00    +0.000 A 
ATOM     15  C   UNL     1       4.376   2.632  17.447  0.00  0.00    +0.000 A 
ATOM     16  C   UNL     1       3.761   1.624  18.198  0.00  0.00    +0.000 A 
ATOM     17  C   UNL     1       3.040   1.936  19.365  0.00  0.00    +0.000 A 
ATOM     18  C   UNL     1       2.958   3.259  19.781  0.00  0.00    +0.000 A 
ATOM     19  C   UNL     1       3.573   4.268  19.041  0.00  0.00    +0.000 A 
BRANCH  18  20
ATOM     20  S   UNL     1       2.012   3.694  21.207  0.00  0.00    +0.000 S 
ATOM     21  O   UNL     1       2.450   2.896  22.329  0.00  0.00    +0.000 OA
ATOM     22  O   UNL     1       1.906   5.125  21.288  0.00  0.00    +0.000 OA
BRANCH  20  23
ATOM     23  N   UNL     1       0.493   3.121  20.802  0.00  0.00    +0.000 NA
ATOM     24  H   UNL     1       0.403   3.011  19.801  0.00  0.00    +0.000 HD
ATOM     25  H   UNL     1       0.295   2.265  21.335  0.00  0.00    +0.000 HD
ENDBRANCH  20  23
ENDBRANCH  18  20
ENDBRANCH   3  14
BRANCH   2  26
ATOM     26  N   UNL     1       4.301   7.374  17.261  0.00  0.00    +0.000 N 
ATOM     27  H   UNL     1       3.315   7.123  17.135  0.00  0.00    +0.000 HD
ATOM     28  H   UNL     1       4.269   8.034  18.054  0.00  0.00    +0.000 HD
ENDBRANCH   2  26
BRANCH   1  30
ATOM     29  N   UNL     1       8.231   7.926  18.315  0.00  0.00    +0.000 NA
ATOM     30  C   UNL     1       7.482   7.166  17.863  0.00  0.00    +0.000 C 
ENDBRANCH   1  30
TORSDOF 5
ENDMDL
MODEL 4
REMARK VINA RESULT:      -8.3      3.714      6.379
REMARK  Name = 
REMARK  5 active torsions:
REMARK  status: ('A' for Active; 'I' for Inactive)
REMARK    1  A    between atoms: C_2  and  C_3
REMARK    2  A    between atoms: C_4  and  N_5
REMARK    3  A    between atoms: N_6  and  C_7
REMARK    4  A    between atoms: C_11  and  S_12
REMARK    5  A    between atoms: S_12  and  N_13
REMARK                            x       y       z     vdW  Elec       q    Type
REMARK                         _______ _______ _______ _____ _____    ______ ____
ROOT
ATOM      1  C   UNL     1       2.046   4.344  20.287  0.00  0.00    +0.000 A 
ATOM      2  C   UNL     1       2.052   3.900  18.958  0.00  0.00    +0.000 A 
ATOM      3  N   UNL     1       2.857   4.880  18.368  0.00  0.00    +0.000 N 
ATOM      4  C   UNL     1       2.329   6.044  18.854  0.00  0.00    +0.000 A 
ATOM      5  N   UNL     1       2.298   7.231  18.221  0.00  0.00    +0.000 NA
ATOM      6  C   UNL     1       1.816   8.187  18.985  0.00  0.00    +0.000 A 
ATOM      7  C   UNL     1       1.691   9.419  18.369  0.00  0.00    +0.000 A 
ATOM      8  C   UNL     1       1.183  10.504  19.057  0.00  0.00    +0.000 A 
ATOM      9  C   UNL     1       0.801  10.346  20.380  0.00  0.00    +0.000 A 
ATOM     10  C   UNL     1       0.933   9.100  21.013  0.00  0.00    +0.000 A 
ATOM     11  C   UNL     1       1.433   7.978  20.346  0.00  0.00    +0.000 A 
ATOM     12  N   UNL     1       1.515   6.776  20.968  0.00  0.00    +0.000 NA
ATOM     13  C   UNL     1       1.935   5.764  20.161  0.00  0.00    +0.000 A 
ENDROOT
BRANCH   3  14
ATOM     14  C   UNL     1       4.107   4.758  17.700  0.00  0.00    +0.000 A 
ATOM     15  C   UNL     1       4.224   4.134  16.459  0.00  0.00    +0.000 A 
ATOM     16  C   UNL     1       5.489   3.962  15.886  0.00  0.00    +0.000 A 
ATOM     17  C   UNL     1       6.648   4.390  16.560  0.00  0.00    +0.000 A 
ATOM     18  C   UNL     1       6.527   5.005  17.799  0.00  0.00    +0.000 A 
ATOM     19  C   UNL     1       5.269   5.185  18.374  0.00  0.00    +0.000 A 
BRANCH  18  20
ATOM     20  S   UNL     1       7.962   5.499  18.700  0.00  0.00    +0.000 S 
ATOM     21  O   UNL     1       8.981   4.484  18.564  0.00  0.00    +0.000 OA
ATOM     22  O   UNL     1       8.233   6.886  18.439  0.00  0.00    +0.000 OA
BRANCH  20  23
ATOM     23  N   UNL     1       7.427   5.403  20.283  0.00  0.00    +0.000 NA
ATOM     24  H   UNL     1       8.023   5.938  20.900  0.00  0.00    +0.000 HD
ATOM     25  H   UNL     1       6.435   5.671  20.327  0.00  0.00    +0.000 HD
ENDBRANCH  20  23
ENDBRANCH  18  20
ENDBRANCH   3  14
BRANCH   2  26
ATOM     26  N   UNL     1       0.973   3.384  18.282  0.00  0.00    +0.000 N 
ATOM     27  H   UNL     1       0.510   4.015  17.621  0.00  0.00    +0.000 HD
ATOM     28  H   UNL     1       1.233   2.581  17.687  0.00  0.00    +0.000 HD
ENDBRANCH   2  26
BRANCH   1  30
ATOM     29  N   UNL     1       1.691   2.689  22.234  0.00  0.00    +0.000 NA
ATOM     30  C   UNL     1       1.850   3.482  21.404  0.00  0.00    +0.000 C 
ENDBRANCH   1  30
TORSDOF 5
ENDMDL
MODEL 5
REMARK VINA RESULT:      -7.9      3.539      5.627
REMARK  Name = 
REMARK  5 active torsions:
REMARK  status: ('A' for Active; 'I' for Inactive)
REMARK    1  A    between atoms: C_2  and  C_3
REMARK    2  A    between atoms: C_4  and  N_5
REMARK    3  A    between atoms: N_6  and  C_7
REMARK    4  A    between atoms: C_11  and  S_12
REMARK    5  A    between atoms: S_12  and  N_13
REMARK                            x       y       z     vdW  Elec       q    Type
REMARK                         _______ _______ _______ _____ _____    ______ ____
ROOT
ATOM      1  C   UNL     1       6.582   6.749  17.246  0.00  0.00    +0.000 A 
ATOM      2  C   UNL     1       5.239   6.748  17.644  0.00  0.00    +0.000 A 
ATOM      3  N   UNL     1       4.919   5.399  17.450  0.00  0.00    +0.000 N 
ATOM      4  C   UNL     1       5.418   5.142  16.204  0.00  0.00    +0.000 A 
ATOM      5  N   UNL     1       4.920   4.267  15.311  0.00  0.00    +0.000 NA
ATOM      6  C   UNL     1       5.676   4.168  14.239  0.00  0.00    +0.000 A 
ATOM      7  C   UNL     1       5.183   3.337  13.251  0.00  0.00    +0.000 A 
ATOM      8  C   UNL     1       5.873   3.159  12.068  0.00  0.00    +0.000 A 
ATOM      9  C   UNL     1       7.076   3.822  11.881  0.00  0.00    +0.000 A 
ATOM     10  C   UNL     1       7.587   4.661  12.884  0.00  0.00    +0.000 A 
ATOM     11  C   UNL     1       6.911   4.873  14.090  0.00  0.00    +0.000 A 
ATOM     12  N   UNL     1       7.406   5.719  15.027  0.00  0.00    +0.000 NA
ATOM     13  C   UNL     1       6.589   5.889  16.103  0.00  0.00    +0.000 A 
ENDROOT
BRANCH   3  14
ATOM     14  C   UNL     1       4.490   4.417  18.385  0.00  0.00    +0.000 A 
ATOM     15  C   UNL     1       5.324   3.386  18.811  0.00  0.00    +0.000 A 
ATOM     16  C   UNL     1       4.824   2.396  19.664  0.00  0.00    +0.000 A 
ATOM     17  C   UNL     1       3.480   2.416  20.079  0.00  0.00    +0.000 A 
ATOM     18  C   UNL     1       2.650   3.442  19.646  0.00  0.00    +0.000 A 
ATOM     19  C   UNL     1       3.143   4.435  18.800  0.00  0.00    +0.000 A 
BRANCH  18  20
ATOM     20  S   UNL     1       0.943   3.466  20.097  0.00  0.00    +0.000 S 
ATOM     21  O   UNL     1       0.549   4.825  20.390  0.00  0.00    +0.000 OA
ATOM     22  O   UNL     1       0.200   2.640  19.186  0.00  0.00    +0.000 OA
BRANCH  20  23
ATOM     23  N   UNL     1       0.963   2.666  21.567  0.00  0.00    +0.000 NA
ATOM     24  H   UNL     1       1.672   1.946  21.577  0.00  0.00    +0.000 HD
ATOM     25  H   UNL     1       1.052   3.351  22.329  0.00  0.00    +0.000 HD
ENDBRANCH  20  23
ENDBRANCH  18  20
ENDBRANCH   3  14
BRANCH   2  26
ATOM     26  N   UNL     1       4.320   7.730  17.362  0.00  0.00    +0.000 N 
ATOM     27  H   UNL     1       3.444   7.694  17.891  0.00  0.00    +0.000 HD
ATOM     28  H   UNL     1       4.680   8.673  17.580  0.00  0.00    +0.000 HD
ENDBRANCH   2  26
BRANCH   1  30
ATOM     29  N   UNL     1       8.252   8.533  18.070  0.00  0.00    +0.000 NA
ATOM     30  C   UNL     1       7.544   7.684  17.722  0.00  0.00    +0.000 C 
ENDBRANCH   1  30
TORSDOF 5
ENDMDL
MODEL 6
REMARK VINA RESULT:      -7.7      3.370      6.257
REMARK  Name = 
REMARK  5 active torsions:
REMARK  status: ('A' for Active; 'I' for Inactive)
REMARK    1  A    between atoms: C_2  and  C_3
REMARK    2  A    between atoms: C_4  and  N_5
REMARK    3  A    between atoms: N_6  and  C_7
REMARK    4  A    between atoms: C_11  and  S_12
REMARK    5  A    between atoms: S_12  and  N_13
REMARK                            x       y       z     vdW  Elec       q    Type
REMARK                         _______ _______ _______ _____ _____    ______ ____
ROOT
ATOM      1  C   UNL     1       2.204   4.527  20.193  0.00  0.00    +0.000 A 
ATOM      2  C   UNL     1       2.170   4.114  18.854  0.00  0.00    +0.000 A 
ATOM      3  N   UNL     1       2.900   5.145  18.253  0.00  0.00    +0.000 N 
ATOM      4  C   UNL     1       2.340   6.270  18.790  0.00  0.00    +0.000 A 
ATOM      5  N   UNL     1       2.223   7.468  18.189  0.00  0.00    +0.000 NA
ATOM      6  C   UNL     1       1.731   8.383  18.996  0.00  0.00    +0.000 A 
ATOM      7  C   UNL     1       1.520   9.620  18.417  0.00  0.00    +0.000 A 
ATOM      8  C   UNL     1       0.992  10.663  19.153  0.00  0.00    +0.000 A 
ATOM      9  C   UNL     1       0.679  10.458  20.488  0.00  0.00    +0.000 A 
ATOM     10  C   UNL     1       0.900   9.206  21.084  0.00  0.00    +0.000 A 
ATOM     11  C   UNL     1       1.422   8.125  20.368  0.00  0.00    +0.000 A 
ATOM     12  N   UNL     1       1.589   6.915  20.956  0.00  0.00    +0.000 NA
ATOM     13  C   UNL     1       2.020   5.943  20.106  0.00  0.00    +0.000 A 
ENDROOT
BRANCH   3  14
ATOM     14  C   UNL     1       4.122   5.099  17.526  0.00  0.00    +0.000 A 
ATOM     15  C   UNL     1       4.453   4.023  16.704  0.00  0.00    +0.000 A 
ATOM     16  C   UNL     1       5.705   3.987  16.081  0.00  0.00    +0.000 A 
ATOM     17  C   UNL     1       6.645   5.012  16.295  0.00  0.00    +0.000 A 
ATOM     18  C   UNL     1       6.313   6.078  17.120  0.00  0.00    +0.000 A 
ATOM     19  C   UNL     1       5.065   6.124  17.740  0.00  0.00    +0.000 A 
BRANCH  18  20
ATOM     20  S   UNL     1       7.489   7.351  17.459  0.00  0.00    +0.000 S 
ATOM     21  O   UNL     1       8.511   7.337  16.438  0.00  0.00    +0.000 OA
ATOM     22  O   UNL     1       6.794   8.555  17.821  0.00  0.00    +0.000 OA
BRANCH  20  23
ATOM     23  N   UNL     1       8.223   6.781  18.851  0.00  0.00    +0.000 NA
ATOM     24  H   UNL     1       8.542   7.546  19.430  0.00  0.00    +0.000 HD
ATOM     25  H   UNL     1       7.589   6.130  19.332  0.00  0.00    +0.000 HD
ENDBRANCH  20  23
ENDBRANCH  18  20
ENDBRANCH   3  14
BRANCH   2  26
ATOM     26  N   UNL     1       1.087   3.561  18.215  0.00  0.00    +0.000 N 
ATOM     27  H   UNL     1       1.204   2.601  17.877  0.00  0.00    +0.000 HD
ATOM     28  H   UNL     1       0.265   3.485  18.836  0.00  0.00    +0.000 HD
ENDBRANCH   2  26
BRANCH   1  30
ATOM     29  N   UNL     1       1.907   2.874  22.151  0.00  0.00    +0.000 NA
ATOM     30  C   UNL     1       2.101   3.633  21.296  0.00  0.00    +0.000 C 
ENDBRANCH   1  30
TORSDOF 5
ENDMDL
MODEL 7
REMARK VINA RESULT:      -7.6      1.973      2.354
REMARK  Name = 
REMARK  5 active torsions:
REMARK  status: ('A' for Active; 'I' for Inactive)
REMARK    1  A    between atoms: C_2  and  C_3
REMARK    2  A    between atoms: C_4  and  N_5
REMARK    3  A    between atoms: N_6  and  C_7
REMARK    4  A    between atoms: C_11  and  S_12
REMARK    5  A    between atoms: S_12  and  N_13
REMARK                            x       y       z     vdW  Elec       q    Type
REMARK                         _______ _______ _______ _____ _____    ______ ____
ROOT
ATOM      1  C   UNL     1       1.730   3.844  19.193  0.00  0.00    +0.000 A 
ATOM      2  C   UNL     1       1.827   4.391  20.480  0.00  0.00    +0.000 A 
ATOM      3  N   UNL     1       2.317   5.666  20.176  0.00  0.00    +0.000 N 
ATOM      4  C   UNL     1       3.336   5.403  19.305  0.00  0.00    +0.000 A 
ATOM      5  N   UNL     1       4.465   6.121  19.159  0.00  0.00    +0.000 NA
ATOM      6  C   UNL     1       5.211   5.677  18.170  0.00  0.00    +0.000 A 
ATOM      7  C   UNL     1       6.419   6.328  18.012  0.00  0.00    +0.000 A 
ATOM      8  C   UNL     1       7.302   5.948  17.020  0.00  0.00    +0.000 A 
ATOM      9  C   UNL     1       6.960   4.904  16.174  0.00  0.00    +0.000 A 
ATOM     10  C   UNL     1       5.730   4.245  16.324  0.00  0.00    +0.000 A 
ATOM     11  C   UNL     1       4.816   4.594  17.323  0.00  0.00    +0.000 A 
ATOM     12  N   UNL     1       3.652   3.916  17.471  0.00  0.00    +0.000 NA
ATOM     13  C   UNL     1       2.913   4.316  18.543  0.00  0.00    +0.000 A 
ENDROOT
BRANCH   3  14
ATOM     14  C   UNL     1       1.745   6.946  20.415  0.00  0.00    +0.000 A 
ATOM     15  C   UNL     1       0.970   7.212  21.542  0.00  0.00    +0.000 A 
ATOM     16  C   UNL     1       0.359   8.462  21.685  0.00  0.00    +0.000 A 
ATOM     17  C   UNL     1       0.496   9.447  20.689  0.00  0.00    +0.000 A 
ATOM     18  C   UNL     1       1.263   9.175  19.564  0.00  0.00    +0.000 A 
ATOM     19  C   UNL     1       1.880   7.933  19.418  0.00  0.00    +0.000 A 
BRANCH  18  20
ATOM     20  S   UNL     1       1.407  10.364  18.267  0.00  0.00    +0.000 S 
ATOM     21  O   UNL     1       1.670  11.664  18.842  0.00  0.00    +0.000 OA
ATOM     22  O   UNL     1       2.219   9.822  17.213  0.00  0.00    +0.000 OA
BRANCH  20  23
ATOM     23  N   UNL     1      -0.160  10.430  17.682  0.00  0.00    +0.000 NA
ATOM     24  H   UNL     1      -0.183  10.240  16.690  0.00  0.00    +0.000 HD
ATOM     25  H   UNL     1      -0.761   9.810  18.240  0.00  0.00    +0.000 HD
ENDBRANCH  20  23
ENDBRANCH  18  20
ENDBRANCH   3  14
BRANCH   2  26
ATOM     26  N   UNL     1       2.262   3.725  21.600  0.00  0.00    +0.000 N 
ATOM     27  H   UNL     1       3.010   4.178  22.133  0.00  0.00    +0.000 HD
ATOM     28  H   UNL     1       1.513   3.616  22.303  0.00  0.00    +0.000 HD
ENDBRANCH   2  26
BRANCH   1  30
ATOM     29  N   UNL     1       0.170   1.897  18.538  0.00  0.00    +0.000 NA
ATOM     30  C   UNL     1       0.816   2.809  18.844  0.00  0.00    +0.000 C 
ENDBRANCH   1  30
TORSDOF 5
ENDMDL
MODEL 8
REMARK VINA RESULT:      -7.6      4.834      7.426
REMARK  Name = 
REMARK  5 active torsions:
REMARK  status: ('A' for Active; 'I' for Inactive)
REMARK    1  A    between atoms: C_2  and  C_3
REMARK    2  A    between atoms: C_4  and  N_5
REMARK    3  A    between atoms: N_6  and  C_7
REMARK    4  A    between atoms: C_11  and  S_12
REMARK    5  A    between atoms: S_12  and  N_13
REMARK                            x       y       z     vdW  Elec       q    Type
REMARK                         _______ _______ _______ _____ _____    ______ ____
ROOT
ATOM      1  C   UNL     1       4.118   3.180  19.219  0.00  0.00    +0.000 A 
ATOM      2  C   UNL     1       3.945   2.767  17.891  0.00  0.00    +0.000 A 
ATOM      3  N   UNL     1       4.323   3.931  17.213  0.00  0.00    +0.000 N 
ATOM      4  C   UNL     1       3.634   4.908  17.876  0.00  0.00    +0.000 A 
ATOM      5  N   UNL     1       3.161   6.050  17.344  0.00  0.00    +0.000 NA
ATOM      6  C   UNL     1       2.630   6.838  18.254  0.00  0.00    +0.000 A 
ATOM      7  C   UNL     1       2.062   7.998  17.763  0.00  0.00    +0.000 A 
ATOM      8  C   UNL     1       1.456   8.903  18.613  0.00  0.00    +0.000 A 
ATOM      9  C   UNL     1       1.428   8.637  19.973  0.00  0.00    +0.000 A 
ATOM     10  C   UNL     1       2.011   7.465  20.479  0.00  0.00    +0.000 A 
ATOM     11  C   UNL     1       2.623   6.522  19.649  0.00  0.00    +0.000 A 
ATOM     12  N   UNL     1       3.144   5.378  20.158  0.00  0.00    +0.000 NA
ATOM     13  C   UNL     1       3.622   4.522  19.214  0.00  0.00    +0.000 A 
ENDROOT
BRANCH   3  14
ATOM     14  C   UNL     1       5.383   4.150  16.291  0.00  0.00    +0.000 A 
ATOM     15  C   UNL     1       6.551   4.819  16.652  0.00  0.00    +0.000 A 
ATOM     16  C   UNL     1       7.526   5.085  15.684  0.00  0.00    +0.000 A 
ATOM     17  C   UNL     1       7.330   4.707  14.343  0.00  0.00    +0.000 A 
ATOM     18  C   UNL     1       6.161   4.046  13.987  0.00  0.00    +0.000 A 
ATOM     19  C   UNL     1       5.188   3.772  14.947  0.00  0.00    +0.000 A 
BRANCH  18  20
ATOM     20  S   UNL     1       5.855   3.610  12.303  0.00  0.00    +0.000 S 
ATOM     21  O   UNL     1       4.433   3.661  12.052  0.00  0.00    +0.000 OA
ATOM     22  O   UNL     1       6.799   4.285  11.458  0.00  0.00    +0.000 OA
BRANCH  20  23
ATOM     23  N   UNL     1       6.266   1.988  12.286  0.00  0.00    +0.000 NA
ATOM     24  H   UNL     1       7.268   1.869  12.347  0.00  0.00    +0.000 HD
ATOM     25  H   UNL     1       5.742   1.493  13.019  0.00  0.00    +0.000 HD
ENDBRANCH  20  23
ENDBRANCH  18  20
ENDBRANCH   3  14
BRANCH   2  26
ATOM     26  N   UNL     1       2.913   1.989  17.423  0.00  0.00    +0.000 N 
ATOM     27  H   UNL     1       2.262   1.632  18.129  0.00  0.00    +0.000 HD
ATOM     28  H   UNL     1       2.293   2.510  16.782  0.00  0.00    +0.000 HD
ENDBRANCH   2  26
BRANCH   1  30
ATOM     29  N   UNL     1       4.736   1.617  21.175  0.00  0.00    +0.000 NA
ATOM     30  C   UNL     1       4.400   2.287  20.292  0.00  0.00    +0.000 C 
ENDBRANCH   1  30
TORSDOF 5
ENDMDL
MODEL 9
REMARK VINA RESULT:      -7.2      3.562      6.469
REMARK  Name = 
REMARK  5 active torsions:
REMARK  status: ('A' for Active; 'I' for Inactive)
REMARK    1  A    between atoms: C_2  and  C_3
REMARK    2  A    between atoms: C_4  and  N_5
REMARK    3  A    between atoms: N_6  and  C_7
REMARK    4  A    between atoms: C_11  and  S_12
REMARK    5  A    between atoms: S_12  and  N_13
REMARK                            x       y       z     vdW  Elec       q    Type
REMARK                         _______ _______ _______ _____ _____    ______ ____
ROOT
ATOM      1  C   UNL     1       2.020   4.893  20.359  0.00  0.00    +0.000 A 
ATOM      2  C   UNL     1       2.085   4.645  18.981  0.00  0.00    +0.000 A 
ATOM      3  N   UNL     1       2.770   5.787  18.551  0.00  0.00    +0.000 N 
ATOM      4  C   UNL     1       2.103   6.799  19.184  0.00  0.00    +0.000 A 
ATOM      5  N   UNL     1       1.932   8.052  18.722  0.00  0.00    +0.000 NA
ATOM      6  C   UNL     1       1.335   8.827  19.601  0.00  0.00    +0.000 A 
ATOM      7  C   UNL     1       1.067  10.109  19.162  0.00  0.00    +0.000 A 
ATOM      8  C   UNL     1       0.428  11.018  19.983  0.00  0.00    +0.000 A 
ATOM      9  C   UNL     1       0.062  10.631  21.263  0.00  0.00    +0.000 A 
ATOM     10  C   UNL     1       0.340   9.333  21.718  0.00  0.00    +0.000 A 
ATOM     11  C   UNL     1       0.975   8.383  20.912  0.00  0.00    +0.000 A 
ATOM     12  N   UNL     1       1.197   7.124  21.362  0.00  0.00    +0.000 NA
ATOM     13  C   UNL     1       1.740   6.293  20.430  0.00  0.00    +0.000 A 
ENDROOT
BRANCH   3  14
ATOM     14  C   UNL     1       4.028   5.909  17.899  0.00  0.00    +0.000 A 
ATOM     15  C   UNL     1       4.139   5.965  16.511  0.00  0.00    +0.000 A 
ATOM     16  C   UNL     1       5.406   5.996  15.918  0.00  0.00    +0.000 A 
ATOM     17  C   UNL     1       6.571   5.946  16.705  0.00  0.00    +0.000 A 
ATOM     18  C   UNL     1       6.454   5.883  18.088  0.00  0.00    +0.000 A 
ATOM     19  C   UNL     1       5.195   5.857  18.687  0.00  0.00    +0.000 A 
BRANCH  18  20
ATOM     20  S   UNL     1       7.892   5.758  19.105  0.00  0.00    +0.000 S 
ATOM     21  O   UNL     1       8.709   6.935  18.920  0.00  0.00    +0.000 OA
ATOM     22  O   UNL     1       7.512   5.296  20.411  0.00  0.00    +0.000 OA
BRANCH  20  23
ATOM     23  N   UNL     1       8.724   4.503  18.374  0.00  0.00    +0.000 NA
ATOM     24  H   UNL     1       8.503   3.619  18.812  0.00  0.00    +0.000 HD
ATOM     25  H   UNL     1       8.551   4.521  17.360  0.00  0.00    +0.000 HD
ENDBRANCH  20  23
ENDBRANCH  18  20
ENDBRANCH   3  14
BRANCH   2  26
ATOM     26  N   UNL     1       1.079   4.105  18.217  0.00  0.00    +0.000 N 
ATOM     27  H   UNL     1       0.221   4.660  18.143  0.00  0.00    +0.000 HD
ATOM     28  H   UNL     1       1.360   3.987  17.230  0.00  0.00    +0.000 HD
ENDBRANCH   2  26
BRANCH   1  30
ATOM     29  N   UNL     1       1.954   2.989  22.098  0.00  0.00    +0.000 NA
ATOM     30  C   UNL     1       1.924   3.865  21.340  0.00  0.00    +0.000 C 
ENDBRANCH   1  30
TORSDOF 5
ENDMDL
