MODEL 1
REMARK VINA RESULT:      -7.2      0.000      0.000
REMARK  Name = 
REMARK  5 active torsions:
REMARK  status: ('A' for Active; 'I' for Inactive)
REMARK    1  A    between atoms: S_2  and  C_4
REMARK    2  A    between atoms: S_2  and  N_10
REMARK    3  A    between atoms: N_10  and  C_11
REMARK    4  A    between atoms: N_10  and  C_18
REMARK    5  A    between atoms: C_11  and  C_12
REMARK                            x       y       z     vdW  Elec       q    Type
REMARK                         _______ _______ _______ _____ _____    ______ ____
ROOT
ATOM      1  N   UNL     1      -0.226  10.666  19.335  0.00  0.00    +0.000 N 
ENDROOT
BRANCH   1   2
ATOM      2  C   UNL     1       0.848   9.706  19.143  0.00  0.00    +0.000 A 
ATOM      3  S   UNL     1       1.896   9.638  17.801  0.00  0.00    +0.000 S 
ATOM      4  C   UNL     1       2.602   8.147  18.322  0.00  0.00    +0.000 A 
ATOM      5  C   UNL     1       3.658   7.433  17.717  0.00  0.00    +0.000 A 
ATOM      6  C   UNL     1       3.987   6.162  18.202  0.00  0.00    +0.000 A 
ATOM      7  C   UNL     1       3.270   5.601  19.248  0.00  0.00    +0.000 A 
ATOM      8  C   UNL     1       2.283   6.347  19.897  0.00  0.00    +0.000 A 
ATOM      9  C   UNL     1       1.962   7.663  19.468  0.00  0.00    +0.000 A 
ATOM     10  C   UNL     1       1.101   8.671  20.014  0.00  0.00    +0.000 A 
ATOM     11 BR   UNL     1       0.396   8.504  21.768  0.00  0.00    +0.000 Br
ENDBRANCH   1   2
BRANCH   1  13
ATOM     12  O   UNL     1       0.456  13.156  19.279  0.00  0.00    +0.000 OA
ATOM     13  S   UNL     1       0.319  12.057  20.214  0.00  0.00    +0.000 S 
ATOM     14  O   UNL     1       1.399  11.680  21.105  0.00  0.00    +0.000 OA
BRANCH  13  15
ATOM     15  C   UNL     1      -1.106  12.403  21.245  0.00  0.00    +0.000 A 
ATOM     16  C   UNL     1      -1.183  11.799  22.504  0.00  0.00    +0.000 A 
ATOM     17  C   UNL     1      -2.363  11.908  23.243  0.00  0.00    +0.000 A 
ATOM     18  C   UNL     1      -3.448  12.624  22.725  0.00  0.00    +0.000 A 
ATOM     19  C   UNL     1      -3.346  13.268  21.494  0.00  0.00    +0.000 A 
ATOM     20  C   UNL     1      -2.163  13.164  20.750  0.00  0.00    +0.000 A 
ENDBRANCH  13  15
ENDBRANCH   1  13
BRANCH   1  21
ATOM     21  C   UNL     1      -1.038  11.030  18.122  0.00  0.00    +0.000 C 
BRANCH  21  22
ATOM     22  C   UNL     1      -2.197  10.034  17.872  0.00  0.00    +0.000 C 
ATOM     23  C   UNL     1      -3.548  10.485  18.455  0.00  0.00    +0.000 C 
ATOM     24  C   UNL     1      -4.183  11.640  17.692  0.00  0.00    +0.000 C 
ATOM     25  C   UNL     1      -4.353  11.314  16.219  0.00  0.00    +0.000 C 
ATOM     26  C   UNL     1      -3.027  10.895  15.591  0.00  0.00    +0.000 C 
ATOM     27  C   UNL     1      -2.363   9.752  16.364  0.00  0.00    +0.000 C 
ENDBRANCH  21  22
ENDBRANCH   1  21
TORSDOF 5
ENDMDL
MODEL 2
REMARK VINA RESULT:      -7.2      0.955      1.054
REMARK  Name = 
REMARK  5 active torsions:
REMARK  status: ('A' for Active; 'I' for Inactive)
REMARK    1  A    between atoms: S_2  and  C_4
REMARK    2  A    between atoms: S_2  and  N_10
REMARK    3  A    between atoms: N_10  and  C_11
REMARK    4  A    between atoms: N_10  and  C_18
REMARK    5  A    between atoms: C_11  and  C_12
REMARK                            x       y       z     vdW  Elec       q    Type
REMARK                         _______ _______ _______ _____ _____    ______ ____
ROOT
ATOM      1  N   UNL     1      -0.440  11.195  19.693  0.00  0.00    +0.000 N 
ENDROOT
BRANCH   1   2
ATOM      2  C   UNL     1       0.547  10.148  19.493  0.00  0.00    +0.000 A 
ATOM      3  S   UNL     1       1.476   9.909  18.085  0.00  0.00    +0.000 S 
ATOM      4  C   UNL     1       2.119   8.410  18.661  0.00  0.00    +0.000 A 
ATOM      5  C   UNL     1       3.072   7.580  18.032  0.00  0.00    +0.000 A 
ATOM      6  C   UNL     1       3.351   6.325  18.586  0.00  0.00    +0.000 A 
ATOM      7  C   UNL     1       2.685   5.893  19.722  0.00  0.00    +0.000 A 
ATOM      8  C   UNL     1       1.807   6.753  20.386  0.00  0.00    +0.000 A 
ATOM      9  C   UNL     1       1.543   8.056  19.885  0.00  0.00    +0.000 A 
ATOM     10  C   UNL     1       0.800   9.160  20.418  0.00  0.00    +0.000 A 
ATOM     11 BR   UNL     1       0.230   9.168  22.228  0.00  0.00    +0.000 Br
ENDBRANCH   1   2
BRANCH   1  13
ATOM     12  O   UNL     1       0.100  13.708  19.445  0.00  0.00    +0.000 OA
ATOM     13  S   UNL     1       0.277  12.616  20.382  0.00  0.00    +0.000 S 
ATOM     14  O   UNL     1       1.578  12.290  20.930  0.00  0.00    +0.000 OA
BRANCH  13  15
ATOM     15  C   UNL     1      -0.811  12.920  21.773  0.00  0.00    +0.000 A 
ATOM     16  C   UNL     1      -1.986  12.168  21.880  0.00  0.00    +0.000 A 
ATOM     17  C   UNL     1      -2.931  12.513  22.848  0.00  0.00    +0.000 A 
ATOM     18  C   UNL     1      -2.693  13.594  23.704  0.00  0.00    +0.000 A 
ATOM     19  C   UNL     1      -1.498  14.305  23.627  0.00  0.00    +0.000 A 
ATOM     20  C   UNL     1      -0.545  13.961  22.659  0.00  0.00    +0.000 A 
ENDBRANCH  13  15
ENDBRANCH   1  13
BRANCH   1  21
ATOM     21  C   UNL     1      -1.345  11.507  18.533  0.00  0.00    +0.000 C 
BRANCH  21  22
ATOM     22  C   UNL     1      -2.351  10.364  18.250  0.00  0.00    +0.000 C 
ATOM     23  C   UNL     1      -3.827  10.786  18.361  0.00  0.00    +0.000 C 
ATOM     24  C   UNL     1      -4.292  11.674  17.214  0.00  0.00    +0.000 C 
ATOM     25  C   UNL     1      -4.054  11.020  15.865  0.00  0.00    +0.000 C 
ATOM     26  C   UNL     1      -2.592  10.617  15.699  0.00  0.00    +0.000 C 
ATOM     27  C   UNL     1      -2.102   9.745  16.859  0.00  0.00    +0.000 C 
ENDBRANCH  21  22
ENDBRANCH   1  21
TORSDOF 5
ENDMDL
MODEL 3
REMARK VINA RESULT:      -6.8      2.288      6.400
REMARK  Name = 
REMARK  5 active torsions:
REMARK  status: ('A' for Active; 'I' for Inactive)
REMARK    1  A    between atoms: S_2  and  C_4
REMARK    2  A    between atoms: S_2  and  N_10
REMARK    3  A    between atoms: N_10  and  C_11
REMARK    4  A    between atoms: N_10  and  C_18
REMARK    5  A    between atoms: C_11  and  C_12
REMARK                            x       y       z     vdW  Elec       q    Type
REMARK                         _______ _______ _______ _____ _____    ______ ____
ROOT
ATOM      1  N   UNL     1      -0.076  10.485  20.371  0.00  0.00    +0.000 N 
ENDROOT
BRANCH   1   2
ATOM      2  C   UNL     1      -0.191  11.650  21.232  0.00  0.00    +0.000 A 
ATOM      3  S   UNL     1      -1.243  11.807  22.563  0.00  0.00    +0.000 S 
ATOM      4  C   UNL     1      -0.861  13.481  22.775  0.00  0.00    +0.000 A 
ATOM      5  C   UNL     1      -1.328  14.353  23.782  0.00  0.00    +0.000 A 
ATOM      6  C   UNL     1      -1.026  15.716  23.695  0.00  0.00    +0.000 A 
ATOM      7  C   UNL     1      -0.297  16.208  22.623  0.00  0.00    +0.000 A 
ATOM      8  C   UNL     1       0.234  15.329  21.677  0.00  0.00    +0.000 A 
ATOM      9  C   UNL     1      -0.004  13.931  21.765  0.00  0.00    +0.000 A 
ATOM     10  C   UNL     1       0.507  12.818  21.020  0.00  0.00    +0.000 A 
ATOM     11 BR   UNL     1       1.988  13.025  19.852  0.00  0.00    +0.000 Br
ENDBRANCH   1   2
BRANCH   1  13
ATOM     12  O   UNL     1      -0.450   8.265  21.636  0.00  0.00    +0.000 OA
ATOM     13  S   UNL     1       0.624   9.142  21.215  0.00  0.00    +0.000 S 
ATOM     14  O   UNL     1       1.624   9.620  22.149  0.00  0.00    +0.000 OA
BRANCH  13  15
ATOM     15  C   UNL     1       1.505   8.315  19.891  0.00  0.00    +0.000 A 
ATOM     16  C   UNL     1       2.006   7.029  20.122  0.00  0.00    +0.000 A 
ATOM     17  C   UNL     1       2.847   6.444  19.173  0.00  0.00    +0.000 A 
ATOM     18  C   UNL     1       3.173   7.140  18.004  0.00  0.00    +0.000 A 
ATOM     19  C   UNL     1       2.628   8.397  17.755  0.00  0.00    +0.000 A 
ATOM     20  C   UNL     1       1.780   8.988  18.702  0.00  0.00    +0.000 A 
ENDBRANCH  13  15
ENDBRANCH   1  13
BRANCH   1  21
ATOM     21  C   UNL     1      -1.298  10.100  19.583  0.00  0.00    +0.000 C 
BRANCH  21  22
ATOM     22  C   UNL     1      -1.382  10.846  18.229  0.00  0.00    +0.000 C 
ATOM     23  C   UNL     1      -1.882   9.975  17.062  0.00  0.00    +0.000 C 
ATOM     24  C   UNL     1      -3.368   9.652  17.141  0.00  0.00    +0.000 C 
ATOM     25  C   UNL     1      -4.214  10.910  17.230  0.00  0.00    +0.000 C 
ATOM     26  C   UNL     1      -3.773  11.788  18.397  0.00  0.00    +0.000 C 
ATOM     27  C   UNL     1      -2.274  12.099  18.346  0.00  0.00    +0.000 C 
ENDBRANCH  21  22
ENDBRANCH   1  21
TORSDOF 5
ENDMDL
MODEL 4
REMARK VINA RESULT:      -6.7      1.290      1.828
REMARK  Name = 
REMARK  5 active torsions:
REMARK  status: ('A' for Active; 'I' for Inactive)
REMARK    1  A    between atoms: S_2  and  C_4
REMARK    2  A    between atoms: S_2  and  N_10
REMARK    3  A    between atoms: N_10  and  C_11
REMARK    4  A    between atoms: N_10  and  C_18
REMARK    5  A    between atoms: C_11  and  C_12
REMARK                            x       y       z     vdW  Elec       q    Type
REMARK                         _______ _______ _______ _____ _____    ______ ____
ROOT
ATOM      1  N   UNL     1       0.149  11.122  19.388  0.00  0.00    +0.000 N 
ENDROOT
BRANCH   1   2
ATOM      2  C   UNL     1       0.984   9.935  19.308  0.00  0.00    +0.000 A 
ATOM      3  S   UNL     1       1.874   9.432  17.945  0.00  0.00    +0.000 S 
ATOM      4  C   UNL     1       2.304   7.924  18.678  0.00  0.00    +0.000 A 
ATOM      5  C   UNL     1       3.136   6.913  18.150  0.00  0.00    +0.000 A 
ATOM      6  C   UNL     1       3.240   5.695  18.830  0.00  0.00    +0.000 A 
ATOM      7  C   UNL     1       2.519   5.474  19.993  0.00  0.00    +0.000 A 
ATOM      8  C   UNL     1       1.766   6.508  20.555  0.00  0.00    +0.000 A 
ATOM      9  C   UNL     1       1.683   7.777  19.922  0.00  0.00    +0.000 A 
ATOM     10  C   UNL     1       1.097   9.021  20.331  0.00  0.00    +0.000 A 
ATOM     11 BR   UNL     1       0.531   9.288  22.122  0.00  0.00    +0.000 Br
ENDBRANCH   1   2
BRANCH   1  13
ATOM     12  O   UNL     1       1.852  12.901  18.613  0.00  0.00    +0.000 OA
ATOM     13  S   UNL     1       1.085  12.527  19.784  0.00  0.00    +0.000 S 
ATOM     14  O   UNL     1       1.714  12.347  21.077  0.00  0.00    +0.000 OA
BRANCH  13  15
ATOM     15  C   UNL     1      -0.201  13.756  19.999  0.00  0.00    +0.000 A 
ATOM     16  C   UNL     1      -0.090  14.969  19.309  0.00  0.00    +0.000 A 
ATOM     17  C   UNL     1      -0.978  16.005  19.602  0.00  0.00    +0.000 A 
ATOM     18  C   UNL     1      -1.972  15.822  20.570  0.00  0.00    +0.000 A 
ATOM     19  C   UNL     1      -2.112  14.595  21.215  0.00  0.00    +0.000 A 
ATOM     20  C   UNL     1      -1.224  13.550  20.922  0.00  0.00    +0.000 A 
ENDBRANCH  13  15
ENDBRANCH   1  13
BRANCH   1  21
ATOM     21  C   UNL     1      -0.802  11.362  18.248  0.00  0.00    +0.000 C 
BRANCH  21  22
ATOM     22  C   UNL     1      -1.923  10.297  18.186  0.00  0.00    +0.000 C 
ATOM     23  C   UNL     1      -3.305  10.814  18.623  0.00  0.00    +0.000 C 
ATOM     24  C   UNL     1      -3.947  11.758  17.615  0.00  0.00    +0.000 C 
ATOM     25  C   UNL     1      -4.059  11.121  16.241  0.00  0.00    +0.000 C 
ATOM     26  C   UNL     1      -2.702  10.625  15.753  0.00  0.00    +0.000 C 
ATOM     27  C   UNL     1      -2.032   9.695  16.769  0.00  0.00    +0.000 C 
ENDBRANCH  21  22
ENDBRANCH   1  21
TORSDOF 5
ENDMDL
MODEL 5
REMARK VINA RESULT:      -6.7      1.165      1.510
REMARK  Name = 
REMARK  5 active torsions:
REMARK  status: ('A' for Active; 'I' for Inactive)
REMARK    1  A    between atoms: S_2  and  C_4
REMARK    2  A    between atoms: S_2  and  N_10
REMARK    3  A    between atoms: N_10  and  C_11
REMARK    4  A    between atoms: N_10  and  C_18
REMARK    5  A    between atoms: C_11  and  C_12
REMARK                            x       y       z     vdW  Elec       q    Type
REMARK                         _______ _______ _______ _____ _____    ______ ____
ROOT
ATOM      1  N   UNL     1      -0.192  11.444  19.469  0.00  0.00    +0.000 N 
ENDROOT
BRANCH   1   2
ATOM      2  C   UNL     1       0.723  10.326  19.312  0.00  0.00    +0.000 A 
ATOM      3  S   UNL     1       1.648   9.982  17.924  0.00  0.00    +0.000 S 
ATOM      4  C   UNL     1       2.181   8.460  18.553  0.00  0.00    +0.000 A 
ATOM      5  C   UNL     1       3.082   7.548  17.962  0.00  0.00    +0.000 A 
ATOM      6  C   UNL     1       3.269   6.295  18.556  0.00  0.00    +0.000 A 
ATOM      7  C   UNL     1       2.562   5.945  19.696  0.00  0.00    +0.000 A 
ATOM      8  C   UNL     1       1.738   6.883  20.324  0.00  0.00    +0.000 A 
ATOM      9  C   UNL     1       1.569   8.184  19.780  0.00  0.00    +0.000 A 
ATOM     10  C   UNL     1       0.898   9.353  20.270  0.00  0.00    +0.000 A 
ATOM     11 BR   UNL     1       0.311   9.455  22.072  0.00  0.00    +0.000 Br
ENDBRANCH   1   2
BRANCH   1  13
ATOM     12  O   UNL     1       0.693  13.752  18.723  0.00  0.00    +0.000 OA
ATOM     13  S   UNL     1       0.653  12.897  19.893  0.00  0.00    +0.000 S 
ATOM     14  O   UNL     1       1.854  12.566  20.633  0.00  0.00    +0.000 OA
BRANCH  13  15
ATOM     15  C   UNL     1      -0.488  13.638  21.061  0.00  0.00    +0.000 A 
ATOM     16  C   UNL     1      -1.110  14.843  20.716  0.00  0.00    +0.000 A 
ATOM     17  C   UNL     1      -1.855  15.527  21.678  0.00  0.00    +0.000 A 
ATOM     18  C   UNL     1      -1.981  15.001  22.968  0.00  0.00    +0.000 A 
ATOM     19  C   UNL     1      -1.404  13.775  23.291  0.00  0.00    +0.000 A 
ATOM     20  C   UNL     1      -0.657  13.083  22.327  0.00  0.00    +0.000 A 
ENDBRANCH  13  15
ENDBRANCH   1  13
BRANCH   1  21
ATOM     21  C   UNL     1      -1.197  11.658  18.370  0.00  0.00    +0.000 C 
BRANCH  21  22
ATOM     22  C   UNL     1      -2.182  10.471  18.237  0.00  0.00    +0.000 C 
ATOM     23  C   UNL     1      -3.661  10.861  18.408  0.00  0.00    +0.000 C 
ATOM     24  C   UNL     1      -4.221  11.646  17.229  0.00  0.00    +0.000 C 
ATOM     25  C   UNL     1      -4.045  10.897  15.920  0.00  0.00    +0.000 C 
ATOM     26  C   UNL     1      -2.584  10.521  15.694  0.00  0.00    +0.000 C 
ATOM     27  C   UNL     1      -1.999   9.754  16.883  0.00  0.00    +0.000 C 
ENDBRANCH  21  22
ENDBRANCH   1  21
TORSDOF 5
ENDMDL
MODEL 6
REMARK VINA RESULT:      -6.5      4.220      8.995
REMARK  Name = 
REMARK  5 active torsions:
REMARK  status: ('A' for Active; 'I' for Inactive)
REMARK    1  A    between atoms: S_2  and  C_4
REMARK    2  A    between atoms: S_2  and  N_10
REMARK    3  A    between atoms: N_10  and  C_11
REMARK    4  A    between atoms: N_10  and  C_18
REMARK    5  A    between atoms: C_11  and  C_12
REMARK                            x       y       z     vdW  Elec       q    Type
REMARK                         _______ _______ _______ _____ _____    ______ ____
ROOT
ATOM      1  N   UNL     1       4.027   5.388  18.104  0.00  0.00    +0.000 N 
ENDROOT
BRANCH   1   2
ATOM      2  C   UNL     1       3.120   6.463  18.466  0.00  0.00    +0.000 A 
ATOM      3  S   UNL     1       2.775   7.838  17.521  0.00  0.00    +0.000 S 
ATOM      4  C   UNL     1       1.863   8.585  18.787  0.00  0.00    +0.000 A 
ATOM      5  C   UNL     1       1.163   9.809  18.742  0.00  0.00    +0.000 A 
ATOM      6  C   UNL     1       0.612  10.322  19.921  0.00  0.00    +0.000 A 
ATOM      7  C   UNL     1       0.770   9.649  21.123  0.00  0.00    +0.000 A 
ATOM      8  C   UNL     1       1.389   8.397  21.145  0.00  0.00    +0.000 A 
ATOM      9  C   UNL     1       1.911   7.819  19.957  0.00  0.00    +0.000 A 
ATOM     10  C   UNL     1       2.471   6.529  19.679  0.00  0.00    +0.000 A 
ATOM     11 BR   UNL     1       2.317   5.110  20.929  0.00  0.00    +0.000 Br
ENDBRANCH   1   2
BRANCH   1  13
ATOM     12  O   UNL     1       6.506   5.407  18.825  0.00  0.00    +0.000 OA
ATOM     13  S   UNL     1       5.631   5.982  17.822  0.00  0.00    +0.000 S 
ATOM     14  O   UNL     1       5.588   7.410  17.581  0.00  0.00    +0.000 OA
BRANCH  13  15
ATOM     15  C   UNL     1       6.025   5.203  16.257  0.00  0.00    +0.000 A 
ATOM     16  C   UNL     1       7.328   5.319  15.761  0.00  0.00    +0.000 A 
ATOM     17  C   UNL     1       7.608   4.879  14.466  0.00  0.00    +0.000 A 
ATOM     18  C   UNL     1       6.591   4.323  13.682  0.00  0.00    +0.000 A 
ATOM     19  C   UNL     1       5.308   4.161  14.200  0.00  0.00    +0.000 A 
ATOM     20  C   UNL     1       5.023   4.598  15.501  0.00  0.00    +0.000 A 
ENDBRANCH  13  15
ENDBRANCH   1  13
BRANCH   1  21
ATOM     21  C   UNL     1       4.008   4.161  18.974  0.00  0.00    +0.000 C 
BRANCH  21  22
ATOM     22  C   UNL     1       3.552   2.900  18.200  0.00  0.00    +0.000 C 
ATOM     23  C   UNL     1       3.135   1.726  19.103  0.00  0.00    +0.000 C 
ATOM     24  C   UNL     1       1.805   1.949  19.812  0.00  0.00    +0.000 C 
ATOM     25  C   UNL     1       0.688   2.251  18.829  0.00  0.00    +0.000 C 
ATOM     26  C   UNL     1       1.047   3.434  17.935  0.00  0.00    +0.000 C 
ATOM     27  C   UNL     1       2.395   3.236  17.236  0.00  0.00    +0.000 C 
ENDBRANCH  21  22
ENDBRANCH   1  21
TORSDOF 5
ENDMDL
MODEL 7
REMARK VINA RESULT:      -6.5      4.812      9.453
REMARK  Name = 
REMARK  5 active torsions:
REMARK  status: ('A' for Active; 'I' for Inactive)
REMARK    1  A    between atoms: S_2  and  C_4
REMARK    2  A    between atoms: S_2  and  N_10
REMARK    3  A    between atoms: N_10  and  C_11
REMARK    4  A    between atoms: N_10  and  C_18
REMARK    5  A    between atoms: C_11  and  C_12
REMARK                            x       y       z     vdW  Elec       q    Type
REMARK                         _______ _______ _______ _____ _____    ______ ____
ROOT
ATOM      1  N   UNL     1       4.623   4.708  18.029  0.00  0.00    +0.000 N 
ENDROOT
BRANCH   1   2
ATOM      2  C   UNL     1       3.870   5.860  18.497  0.00  0.00    +0.000 A 
ATOM      3  S   UNL     1       3.178   6.037  20.043  0.00  0.00    +0.000 S 
ATOM      4  C   UNL     1       2.357   7.494  19.601  0.00  0.00    +0.000 A 
ATOM      5  C   UNL     1       1.565   8.323  20.424  0.00  0.00    +0.000 A 
ATOM      6  C   UNL     1       0.855   9.380  19.843  0.00  0.00    +0.000 A 
ATOM      7  C   UNL     1       0.910   9.597  18.475  0.00  0.00    +0.000 A 
ATOM      8  C   UNL     1       1.763   8.827  17.679  0.00  0.00    +0.000 A 
ATOM      9  C   UNL     1       2.542   7.782  18.245  0.00  0.00    +0.000 A 
ATOM     10  C   UNL     1       3.564   6.938  17.697  0.00  0.00    +0.000 A 
ATOM     11 BR   UNL     1       4.346   7.323  16.012  0.00  0.00    +0.000 Br
ENDBRANCH   1   2
BRANCH   1  13
ATOM     12  O   UNL     1       7.090   4.163  18.560  0.00  0.00    +0.000 OA
ATOM     13  S   UNL     1       6.295   5.101  17.792  0.00  0.00    +0.000 S 
ATOM     14  O   UNL     1       6.484   6.532  17.912  0.00  0.00    +0.000 OA
BRANCH  13  15
ATOM     15  C   UNL     1       6.510   4.693  16.059  0.00  0.00    +0.000 A 
ATOM     16  C   UNL     1       7.539   5.320  15.347  0.00  0.00    +0.000 A 
ATOM     17  C   UNL     1       7.609   5.157  13.963  0.00  0.00    +0.000 A 
ATOM     18  C   UNL     1       6.661   4.367  13.303  0.00  0.00    +0.000 A 
ATOM     19  C   UNL     1       5.671   3.703  14.024  0.00  0.00    +0.000 A 
ATOM     20  C   UNL     1       5.599   3.860  15.415  0.00  0.00    +0.000 A 
ENDBRANCH  13  15
ENDBRANCH   1  13
BRANCH   1  21
ATOM     21  C   UNL     1       4.431   3.420  18.781  0.00  0.00    +0.000 C 
BRANCH  21  22
ATOM     22  C   UNL     1       3.543   2.416  18.006  0.00  0.00    +0.000 C 
ATOM     23  C   UNL     1       2.828   1.389  18.902  0.00  0.00    +0.000 C 
ATOM     24  C   UNL     1       1.691   1.986  19.720  0.00  0.00    +0.000 C 
ATOM     25  C   UNL     1       0.670   2.684  18.839  0.00  0.00    +0.000 C 
ATOM     26  C   UNL     1       1.333   3.737  17.957  0.00  0.00    +0.000 C 
ATOM     27  C   UNL     1       2.497   3.157  17.147  0.00  0.00    +0.000 C 
ENDBRANCH  21  22
ENDBRANCH   1  21
TORSDOF 5
ENDMDL
MODEL 8
REMARK VINA RESULT:      -6.3      4.440      9.107
REMARK  Name = 
REMARK  5 active torsions:
REMARK  status: ('A' for Active; 'I' for Inactive)
REMARK    1  A    between atoms: S_2  and  C_4
REMARK    2  A    between atoms: S_2  and  N_10
REMARK    3  A    between atoms: N_10  and  C_11
REMARK    4  A    between atoms: N_10  and  C_18
REMARK    5  A    between atoms: C_11  and  C_12
REMARK                            x       y       z     vdW  Elec       q    Type
REMARK                         _______ _______ _______ _____ _____    ______ ____
ROOT
ATOM      1  N   UNL     1       4.206   4.995  18.243  0.00  0.00    +0.000 N 
ENDROOT
BRANCH   1   2
ATOM      2  C   UNL     1       3.349   6.161  18.371  0.00  0.00    +0.000 A 
ATOM      3  S   UNL     1       3.207   7.424  17.237  0.00  0.00    +0.000 S 
ATOM      4  C   UNL     1       2.226   8.379  18.296  0.00  0.00    +0.000 A 
ATOM      5  C   UNL     1       1.627   9.628  18.027  0.00  0.00    +0.000 A 
ATOM      6  C   UNL     1       0.997  10.319  19.068  0.00  0.00    +0.000 A 
ATOM      7  C   UNL     1       0.980   9.794  20.351  0.00  0.00    +0.000 A 
ATOM      8  C   UNL     1       1.499   8.520  20.592  0.00  0.00    +0.000 A 
ATOM      9  C   UNL     1       2.096   7.765  19.546  0.00  0.00    +0.000 A 
ATOM     10  C   UNL     1       2.585   6.419  19.488  0.00  0.00    +0.000 A 
ATOM     11 BR   UNL     1       2.198   5.181  20.873  0.00  0.00    +0.000 Br
ENDBRANCH   1   2
BRANCH   1  13
ATOM     12  O   UNL     1       6.697   4.525  18.736  0.00  0.00    +0.000 OA
ATOM     13  S   UNL     1       5.861   5.452  17.998  0.00  0.00    +0.000 S 
ATOM     14  O   UNL     1       6.000   6.886  18.150  0.00  0.00    +0.000 OA
BRANCH  13  15
ATOM     15  C   UNL     1       6.070   5.092  16.255  0.00  0.00    +0.000 A 
ATOM     16  C   UNL     1       5.083   4.345  15.602  0.00  0.00    +0.000 A 
ATOM     17  C   UNL     1       5.313   3.900  14.299  0.00  0.00    +0.000 A 
ATOM     18  C   UNL     1       6.517   4.211  13.657  0.00  0.00    +0.000 A 
ATOM     19  C   UNL     1       7.473   5.000  14.292  0.00  0.00    +0.000 A 
ATOM     20  C   UNL     1       7.246   5.452  15.599  0.00  0.00    +0.000 A 
ENDBRANCH  13  15
ENDBRANCH   1  13
BRANCH   1  21
ATOM     21  C   UNL     1       4.050   3.920  19.283  0.00  0.00    +0.000 C 
BRANCH  21  22
ATOM     22  C   UNL     1       3.588   2.575  18.670  0.00  0.00    +0.000 C 
ATOM     23  C   UNL     1       2.882   1.640  19.668  0.00  0.00    +0.000 C 
ATOM     24  C   UNL     1       1.485   2.110  20.054  0.00  0.00    +0.000 C 
ATOM     25  C   UNL     1       0.601   2.307  18.836  0.00  0.00    +0.000 C 
ATOM     26  C   UNL     1       1.250   3.257  17.834  0.00  0.00    +0.000 C 
ATOM     27  C   UNL     1       2.665   2.813  17.456  0.00  0.00    +0.000 C 
ENDBRANCH  21  22
ENDBRANCH   1  21
TORSDOF 5
ENDMDL
MODEL 9
REMARK VINA RESULT:      -6.2      4.652      8.895
REMARK  Name = 
REMARK  5 active torsions:
REMARK  status: ('A' for Active; 'I' for Inactive)
REMARK    1  A    between atoms: S_2  and  C_4
REMARK    2  A    between atoms: S_2  and  N_10
REMARK    3  A    between atoms: N_10  and  C_11
REMARK    4  A    between atoms: N_10  and  C_18
REMARK    5  A    between atoms: C_11  and  C_12
REMARK                            x       y       z     vdW  Elec       q    Type
REMARK                         _______ _______ _______ _____ _____    ______ ____
ROOT
ATOM      1  N   UNL     1       3.694   4.854  17.960  0.00  0.00    +0.000 N 
ENDROOT
BRANCH   1   2
ATOM      2  C   UNL     1       3.149   6.095  18.485  0.00  0.00    +0.000 A 
ATOM      3  S   UNL     1       2.321   6.273  19.963  0.00  0.00    +0.000 S 
ATOM      4  C   UNL     1       1.890   7.914  19.621  0.00  0.00    +0.000 A 
ATOM      5  C   UNL     1       1.194   8.816  20.453  0.00  0.00    +0.000 A 
ATOM      6  C   UNL     1       0.803  10.056  19.935  0.00  0.00    +0.000 A 
ATOM      7  C   UNL     1       1.075  10.385  18.617  0.00  0.00    +0.000 A 
ATOM      8  C   UNL     1       1.839   9.524  17.825  0.00  0.00    +0.000 A 
ATOM      9  C   UNL     1       2.301   8.281  18.335  0.00  0.00    +0.000 A 
ATOM     10  C   UNL     1       3.182   7.286  17.796  0.00  0.00    +0.000 A 
ATOM     11 BR   UNL     1       4.233   7.647  16.258  0.00  0.00    +0.000 Br
ENDBRANCH   1   2
BRANCH   1  13
ATOM     12  O   UNL     1       2.999   2.610  16.889  0.00  0.00    +0.000 OA
ATOM     13  S   UNL     1       2.448   3.677  17.701  0.00  0.00    +0.000 S 
ATOM     14  O   UNL     1       1.212   4.343  17.342  0.00  0.00    +0.000 OA
BRANCH  13  15
ATOM     15  C   UNL     1       2.226   3.030  19.358  0.00  0.00    +0.000 A 
ATOM     16  C   UNL     1       0.947   3.068  19.925  0.00  0.00    +0.000 A 
ATOM     17  C   UNL     1       0.788   2.741  21.273  0.00  0.00    +0.000 A 
ATOM     18  C   UNL     1       1.899   2.372  22.039  0.00  0.00    +0.000 A 
ATOM     19  C   UNL     1       3.161   2.284  21.455  0.00  0.00    +0.000 A 
ATOM     20  C   UNL     1       3.325   2.608  20.102  0.00  0.00    +0.000 A 
ENDBRANCH  13  15
ENDBRANCH   1  13
BRANCH   1  21
ATOM     21  C   UNL     1       4.636   4.966  16.793  0.00  0.00    +0.000 C 
BRANCH  21  22
ATOM     22  C   UNL     1       6.024   4.353  17.099  0.00  0.00    +0.000 C 
ATOM     23  C   UNL     1       7.201   5.113  16.461  0.00  0.00    +0.000 C 
ATOM     24  C   UNL     1       7.487   6.455  17.123  0.00  0.00    +0.000 C 
ATOM     25  C   UNL     1       7.732   6.306  18.614  0.00  0.00    +0.000 C 
ATOM     26  C   UNL     1       6.571   5.587  19.293  0.00  0.00    +0.000 C 
ATOM     27  C   UNL     1       6.254   4.247  18.622  0.00  0.00    +0.000 C 
ENDBRANCH  21  22
ENDBRANCH   1  21
TORSDOF 5
ENDMDL
