MODEL 1
REMARK VINA RESULT:      -6.7      0.000      0.000
REMARK  Name = 
REMARK  5 active torsions:
REMARK  status: ('A' for Active; 'I' for Inactive)
REMARK    1  A    between atoms: O_1  and  C_2
REMARK    2  A    between atoms: C_9  and  C_10
REMARK    3  A    between atoms: N_11  and  N_12
REMARK    4  A    between atoms: N_12  and  C_13
REMARK    5  A    between atoms: C_13  and  N_15
REMARK                            x       y       z     vdW  Elec       q    Type
REMARK                         _______ _______ _______ _____ _____    ______ ____
ROOT
ATOM      1  C   UNL     1       2.264   8.341  18.347  0.00  0.00    +0.000 C 
ATOM      2  N   UNL     1       2.321   7.069  18.557  0.00  0.00    +0.000 NA
ENDROOT
BRANCH   1  10
ATOM      3  C   UNL     1       1.079   8.982  20.459  0.00  0.00    +0.000 A 
ATOM      4  C   UNL     1       0.100   9.738  21.115  0.00  0.00    +0.000 A 
ATOM      5 BR   UNL     1      -0.156   9.571  22.986  0.00  0.00    +0.000 Br
ATOM      6  C   UNL     1      -0.709  10.630  20.408  0.00  0.00    +0.000 A 
ATOM      7  C   UNL     1      -0.536  10.767  19.032  0.00  0.00    +0.000 A 
ATOM      8 BR   UNL     1      -1.623  11.965  18.059  0.00  0.00    +0.000 Br
ATOM      9  C   UNL     1       0.434  10.023  18.369  0.00  0.00    +0.000 A 
ATOM     10  C   UNL     1       1.245   9.126  19.081  0.00  0.00    +0.000 A 
BRANCH   3  11
ATOM     11  O   UNL     1       1.872   8.102  21.144  0.00  0.00    +0.000 OA
ATOM     12  H   UNL     1       2.730   8.050  20.681  0.00  0.00    +0.000 HD
ENDBRANCH   3  11
ENDBRANCH   1  10
BRANCH   2  13
ATOM     13  N   UNL     1       3.231   6.333  17.868  0.00  0.00    +0.000 N 
ATOM     14  H   UNL     1       3.043   6.141  16.888  0.00  0.00    +0.000 HD
BRANCH  13  15
ATOM     15  C   UNL     1       3.956   5.380  18.555  0.00  0.00    +0.000 C 
ATOM     16  S   UNL     1       3.195   4.511  19.769  0.00  0.00    +0.000 S 
BRANCH  15  17
ATOM     17  N   UNL     1       5.284   5.183  18.185  0.00  0.00    +0.000 N 
ATOM     18  C   UNL     1       6.369   5.246  19.175  0.00  0.00    +0.000 C 
ATOM     19  C   UNL     1       7.723   5.491  18.513  0.00  0.00    +0.000 C 
ATOM     20  O   UNL     1       7.989   4.491  17.516  0.00  0.00    +0.000 OA
ATOM     21  C   UNL     1       6.982   4.531  16.494  0.00  0.00    +0.000 C 
ATOM     22  C   UNL     1       5.582   4.281  17.065  0.00  0.00    +0.000 C 
ENDBRANCH  15  17
ENDBRANCH  13  15
ENDBRANCH   2  13
TORSDOF 5
ENDMDL
MODEL 2
REMARK VINA RESULT:      -6.5      2.389      3.307
REMARK  Name = 
REMARK  5 active torsions:
REMARK  status: ('A' for Active; 'I' for Inactive)
REMARK    1  A    between atoms: O_1  and  C_2
REMARK    2  A    between atoms: C_9  and  C_10
REMARK    3  A    between atoms: N_11  and  N_12
REMARK    4  A    between atoms: N_12  and  C_13
REMARK    5  A    between atoms: C_13  and  N_15
REMARK                            x       y       z     vdW  Elec       q    Type
REMARK                         _______ _______ _______ _____ _____    ______ ____
ROOT
ATOM      1  C   UNL     1       2.362   8.307  18.329  0.00  0.00    +0.000 C 
ATOM      2  N   UNL     1       2.428   7.034  18.529  0.00  0.00    +0.000 NA
ENDROOT
BRANCH   1  10
ATOM      3  C   UNL     1       1.123   8.933  20.414  0.00  0.00    +0.000 A 
ATOM      4  C   UNL     1       0.115   9.672  21.047  0.00  0.00    +0.000 A 
ATOM      5 BR   UNL     1      -0.174   9.508  22.914  0.00  0.00    +0.000 Br
ATOM      6  C   UNL     1      -0.698  10.543  20.319  0.00  0.00    +0.000 A 
ATOM      7  C   UNL     1      -0.501  10.677  18.946  0.00  0.00    +0.000 A 
ATOM      8 BR   UNL     1      -1.594  11.847  17.946  0.00  0.00    +0.000 Br
ATOM      9  C   UNL     1       0.497   9.949  18.306  0.00  0.00    +0.000 A 
ATOM     10  C   UNL     1       1.312   9.074  19.038  0.00  0.00    +0.000 A 
BRANCH   3  11
ATOM     11  O   UNL     1       1.921   8.073  21.119  0.00  0.00    +0.000 OA
ATOM     12  H   UNL     1       1.562   8.006  22.023  0.00  0.00    +0.000 HD
ENDBRANCH   3  11
ENDBRANCH   1  10
BRANCH   2  13
ATOM     13  N   UNL     1       3.366   6.314  17.863  0.00  0.00    +0.000 N 
ATOM     14  H   UNL     1       3.374   6.369  16.848  0.00  0.00    +0.000 HD
BRANCH  13  15
ATOM     15  C   UNL     1       3.798   5.127  18.420  0.00  0.00    +0.000 C 
ATOM     16  S   UNL     1       5.441   4.796  18.432  0.00  0.00    +0.000 S 
BRANCH  15  17
ATOM     17  N   UNL     1       2.838   4.275  18.959  0.00  0.00    +0.000 N 
ATOM     18  C   UNL     1       2.367   3.093  18.222  0.00  0.00    +0.000 C 
ATOM     19  C   UNL     1       1.019   2.602  18.745  0.00  0.00    +0.000 C 
ATOM     20  O   UNL     1       1.086   2.341  20.156  0.00  0.00    +0.000 OA
ATOM     21  C   UNL     1       1.427   3.541  20.866  0.00  0.00    +0.000 C 
ATOM     22  C   UNL     1       2.779   4.103  20.416  0.00  0.00    +0.000 C 
ENDBRANCH  15  17
ENDBRANCH  13  15
ENDBRANCH   2  13
TORSDOF 5
ENDMDL
MODEL 3
REMARK VINA RESULT:      -6.5      3.710      4.668
REMARK  Name = 
REMARK  5 active torsions:
REMARK  status: ('A' for Active; 'I' for Inactive)
REMARK    1  A    between atoms: O_1  and  C_2
REMARK    2  A    between atoms: C_9  and  C_10
REMARK    3  A    between atoms: N_11  and  N_12
REMARK    4  A    between atoms: N_12  and  C_13
REMARK    5  A    between atoms: C_13  and  N_15
REMARK                            x       y       z     vdW  Elec       q    Type
REMARK                         _______ _______ _______ _____ _____    ______ ____
ROOT
ATOM      1  C   UNL     1       3.713   4.587  17.343  0.00  0.00    +0.000 C 
ATOM      2  N   UNL     1       4.752   3.823  17.373  0.00  0.00    +0.000 NA
ENDROOT
BRANCH   1  10
ATOM      3  C   UNL     1       2.619   3.749  19.434  0.00  0.00    +0.000 A 
ATOM      4  C   UNL     1       1.914   4.004  20.617  0.00  0.00    +0.000 A 
ATOM      5 BR   UNL     1       1.415   2.583  21.769  0.00  0.00    +0.000 Br
ATOM      6  C   UNL     1       1.563   5.307  20.974  0.00  0.00    +0.000 A 
ATOM      7  C   UNL     1       1.921   6.365  20.140  0.00  0.00    +0.000 A 
ATOM      8 BR   UNL     1       1.451   8.133  20.604  0.00  0.00    +0.000 Br
ATOM      9  C   UNL     1       2.622   6.124  18.963  0.00  0.00    +0.000 A 
ATOM     10  C   UNL     1       2.973   4.814  18.605  0.00  0.00    +0.000 A 
BRANCH   3  11
ATOM     11  O   UNL     1       2.962   2.473  19.074  0.00  0.00    +0.000 OA
ATOM     12  H   UNL     1       3.402   2.055  19.838  0.00  0.00    +0.000 HD
ENDBRANCH   3  11
ENDBRANCH   1  10
BRANCH   2  13
ATOM     13  N   UNL     1       5.422   3.582  16.217  0.00  0.00    +0.000 N 
ATOM     14  H   UNL     1       5.547   2.615  15.934  0.00  0.00    +0.000 HD
BRANCH  13  15
ATOM     15  C   UNL     1       6.408   4.470  15.835  0.00  0.00    +0.000 C 
ATOM     16  S   UNL     1       6.887   4.498  14.230  0.00  0.00    +0.000 S 
BRANCH  15  17
ATOM     17  N   UNL     1       6.939   5.310  16.811  0.00  0.00    +0.000 N 
ATOM     18  C   UNL     1       7.761   4.779  17.909  0.00  0.00    +0.000 C 
ATOM     19  C   UNL     1       7.819   5.747  19.089  0.00  0.00    +0.000 C 
ATOM     20  O   UNL     1       8.290   7.036  18.664  0.00  0.00    +0.000 OA
ATOM     21  C   UNL     1       7.403   7.589  17.680  0.00  0.00    +0.000 C 
ATOM     22  C   UNL     1       7.290   6.688  16.447  0.00  0.00    +0.000 C 
ENDBRANCH  15  17
ENDBRANCH  13  15
ENDBRANCH   2  13
TORSDOF 5
ENDMDL
MODEL 4
REMARK VINA RESULT:      -6.4      3.472      4.740
REMARK  Name = 
REMARK  5 active torsions:
REMARK  status: ('A' for Active; 'I' for Inactive)
REMARK    1  A    between atoms: O_1  and  C_2
REMARK    2  A    between atoms: C_9  and  C_10
REMARK    3  A    between atoms: N_11  and  N_12
REMARK    4  A    between atoms: N_12  and  C_13
REMARK    5  A    between atoms: C_13  and  N_15
REMARK                            x       y       z     vdW  Elec       q    Type
REMARK                         _______ _______ _______ _____ _____    ______ ____
ROOT
ATOM      1  C   UNL     1       3.977   4.780  17.395  0.00  0.00    +0.000 C 
ATOM      2  N   UNL     1       4.697   3.710  17.360  0.00  0.00    +0.000 NA
ENDROOT
BRANCH   1  10
ATOM      3  C   UNL     1       2.755   6.321  18.946  0.00  0.00    +0.000 A 
ATOM      4  C   UNL     1       1.978   6.515  20.095  0.00  0.00    +0.000 A 
ATOM      5 BR   UNL     1       1.421   8.255  20.601  0.00  0.00    +0.000 Br
ATOM      6  C   UNL     1       1.597   5.434  20.893  0.00  0.00    +0.000 A 
ATOM      7  C   UNL     1       1.997   4.147  20.537  0.00  0.00    +0.000 A 
ATOM      8 BR   UNL     1       1.495   2.674  21.606  0.00  0.00    +0.000 Br
ATOM      9  C   UNL     1       2.768   3.941  19.397  0.00  0.00    +0.000 A 
ATOM     10  C   UNL     1       3.150   5.028  18.598  0.00  0.00    +0.000 A 
BRANCH   3  11
ATOM     11  O   UNL     1       3.137   7.375  18.162  0.00  0.00    +0.000 OA
ATOM     12  H   UNL     1       4.042   7.200  17.846  0.00  0.00    +0.000 HD
ENDBRANCH   3  11
ENDBRANCH   1  10
BRANCH   2  13
ATOM     13  N   UNL     1       5.437   3.455  16.250  0.00  0.00    +0.000 N 
ATOM     14  H   UNL     1       5.651   2.485  16.035  0.00  0.00    +0.000 HD
BRANCH  13  15
ATOM     15  C   UNL     1       6.366   4.395  15.853  0.00  0.00    +0.000 C 
ATOM     16  S   UNL     1       6.776   4.485  14.231  0.00  0.00    +0.000 S 
BRANCH  15  17
ATOM     17  N   UNL     1       6.901   5.232  16.829  0.00  0.00    +0.000 N 
ATOM     18  C   UNL     1       7.737   4.700  17.916  0.00  0.00    +0.000 C 
ATOM     19  C   UNL     1       7.800   5.661  19.101  0.00  0.00    +0.000 C 
ATOM     20  O   UNL     1       8.258   6.956  18.680  0.00  0.00    +0.000 OA
ATOM     21  C   UNL     1       7.358   7.509  17.709  0.00  0.00    +0.000 C 
ATOM     22  C   UNL     1       7.240   6.614  16.470  0.00  0.00    +0.000 C 
ENDBRANCH  15  17
ENDBRANCH  13  15
ENDBRANCH   2  13
TORSDOF 5
ENDMDL
MODEL 5
REMARK VINA RESULT:      -6.4      2.219      2.803
REMARK  Name = 
REMARK  5 active torsions:
REMARK  status: ('A' for Active; 'I' for Inactive)
REMARK    1  A    between atoms: O_1  and  C_2
REMARK    2  A    between atoms: C_9  and  C_10
REMARK    3  A    between atoms: N_11  and  N_12
REMARK    4  A    between atoms: N_12  and  C_13
REMARK    5  A    between atoms: C_13  and  N_15
REMARK                            x       y       z     vdW  Elec       q    Type
REMARK                         _______ _______ _______ _____ _____    ______ ____
ROOT
ATOM      1  C   UNL     1       2.445   8.325  18.186  0.00  0.00    +0.000 C 
ATOM      2  N   UNL     1       2.598   7.063  18.409  0.00  0.00    +0.000 NA
ENDROOT
BRANCH   1  10
ATOM      3  C   UNL     1       1.182   8.890  20.273  0.00  0.00    +0.000 A 
ATOM      4  C   UNL     1       0.137   9.574  20.908  0.00  0.00    +0.000 A 
ATOM      5 BR   UNL     1      -0.134   9.402  22.777  0.00  0.00    +0.000 Br
ATOM      6  C   UNL     1      -0.727  10.395  20.180  0.00  0.00    +0.000 A 
ATOM      7  C   UNL     1      -0.543  10.534  18.806  0.00  0.00    +0.000 A 
ATOM      8 BR   UNL     1      -1.703  11.637  17.806  0.00  0.00    +0.000 Br
ATOM      9  C   UNL     1       0.492   9.861  18.165  0.00  0.00    +0.000 A 
ATOM     10  C   UNL     1       1.357   9.035  18.897  0.00  0.00    +0.000 A 
BRANCH   3  11
ATOM     11  O   UNL     1       2.029   8.078  20.978  0.00  0.00    +0.000 OA
ATOM     12  H   UNL     1       2.942   8.365  20.790  0.00  0.00    +0.000 HD
ENDBRANCH   3  11
ENDBRANCH   1  10
BRANCH   2  13
ATOM     13  N   UNL     1       3.572   6.394  17.742  0.00  0.00    +0.000 N 
ATOM     14  H   UNL     1       3.503   6.340  16.729  0.00  0.00    +0.000 HD
BRANCH  13  15
ATOM     15  C   UNL     1       4.190   5.334  18.375  0.00  0.00    +0.000 C 
ATOM     16  S   UNL     1       5.804   5.482  18.801  0.00  0.00    +0.000 S 
BRANCH  15  17
ATOM     17  N   UNL     1       3.425   4.201  18.642  0.00  0.00    +0.000 N 
ATOM     18  C   UNL     1       2.798   3.997  19.956  0.00  0.00    +0.000 C 
ATOM     19  C   UNL     1       2.443   2.530  20.190  0.00  0.00    +0.000 C 
ATOM     20  O   UNL     1       1.605   2.036  19.133  0.00  0.00    +0.000 OA
ATOM     21  C   UNL     1       2.288   2.132  17.874  0.00  0.00    +0.000 C 
ATOM     22  C   UNL     1       2.673   3.578  17.545  0.00  0.00    +0.000 C 
ENDBRANCH  15  17
ENDBRANCH  13  15
ENDBRANCH   2  13
TORSDOF 5
ENDMDL
MODEL 6
REMARK VINA RESULT:      -6.3      0.867      1.012
REMARK  Name = 
REMARK  5 active torsions:
REMARK  status: ('A' for Active; 'I' for Inactive)
REMARK    1  A    between atoms: O_1  and  C_2
REMARK    2  A    between atoms: C_9  and  C_10
REMARK    3  A    between atoms: N_11  and  N_12
REMARK    4  A    between atoms: N_12  and  C_13
REMARK    5  A    between atoms: C_13  and  N_15
REMARK                            x       y       z     vdW  Elec       q    Type
REMARK                         _______ _______ _______ _____ _____    ______ ____
ROOT
ATOM      1  C   UNL     1       2.169   8.313  18.372  0.00  0.00    +0.000 C 
ATOM      2  N   UNL     1       2.151   7.035  18.552  0.00  0.00    +0.000 NA
ENDROOT
BRANCH   1  10
ATOM      3  C   UNL     1       1.072   8.963  20.526  0.00  0.00    +0.000 A 
ATOM      4  C   UNL     1       0.163   9.766  21.228  0.00  0.00    +0.000 A 
ATOM      5 BR   UNL     1      -0.074   9.550  23.097  0.00  0.00    +0.000 Br
ATOM      6  C   UNL     1      -0.588  10.741  20.568  0.00  0.00    +0.000 A 
ATOM      7  C   UNL     1      -0.427  10.915  19.194  0.00  0.00    +0.000 A 
ATOM      8 BR   UNL     1      -1.437  12.225  18.285  0.00  0.00    +0.000 Br
ATOM      9  C   UNL     1       0.473  10.124  18.487  0.00  0.00    +0.000 A 
ATOM     10  C   UNL     1       1.225   9.144  19.151  0.00  0.00    +0.000 A 
BRANCH   3  11
ATOM     11  O   UNL     1       1.807   8.001  21.165  0.00  0.00    +0.000 OA
ATOM     12  H   UNL     1       1.400   7.842  22.036  0.00  0.00    +0.000 HD
ENDBRANCH   3  11
ENDBRANCH   1  10
BRANCH   2  13
ATOM     13  N   UNL     1       2.991   6.258  17.822  0.00  0.00    +0.000 N 
ATOM     14  H   UNL     1       2.639   5.865  16.953  0.00  0.00    +0.000 HD
BRANCH  13  15
ATOM     15  C   UNL     1       3.947   5.520  18.490  0.00  0.00    +0.000 C 
ATOM     16  S   UNL     1       3.469   4.568  19.784  0.00  0.00    +0.000 S 
BRANCH  15  17
ATOM     17  N   UNL     1       5.261   5.596  18.036  0.00  0.00    +0.000 N 
ATOM     18  C   UNL     1       6.001   4.389  17.639  0.00  0.00    +0.000 C 
ATOM     19  C   UNL     1       7.510   4.623  17.652  0.00  0.00    +0.000 C 
ATOM     20  O   UNL     1       7.857   5.742  16.819  0.00  0.00    +0.000 OA
ATOM     21  C   UNL     1       7.219   6.934  17.300  0.00  0.00    +0.000 C 
ATOM     22  C   UNL     1       5.693   6.797  17.311  0.00  0.00    +0.000 C 
ENDBRANCH  15  17
ENDBRANCH  13  15
ENDBRANCH   2  13
TORSDOF 5
ENDMDL
MODEL 7
REMARK VINA RESULT:      -6.3      4.081      7.675
REMARK  Name = 
REMARK  5 active torsions:
REMARK  status: ('A' for Active; 'I' for Inactive)
REMARK    1  A    between atoms: O_1  and  C_2
REMARK    2  A    between atoms: C_9  and  C_10
REMARK    3  A    between atoms: N_11  and  N_12
REMARK    4  A    between atoms: N_12  and  C_13
REMARK    5  A    between atoms: C_13  and  N_15
REMARK                            x       y       z     vdW  Elec       q    Type
REMARK                         _______ _______ _______ _____ _____    ______ ____
ROOT
ATOM      1  C   UNL     1       2.412   7.607  19.048  0.00  0.00    +0.000 C 
ATOM      2  N   UNL     1       1.804   8.467  18.303  0.00  0.00    +0.000 NA
ENDROOT
BRANCH   1  10
ATOM      3  C   UNL     1       3.719   6.033  17.603  0.00  0.00    +0.000 A 
ATOM      4  C   UNL     1       3.925   4.744  17.096  0.00  0.00    +0.000 A 
ATOM      5 BR   UNL     1       5.341   4.399  15.883  0.00  0.00    +0.000 Br
ATOM      6  C   UNL     1       3.094   3.686  17.470  0.00  0.00    +0.000 A 
ATOM      7  C   UNL     1       2.047   3.921  18.361  0.00  0.00    +0.000 A 
ATOM      8 BR   UNL     1       0.911   2.504  18.876  0.00  0.00    +0.000 Br
ATOM      9  C   UNL     1       1.833   5.196  18.872  0.00  0.00    +0.000 A 
ATOM     10  C   UNL     1       2.668   6.258  18.494  0.00  0.00    +0.000 A 
BRANCH   3  11
ATOM     11  O   UNL     1       4.525   7.077  17.236  0.00  0.00    +0.000 OA
ATOM     12  H   UNL     1       5.100   7.290  17.994  0.00  0.00    +0.000 HD
ENDBRANCH   3  11
ENDBRANCH   1  10
BRANCH   2  13
ATOM     13  N   UNL     1       1.536   9.698  18.809  0.00  0.00    +0.000 N 
ATOM     14  H   UNL     1       2.273  10.170  19.325  0.00  0.00    +0.000 HD
BRANCH  13  15
ATOM     15  C   UNL     1       0.239   9.981  19.188  0.00  0.00    +0.000 C 
ATOM     16  S   UNL     1      -0.950  10.038  18.008  0.00  0.00    +0.000 S 
BRANCH  15  17
ATOM     17  N   UNL     1      -0.012  10.187  20.542  0.00  0.00    +0.000 N 
ATOM     18  C   UNL     1      -0.879  11.283  20.999  0.00  0.00    +0.000 C 
ATOM     19  C   UNL     1      -0.630  11.626  22.466  0.00  0.00    +0.000 C 
ATOM     20  O   UNL     1      -0.788  10.461  23.293  0.00  0.00    +0.000 OA
ATOM     21  C   UNL     1       0.154   9.449  22.907  0.00  0.00    +0.000 C 
ATOM     22  C   UNL     1      -0.029   9.030  21.445  0.00  0.00    +0.000 C 
ENDBRANCH  15  17
ENDBRANCH  13  15
ENDBRANCH   2  13
TORSDOF 5
ENDMDL
MODEL 8
REMARK VINA RESULT:      -6.2      1.662      2.695
REMARK  Name = 
REMARK  5 active torsions:
REMARK  status: ('A' for Active; 'I' for Inactive)
REMARK    1  A    between atoms: O_1  and  C_2
REMARK    2  A    between atoms: C_9  and  C_10
REMARK    3  A    between atoms: N_11  and  N_12
REMARK    4  A    between atoms: N_12  and  C_13
REMARK    5  A    between atoms: C_13  and  N_15
REMARK                            x       y       z     vdW  Elec       q    Type
REMARK                         _______ _______ _______ _____ _____    ______ ____
ROOT
ATOM      1  C   UNL     1       2.173   8.062  18.086  0.00  0.00    +0.000 C 
ATOM      2  N   UNL     1       2.378   6.901  18.610  0.00  0.00    +0.000 NA
ENDROOT
BRANCH   1  10
ATOM      3  C   UNL     1       1.663  10.470  18.547  0.00  0.00    +0.000 A 
ATOM      4  C   UNL     1       1.146  11.456  19.397  0.00  0.00    +0.000 A 
ATOM      5 BR   UNL     1       1.171  13.282  18.885  0.00  0.00    +0.000 Br
ATOM      6  C   UNL     1       0.602  11.119  20.638  0.00  0.00    +0.000 A 
ATOM      7  C   UNL     1       0.575   9.782  21.032  0.00  0.00    +0.000 A 
ATOM      8 BR   UNL     1      -0.153   9.307  22.708  0.00  0.00    +0.000 Br
ATOM      9  C   UNL     1       1.084   8.794  20.196  0.00  0.00    +0.000 A 
ATOM     10  C   UNL     1       1.631   9.135  18.951  0.00  0.00    +0.000 A 
BRANCH   3  11
ATOM     11  O   UNL     1       2.203  10.793  17.332  0.00  0.00    +0.000 OA
ATOM     12  H   UNL     1       1.840  10.176  16.670  0.00  0.00    +0.000 HD
ENDBRANCH   3  11
ENDBRANCH   1  10
BRANCH   2  13
ATOM     13  N   UNL     1       2.846   5.900  17.821  0.00  0.00    +0.000 N 
ATOM     14  H   UNL     1       2.178   5.402  17.240  0.00  0.00    +0.000 HD
BRANCH  13  15
ATOM     15  C   UNL     1       3.941   5.181  18.256  0.00  0.00    +0.000 C 
ATOM     16  S   UNL     1       3.759   4.155  19.569  0.00  0.00    +0.000 S 
BRANCH  15  17
ATOM     17  N   UNL     1       5.139   5.338  17.563  0.00  0.00    +0.000 N 
ATOM     18  C   UNL     1       5.452   4.514  16.386  0.00  0.00    +0.000 C 
ATOM     19  C   UNL     1       6.951   4.496  16.093  0.00  0.00    +0.000 C 
ATOM     20  O   UNL     1       7.454   5.833  15.939  0.00  0.00    +0.000 OA
ATOM     21  C   UNL     1       7.247   6.582  17.146  0.00  0.00    +0.000 C 
ATOM     22  C   UNL     1       5.762   6.666  17.515  0.00  0.00    +0.000 C 
ENDBRANCH  15  17
ENDBRANCH  13  15
ENDBRANCH   2  13
TORSDOF 5
ENDMDL
MODEL 9
REMARK VINA RESULT:      -6.2      4.011      7.725
REMARK  Name = 
REMARK  5 active torsions:
REMARK  status: ('A' for Active; 'I' for Inactive)
REMARK    1  A    between atoms: O_1  and  C_2
REMARK    2  A    between atoms: C_9  and  C_10
REMARK    3  A    between atoms: N_11  and  N_12
REMARK    4  A    between atoms: N_12  and  C_13
REMARK    5  A    between atoms: C_13  and  N_15
REMARK                            x       y       z     vdW  Elec       q    Type
REMARK                         _______ _______ _______ _____ _____    ______ ____
ROOT
ATOM      1  C   UNL     1       2.928   7.757  18.329  0.00  0.00    +0.000 C 
ATOM      2  N   UNL     1       1.729   8.233  18.303  0.00  0.00    +0.000 NA
ENDROOT
BRANCH   1  10
ATOM      3  C   UNL     1       4.208   5.944  17.170  0.00  0.00    +0.000 A 
ATOM      4  C   UNL     1       4.358   4.592  16.835  0.00  0.00    +0.000 A 
ATOM      5 BR   UNL     1       5.815   4.017  15.766  0.00  0.00    +0.000 Br
ATOM      6  C   UNL     1       3.438   3.639  17.278  0.00  0.00    +0.000 A 
ATOM      7  C   UNL     1       2.360   4.042  18.065  0.00  0.00    +0.000 A 
ATOM      8 BR   UNL     1       1.106   2.769  18.670  0.00  0.00    +0.000 Br
ATOM      9  C   UNL     1       2.202   5.382  18.405  0.00  0.00    +0.000 A 
ATOM     10  C   UNL     1       3.126   6.338  17.957  0.00  0.00    +0.000 A 
BRANCH   3  11
ATOM     11  O   UNL     1       5.102   6.885  16.734  0.00  0.00    +0.000 OA
ATOM     12  H   UNL     1       4.603   7.569  16.250  0.00  0.00    +0.000 HD
ENDBRANCH   3  11
ENDBRANCH   1  10
BRANCH   2  13
ATOM     13  N   UNL     1       1.529   9.525  18.671  0.00  0.00    +0.000 N 
ATOM     14  H   UNL     1       2.301  10.018  19.110  0.00  0.00    +0.000 HD
BRANCH  13  15
ATOM     15  C   UNL     1       0.257   9.909  19.046  0.00  0.00    +0.000 C 
ATOM     16  S   UNL     1      -0.917  10.071  17.861  0.00  0.00    +0.000 S 
BRANCH  15  17
ATOM     17  N   UNL     1       0.017  10.124  20.401  0.00  0.00    +0.000 N 
ATOM     18  C   UNL     1       0.636   9.274  21.429  0.00  0.00    +0.000 C 
ATOM     19  C   UNL     1      -0.117   9.355  22.756  0.00  0.00    +0.000 C 
ATOM     20  O   UNL     1      -0.216  10.718  23.200  0.00  0.00    +0.000 OA
ATOM     21  C   UNL     1      -0.933  11.502  22.235  0.00  0.00    +0.000 C 
ATOM     22  C   UNL     1      -0.241  11.492  20.868  0.00  0.00    +0.000 C 
ENDBRANCH  15  17
ENDBRANCH  13  15
ENDBRANCH   2  13
TORSDOF 5
ENDMDL
