MODEL 1
REMARK VINA RESULT:      -7.9      0.000      0.000
REMARK  Name = 
REMARK  10 active torsions:
REMARK  status: ('A' for Active; 'I' for Inactive)
REMARK    1  A    between atoms: C_1  and  C_2
REMARK    2  A    between atoms: C_2  and  C_3
REMARK    3  A    between atoms: C_3  and  C_4
REMARK    4  A    between atoms: C_4  and  O_5
REMARK    5  A    between atoms: O_5  and  C_6
REMARK    6  A    between atoms: C_10  and  C_11
REMARK    7  A    between atoms: C_16  and  C_18
REMARK    8  A    between atoms: C_18  and  S_19
REMARK    9  A    between atoms: S_19  and  C_20
REMARK   10  A    between atoms: C_23  and  C_24
REMARK                            x       y       z     vdW  Elec       q    Type
REMARK                         _______ _______ _______ _____ _____    ______ ____
ROOT
ATOM      1  C   UNL     1       2.239   8.166  18.404  0.00  0.00    +0.000 A 
ATOM      2  N   UNL     1       1.912   9.222  17.689  0.00  0.00    +0.000 NA
ATOM      3  N   UNL     1       1.251  10.179  18.446  0.00  0.00    +0.000 NA
ATOM      4  C   UNL     1       1.036   9.771  19.673  0.00  0.00    +0.000 A 
ATOM      5  N   UNL     1       0.399  10.534  20.619  0.00  0.00    +0.000 N 
ATOM      6  C   UNL     1      -0.117  10.096  21.822  0.00  0.00    +0.000 C 
ATOM      7  O   UNL     1       0.007   8.968  22.297  0.00  0.00    +0.000 OA
ATOM      8  S   UNL     1       1.659   8.232  20.023  0.00  0.00    +0.000 S 
ATOM      9  H   UNL     1       0.117  11.451  20.289  0.00  0.00    +0.000 HD
ENDROOT
BRANCH   1  14
ATOM     10  C   UNL     1       3.325   4.593  17.805  0.00  0.00    +0.000 A 
ATOM     11  C   UNL     1       4.519   4.791  17.116  0.00  0.00    +0.000 A 
ATOM     12  C   UNL     1       4.958   6.085  16.821  0.00  0.00    +0.000 A 
ATOM     13  C   UNL     1       4.209   7.191  17.231  0.00  0.00    +0.000 A 
ATOM     14  C   UNL     1       3.014   7.009  17.940  0.00  0.00    +0.000 A 
ATOM     15  C   UNL     1       2.590   5.698  18.224  0.00  0.00    +0.000 A 
BRANCH  10  16
ATOM     16  O   UNL     1       2.994   3.292  18.078  0.00  0.00    +0.000 OA
BRANCH  16  17
ATOM     17  C   UNL     1       1.592   3.006  18.140  0.00  0.00    +0.000 C 
BRANCH  17  18
ATOM     18  C   UNL     1       1.307   2.319  19.473  0.00  0.00    +0.000 C 
BRANCH  18  20
ATOM     19  C   UNL     1       2.147   3.431  21.571  0.00  0.00    +0.000 C 
ATOM     20  C   UNL     1       1.006   3.336  20.573  0.00  0.00    +0.000 C 
ENDBRANCH  18  20
ENDBRANCH  17  18
ENDBRANCH  16  17
ENDBRANCH  10  16
ENDBRANCH   1  14
BRANCH   6  21
ATOM     21  C   UNL     1      -0.861  11.169  22.617  0.00  0.00    +0.000 C 
BRANCH  21  22
ATOM     22  S   UNL     1      -1.791  12.274  21.498  0.00  0.00    +0.000 S 
BRANCH  22  23
ATOM     23  C   UNL     1      -3.297  12.608  22.385  0.00  0.00    +0.000 A 
ATOM     24  C   UNL     1      -4.413  12.936  21.604  0.00  0.00    +0.000 A 
ATOM     25  C   UNL     1      -5.672  13.101  22.182  0.00  0.00    +0.000 A 
ATOM     26  C   UNL     1      -5.840  12.940  23.558  0.00  0.00    +0.000 A 
ATOM     27  C   UNL     1      -7.200  13.065  24.179  0.00  0.00    +0.000 C 
ATOM     28  C   UNL     1      -4.724  12.629  24.345  0.00  0.00    +0.000 A 
ATOM     29  C   UNL     1      -3.459  12.463  23.764  0.00  0.00    +0.000 A 
ENDBRANCH  22  23
ENDBRANCH  21  22
ENDBRANCH   6  21
TORSDOF 8
ENDMDL
MODEL 2
REMARK VINA RESULT:      -7.7      2.217      3.707
REMARK  Name = 
REMARK  10 active torsions:
REMARK  status: ('A' for Active; 'I' for Inactive)
REMARK    1  A    between atoms: C_1  and  C_2
REMARK    2  A    between atoms: C_2  and  C_3
REMARK    3  A    between atoms: C_3  and  C_4
REMARK    4  A    between atoms: C_4  and  O_5
REMARK    5  A    between atoms: O_5  and  C_6
REMARK    6  A    between atoms: C_10  and  C_11
REMARK    7  A    between atoms: C_16  and  C_18
REMARK    8  A    between atoms: C_18  and  S_19
REMARK    9  A    between atoms: S_19  and  C_20
REMARK   10  A    between atoms: C_23  and  C_24
REMARK                            x       y       z     vdW  Elec       q    Type
REMARK                         _______ _______ _______ _____ _____    ______ ____
ROOT
ATOM      1  C   UNL     1       2.218   6.958  19.586  0.00  0.00    +0.000 A 
ATOM      2  N   UNL     1       1.629   6.960  20.762  0.00  0.00    +0.000 NA
ATOM      3  N   UNL     1       0.960   8.151  21.007  0.00  0.00    +0.000 NA
ATOM      4  C   UNL     1       1.140   9.021  20.044  0.00  0.00    +0.000 A 
ATOM      5  N   UNL     1       0.582  10.276  20.050  0.00  0.00    +0.000 N 
ATOM      6  C   UNL     1       0.936  11.339  19.244  0.00  0.00    +0.000 C 
ATOM      7  O   UNL     1       1.735  11.308  18.310  0.00  0.00    +0.000 OA
ATOM      8  S   UNL     1       2.081   8.456  18.751  0.00  0.00    +0.000 S 
ATOM      9  H   UNL     1       0.006  10.468  20.862  0.00  0.00    +0.000 HD
ENDROOT
BRANCH   1  14
ATOM     10  C   UNL     1       4.993   4.544  18.703  0.00  0.00    +0.000 A 
ATOM     11  C   UNL     1       4.349   3.729  17.774  0.00  0.00    +0.000 A 
ATOM     12  C   UNL     1       3.006   3.945  17.455  0.00  0.00    +0.000 A 
ATOM     13  C   UNL     1       2.303   4.994  18.054  0.00  0.00    +0.000 A 
ATOM     14  C   UNL     1       2.940   5.834  18.978  0.00  0.00    +0.000 A 
ATOM     15  C   UNL     1       4.292   5.596  19.285  0.00  0.00    +0.000 A 
BRANCH  10  16
ATOM     16  O   UNL     1       6.317   4.276  18.925  0.00  0.00    +0.000 OA
BRANCH  16  17
ATOM     17  C   UNL     1       7.178   5.418  19.009  0.00  0.00    +0.000 C 
BRANCH  17  18
ATOM     18  C   UNL     1       7.491   5.882  17.588  0.00  0.00    +0.000 C 
BRANCH  18  20
ATOM     19  C   UNL     1       8.008   8.336  17.822  0.00  0.00    +0.000 C 
ATOM     20  C   UNL     1       6.997   7.307  17.346  0.00  0.00    +0.000 C 
ENDBRANCH  18  20
ENDBRANCH  17  18
ENDBRANCH  16  17
ENDBRANCH  10  16
ENDBRANCH   1  14
BRANCH   6  21
ATOM     21  C   UNL     1       0.198  12.641  19.559  0.00  0.00    +0.000 C 
BRANCH  21  22
ATOM     22  S   UNL     1      -1.598  12.446  19.289  0.00  0.00    +0.000 S 
BRANCH  22  23
ATOM     23  C   UNL     1      -2.286  12.524  20.928  0.00  0.00    +0.000 A 
ATOM     24  C   UNL     1      -3.610  12.970  21.021  0.00  0.00    +0.000 A 
ATOM     25  C   UNL     1      -4.289  12.958  22.240  0.00  0.00    +0.000 A 
ATOM     26  C   UNL     1      -3.655  12.498  23.394  0.00  0.00    +0.000 A 
ATOM     27  C   UNL     1      -4.395  12.434  24.697  0.00  0.00    +0.000 C 
ATOM     28  C   UNL     1      -2.324  12.067  23.309  0.00  0.00    +0.000 A 
ATOM     29  C   UNL     1      -1.642  12.079  22.085  0.00  0.00    +0.000 A 
ENDBRANCH  22  23
ENDBRANCH  21  22
ENDBRANCH   6  21
TORSDOF 8
ENDMDL
MODEL 3
REMARK VINA RESULT:      -7.5      2.250      3.851
REMARK  Name = 
REMARK  10 active torsions:
REMARK  status: ('A' for Active; 'I' for Inactive)
REMARK    1  A    between atoms: C_1  and  C_2
REMARK    2  A    between atoms: C_2  and  C_3
REMARK    3  A    between atoms: C_3  and  C_4
REMARK    4  A    between atoms: C_4  and  O_5
REMARK    5  A    between atoms: O_5  and  C_6
REMARK    6  A    between atoms: C_10  and  C_11
REMARK    7  A    between atoms: C_16  and  C_18
REMARK    8  A    between atoms: C_18  and  S_19
REMARK    9  A    between atoms: S_19  and  C_20
REMARK   10  A    between atoms: C_23  and  C_24
REMARK                            x       y       z     vdW  Elec       q    Type
REMARK                         _______ _______ _______ _____ _____    ______ ____
ROOT
ATOM      1  C   UNL     1       2.478   7.180  18.369  0.00  0.00    +0.000 A 
ATOM      2  N   UNL     1       2.433   8.180  17.514  0.00  0.00    +0.000 NA
ATOM      3  N   UNL     1       1.897   9.326  18.083  0.00  0.00    +0.000 NA
ATOM      4  C   UNL     1       1.489   9.121  19.311  0.00  0.00    +0.000 A 
ATOM      5  N   UNL     1       0.921  10.099  20.089  0.00  0.00    +0.000 N 
ATOM      6  C   UNL     1       0.215   9.914  21.261  0.00  0.00    +0.000 C 
ATOM      7  O   UNL     1       0.072   8.851  21.863  0.00  0.00    +0.000 OA
ATOM      8  S   UNL     1       1.767   7.551  19.892  0.00  0.00    +0.000 S 
ATOM      9  H   UNL     1       0.855  11.003  19.634  0.00  0.00    +0.000 HD
ENDROOT
BRANCH   1  14
ATOM     10  C   UNL     1       4.728   4.447  17.036  0.00  0.00    +0.000 A 
ATOM     11  C   UNL     1       4.135   3.318  17.598  0.00  0.00    +0.000 A 
ATOM     12  C   UNL     1       3.021   3.447  18.433  0.00  0.00    +0.000 A 
ATOM     13  C   UNL     1       2.484   4.710  18.696  0.00  0.00    +0.000 A 
ATOM     14  C   UNL     1       3.058   5.854  18.125  0.00  0.00    +0.000 A 
ATOM     15  C   UNL     1       4.180   5.701  17.290  0.00  0.00    +0.000 A 
BRANCH  10  16
ATOM     16  O   UNL     1       5.793   4.220  16.206  0.00  0.00    +0.000 OA
BRANCH  16  17
ATOM     17  C   UNL     1       6.931   5.066  16.407  0.00  0.00    +0.000 C 
BRANCH  17  18
ATOM     18  C   UNL     1       7.550   4.717  17.758  0.00  0.00    +0.000 C 
BRANCH  18  20
ATOM     19  C   UNL     1       7.584   7.236  17.785  0.00  0.00    +0.000 C 
ATOM     20  C   UNL     1       7.800   5.970  18.596  0.00  0.00    +0.000 C 
ENDBRANCH  18  20
ENDBRANCH  17  18
ENDBRANCH  16  17
ENDBRANCH  10  16
ENDBRANCH   1  14
BRANCH   6  21
ATOM     21  C   UNL     1      -0.383  11.194  21.845  0.00  0.00    +0.000 C 
BRANCH  21  22
ATOM     22  S   UNL     1      -0.401  12.527  20.594  0.00  0.00    +0.000 S 
BRANCH  22  23
ATOM     23  C   UNL     1      -1.987  12.350  19.807  0.00  0.00    +0.000 A 
ATOM     24  C   UNL     1      -1.992  11.690  18.572  0.00  0.00    +0.000 A 
ATOM     25  C   UNL     1      -3.189  11.390  17.922  0.00  0.00    +0.000 A 
ATOM     26  C   UNL     1      -4.410  11.744  18.497  0.00  0.00    +0.000 A 
ATOM     27  C   UNL     1      -5.702  11.379  17.829  0.00  0.00    +0.000 C 
ATOM     28  C   UNL     1      -4.409  12.420  19.724  0.00  0.00    +0.000 A 
ATOM     29  C   UNL     1      -3.206  12.722  20.377  0.00  0.00    +0.000 A 
ENDBRANCH  22  23
ENDBRANCH  21  22
ENDBRANCH   6  21
TORSDOF 8
ENDMDL
MODEL 4
REMARK VINA RESULT:      -7.5      1.813      2.486
REMARK  Name = 
REMARK  10 active torsions:
REMARK  status: ('A' for Active; 'I' for Inactive)
REMARK    1  A    between atoms: C_1  and  C_2
REMARK    2  A    between atoms: C_2  and  C_3
REMARK    3  A    between atoms: C_3  and  C_4
REMARK    4  A    between atoms: C_4  and  O_5
REMARK    5  A    between atoms: O_5  and  C_6
REMARK    6  A    between atoms: C_10  and  C_11
REMARK    7  A    between atoms: C_16  and  C_18
REMARK    8  A    between atoms: C_18  and  S_19
REMARK    9  A    between atoms: S_19  and  C_20
REMARK   10  A    between atoms: C_23  and  C_24
REMARK                            x       y       z     vdW  Elec       q    Type
REMARK                         _______ _______ _______ _____ _____    ______ ____
ROOT
ATOM      1  C   UNL     1       2.472   7.858  18.131  0.00  0.00    +0.000 A 
ATOM      2  N   UNL     1       2.327   8.943  17.400  0.00  0.00    +0.000 NA
ATOM      3  N   UNL     1       1.680   9.955  18.094  0.00  0.00    +0.000 NA
ATOM      4  C   UNL     1       1.295   9.565  19.284  0.00  0.00    +0.000 A 
ATOM      5  N   UNL     1       0.631  10.383  20.166  0.00  0.00    +0.000 N 
ATOM      6  C   UNL     1      -0.052   9.991  21.299  0.00  0.00    +0.000 C 
ATOM      7  O   UNL     1      -0.088   8.856  21.770  0.00  0.00    +0.000 OA
ATOM      8  S   UNL     1       1.727   7.973  19.678  0.00  0.00    +0.000 S 
ATOM      9  H   UNL     1       0.476  11.324  19.820  0.00  0.00    +0.000 HD
ENDROOT
BRANCH   1  14
ATOM     10  C   UNL     1       3.229   4.206  17.503  0.00  0.00    +0.000 A 
ATOM     11  C   UNL     1       4.546   4.282  17.054  0.00  0.00    +0.000 A 
ATOM     12  C   UNL     1       5.179   5.522  16.929  0.00  0.00    +0.000 A 
ATOM     13  C   UNL     1       4.500   6.694  17.270  0.00  0.00    +0.000 A 
ATOM     14  C   UNL     1       3.181   6.634  17.739  0.00  0.00    +0.000 A 
ATOM     15  C   UNL     1       2.562   5.376  17.855  0.00  0.00    +0.000 A 
BRANCH  10  16
ATOM     16  O   UNL     1       2.705   2.947  17.624  0.00  0.00    +0.000 OA
BRANCH  16  17
ATOM     17  C   UNL     1       3.459   2.033  18.429  0.00  0.00    +0.000 C 
BRANCH  17  18
ATOM     18  C   UNL     1       3.195   2.362  19.896  0.00  0.00    +0.000 C 
BRANCH  18  20
ATOM     19  C   UNL     1       1.433   2.823  21.636  0.00  0.00    +0.000 C 
ATOM     20  C   UNL     1       1.698   2.460  20.185  0.00  0.00    +0.000 C 
ENDBRANCH  18  20
ENDBRANCH  17  18
ENDBRANCH  16  17
ENDBRANCH  10  16
ENDBRANCH   1  14
BRANCH   6  21
ATOM     21  C   UNL     1      -0.774  11.128  22.023  0.00  0.00    +0.000 C 
BRANCH  21  22
ATOM     22  S   UNL     1      -0.951  12.581  20.930  0.00  0.00    +0.000 S 
BRANCH  22  23
ATOM     23  C   UNL     1      -2.413  12.224  19.980  0.00  0.00    +0.000 A 
ATOM     24  C   UNL     1      -3.620  12.712  20.498  0.00  0.00    +0.000 A 
ATOM     25  C   UNL     1      -4.810  12.595  19.780  0.00  0.00    +0.000 A 
ATOM     26  C   UNL     1      -4.818  11.986  18.525  0.00  0.00    +0.000 A 
ATOM     27  C   UNL     1      -6.084  11.903  17.726  0.00  0.00    +0.000 C 
ATOM     28  C   UNL     1      -3.616  11.480  18.011  0.00  0.00    +0.000 A 
ATOM     29  C   UNL     1      -2.420  11.598  18.732  0.00  0.00    +0.000 A 
ENDBRANCH  22  23
ENDBRANCH  21  22
ENDBRANCH   6  21
TORSDOF 8
ENDMDL
MODEL 5
REMARK VINA RESULT:      -7.3      3.131      4.728
REMARK  Name = 
REMARK  10 active torsions:
REMARK  status: ('A' for Active; 'I' for Inactive)
REMARK    1  A    between atoms: C_1  and  C_2
REMARK    2  A    between atoms: C_2  and  C_3
REMARK    3  A    between atoms: C_3  and  C_4
REMARK    4  A    between atoms: C_4  and  O_5
REMARK    5  A    between atoms: O_5  and  C_6
REMARK    6  A    between atoms: C_10  and  C_11
REMARK    7  A    between atoms: C_16  and  C_18
REMARK    8  A    between atoms: C_18  and  S_19
REMARK    9  A    between atoms: S_19  and  C_20
REMARK   10  A    between atoms: C_23  and  C_24
REMARK                            x       y       z     vdW  Elec       q    Type
REMARK                         _______ _______ _______ _____ _____    ______ ____
ROOT
ATOM      1  C   UNL     1       4.234   6.278  18.301  0.00  0.00    +0.000 A 
ATOM      2  N   UNL     1       3.625   5.813  19.372  0.00  0.00    +0.000 NA
ATOM      3  N   UNL     1       2.491   6.548  19.686  0.00  0.00    +0.000 NA
ATOM      4  C   UNL     1       2.339   7.579  18.892  0.00  0.00    +0.000 A 
ATOM      5  N   UNL     1       1.294   8.463  18.998  0.00  0.00    +0.000 N 
ATOM      6  C   UNL     1       1.204   9.708  18.410  0.00  0.00    +0.000 C 
ATOM      7  O   UNL     1       1.997  10.189  17.602  0.00  0.00    +0.000 OA
ATOM      8  S   UNL     1       3.515   7.712  17.677  0.00  0.00    +0.000 S 
ATOM      9  H   UNL     1       0.638   8.241  19.739  0.00  0.00    +0.000 HD
ENDROOT
BRANCH   1  14
ATOM     10  C   UNL     1       6.557   4.967  15.620  0.00  0.00    +0.000 A 
ATOM     11  C   UNL     1       7.625   4.516  16.392  0.00  0.00    +0.000 A 
ATOM     12  C   UNL     1       7.603   4.662  17.782  0.00  0.00    +0.000 A 
ATOM     13  C   UNL     1       6.500   5.248  18.409  0.00  0.00    +0.000 A 
ATOM     14  C   UNL     1       5.410   5.693  17.648  0.00  0.00    +0.000 A 
ATOM     15  C   UNL     1       5.455   5.537  16.250  0.00  0.00    +0.000 A 
BRANCH  10  16
ATOM     16  O   UNL     1       6.653   4.751  14.271  0.00  0.00    +0.000 OA
BRANCH  16  17
ATOM     17  C   UNL     1       5.682   3.860  13.712  0.00  0.00    +0.000 C 
BRANCH  17  18
ATOM     18  C   UNL     1       6.116   3.515  12.290  0.00  0.00    +0.000 C 
BRANCH  18  20
ATOM     19  C   UNL     1       3.964   3.291  11.000  0.00  0.00    +0.000 C 
ATOM     20  C   UNL     1       5.135   2.551  11.625  0.00  0.00    +0.000 C 
ENDBRANCH  18  20
ENDBRANCH  17  18
ENDBRANCH  16  17
ENDBRANCH  10  16
ENDBRANCH   1  14
BRANCH   6  21
ATOM     21  C   UNL     1      -0.045  10.500  18.799  0.00  0.00    +0.000 C 
BRANCH  21  22
ATOM     22  S   UNL     1       0.415  12.079  19.596  0.00  0.00    +0.000 S 
BRANCH  22  23
ATOM     23  C   UNL     1      -0.674  12.179  20.999  0.00  0.00    +0.000 A 
ATOM     24  C   UNL     1      -1.713  13.115  20.909  0.00  0.00    +0.000 A 
ATOM     25  C   UNL     1      -2.696  13.197  21.896  0.00  0.00    +0.000 A 
ATOM     26  C   UNL     1      -2.660  12.342  22.997  0.00  0.00    +0.000 A 
ATOM     27  C   UNL     1      -3.741  12.390  24.035  0.00  0.00    +0.000 C 
ATOM     28  C   UNL     1      -1.613  11.416  23.101  0.00  0.00    +0.000 A 
ATOM     29  C   UNL     1      -0.626  11.333  22.109  0.00  0.00    +0.000 A 
ENDBRANCH  22  23
ENDBRANCH  21  22
ENDBRANCH   6  21
TORSDOF 8
ENDMDL
MODEL 6
REMARK VINA RESULT:      -7.3      1.481      1.589
REMARK  Name = 
REMARK  10 active torsions:
REMARK  status: ('A' for Active; 'I' for Inactive)
REMARK    1  A    between atoms: C_1  and  C_2
REMARK    2  A    between atoms: C_2  and  C_3
REMARK    3  A    between atoms: C_3  and  C_4
REMARK    4  A    between atoms: C_4  and  O_5
REMARK    5  A    between atoms: O_5  and  C_6
REMARK    6  A    between atoms: C_10  and  C_11
REMARK    7  A    between atoms: C_16  and  C_18
REMARK    8  A    between atoms: C_18  and  S_19
REMARK    9  A    between atoms: S_19  and  C_20
REMARK   10  A    between atoms: C_23  and  C_24
REMARK                            x       y       z     vdW  Elec       q    Type
REMARK                         _______ _______ _______ _____ _____    ______ ____
ROOT
ATOM      1  C   UNL     1       2.181   7.621  19.236  0.00  0.00    +0.000 A 
ATOM      2  N   UNL     1       1.933   7.370  20.504  0.00  0.00    +0.000 NA
ATOM      3  N   UNL     1       1.040   8.281  21.051  0.00  0.00    +0.000 NA
ATOM      4  C   UNL     1       0.718   9.223  20.199  0.00  0.00    +0.000 A 
ATOM      5  N   UNL     1      -0.150  10.244  20.499  0.00  0.00    +0.000 N 
ATOM      6  C   UNL     1      -0.326  11.412  19.785  0.00  0.00    +0.000 C 
ATOM      7  O   UNL     1       0.185  11.685  18.700  0.00  0.00    +0.000 OA
ATOM      8  S   UNL     1       1.420   9.055  18.664  0.00  0.00    +0.000 S 
ATOM      9  H   UNL     1      -0.532  10.199  21.437  0.00  0.00    +0.000 HD
ENDROOT
BRANCH   1  14
ATOM     10  C   UNL     1       3.771   4.629  17.556  0.00  0.00    +0.000 A 
ATOM     11  C   UNL     1       4.642   5.255  16.668  0.00  0.00    +0.000 A 
ATOM     12  C   UNL     1       4.694   6.650  16.595  0.00  0.00    +0.000 A 
ATOM     13  C   UNL     1       3.882   7.427  17.426  0.00  0.00    +0.000 A 
ATOM     14  C   UNL     1       3.012   6.812  18.337  0.00  0.00    +0.000 A 
ATOM     15  C   UNL     1       2.975   5.407  18.392  0.00  0.00    +0.000 A 
BRANCH  10  16
ATOM     16  O   UNL     1       3.814   3.260  17.581  0.00  0.00    +0.000 OA
BRANCH  16  17
ATOM     17  C   UNL     1       2.549   2.595  17.504  0.00  0.00    +0.000 C 
BRANCH  17  18
ATOM     18  C   UNL     1       2.233   2.014  18.881  0.00  0.00    +0.000 C 
BRANCH  18  20
ATOM     19  C   UNL     1       1.138   3.280  20.763  0.00  0.00    +0.000 C 
ATOM     20  C   UNL     1       0.924   2.574  19.435  0.00  0.00    +0.000 C 
ENDBRANCH  18  20
ENDBRANCH  17  18
ENDBRANCH  16  17
ENDBRANCH  10  16
ENDBRANCH   1  14
BRANCH   6  21
ATOM     21  C   UNL     1      -1.296  12.403  20.429  0.00  0.00    +0.000 C 
BRANCH  21  22
ATOM     22  S   UNL     1      -1.230  12.280  22.251  0.00  0.00    +0.000 S 
BRANCH  22  23
ATOM     23  C   UNL     1      -2.908  12.585  22.759  0.00  0.00    +0.000 A 
ATOM     24  C   UNL     1      -3.819  12.875  21.736  0.00  0.00    +0.000 A 
ATOM     25  C   UNL     1      -5.181  13.013  22.004  0.00  0.00    +0.000 A 
ATOM     26  C   UNL     1      -5.661  12.863  23.305  0.00  0.00    +0.000 A 
ATOM     27  C   UNL     1      -7.130  12.960  23.592  0.00  0.00    +0.000 C 
ATOM     28  C   UNL     1      -4.751  12.591  24.335  0.00  0.00    +0.000 A 
ATOM     29  C   UNL     1      -3.382  12.451  24.066  0.00  0.00    +0.000 A 
ENDBRANCH  22  23
ENDBRANCH  21  22
ENDBRANCH   6  21
TORSDOF 8
ENDMDL
MODEL 7
REMARK VINA RESULT:      -7.3      2.731      4.305
REMARK  Name = 
REMARK  10 active torsions:
REMARK  status: ('A' for Active; 'I' for Inactive)
REMARK    1  A    between atoms: C_1  and  C_2
REMARK    2  A    between atoms: C_2  and  C_3
REMARK    3  A    between atoms: C_3  and  C_4
REMARK    4  A    between atoms: C_4  and  O_5
REMARK    5  A    between atoms: O_5  and  C_6
REMARK    6  A    between atoms: C_10  and  C_11
REMARK    7  A    between atoms: C_16  and  C_18
REMARK    8  A    between atoms: C_18  and  S_19
REMARK    9  A    between atoms: S_19  and  C_20
REMARK   10  A    between atoms: C_23  and  C_24
REMARK                            x       y       z     vdW  Elec       q    Type
REMARK                         _______ _______ _______ _____ _____    ______ ____
ROOT
ATOM      1  C   UNL     1       2.186   6.828  19.647  0.00  0.00    +0.000 A 
ATOM      2  N   UNL     1       1.589   6.956  20.813  0.00  0.00    +0.000 NA
ATOM      3  N   UNL     1       0.982   8.197  20.953  0.00  0.00    +0.000 NA
ATOM      4  C   UNL     1       1.215   8.975  19.925  0.00  0.00    +0.000 A 
ATOM      5  N   UNL     1       0.726  10.254  19.823  0.00  0.00    +0.000 N 
ATOM      6  C   UNL     1       1.142  11.228  18.939  0.00  0.00    +0.000 C 
ATOM      7  O   UNL     1       1.945  11.080  18.019  0.00  0.00    +0.000 OA
ATOM      8  S   UNL     1       2.135   8.259  18.692  0.00  0.00    +0.000 S 
ATOM      9  H   UNL     1       0.154  10.541  20.610  0.00  0.00    +0.000 HD
ENDROOT
BRANCH   1  14
ATOM     10  C   UNL     1       4.895   4.352  18.730  0.00  0.00    +0.000 A 
ATOM     11  C   UNL     1       4.143   3.352  18.117  0.00  0.00    +0.000 A 
ATOM     12  C   UNL     1       2.753   3.469  18.026  0.00  0.00    +0.000 A 
ATOM     13  C   UNL     1       2.109   4.599  18.536  0.00  0.00    +0.000 A 
ATOM     14  C   UNL     1       2.852   5.622  19.140  0.00  0.00    +0.000 A 
ATOM     15  C   UNL     1       4.250   5.483  19.222  0.00  0.00    +0.000 A 
BRANCH  10  16
ATOM     16  O   UNL     1       6.251   4.166  18.742  0.00  0.00    +0.000 OA
BRANCH  16  17
ATOM     17  C   UNL     1       7.014   5.088  17.954  0.00  0.00    +0.000 C 
BRANCH  17  18
ATOM     18  C   UNL     1       7.278   4.446  16.595  0.00  0.00    +0.000 C 
BRANCH  18  20
ATOM     19  C   UNL     1       6.247   4.142  14.317  0.00  0.00    +0.000 C 
ATOM     20  C   UNL     1       6.415   5.076  15.503  0.00  0.00    +0.000 C 
ENDBRANCH  18  20
ENDBRANCH  17  18
ENDBRANCH  16  17
ENDBRANCH  10  16
ENDBRANCH   1  14
BRANCH   6  21
ATOM     21  C   UNL     1       0.471  12.588  19.139  0.00  0.00    +0.000 C 
BRANCH  21  22
ATOM     22  S   UNL     1      -0.758  12.510  20.489  0.00  0.00    +0.000 S 
BRANCH  22  23
ATOM     23  C   UNL     1      -2.288  12.158  19.651  0.00  0.00    +0.000 A 
ATOM     24  C   UNL     1      -3.455  12.606  20.284  0.00  0.00    +0.000 A 
ATOM     25  C   UNL     1      -4.698  12.492  19.663  0.00  0.00    +0.000 A 
ATOM     26  C   UNL     1      -4.801  11.926  18.392  0.00  0.00    +0.000 A 
ATOM     27  C   UNL     1      -6.128  11.847  17.697  0.00  0.00    +0.000 C 
ATOM     28  C   UNL     1      -3.639  11.461  17.762  0.00  0.00    +0.000 A 
ATOM     29  C   UNL     1      -2.389  11.576  18.386  0.00  0.00    +0.000 A 
ENDBRANCH  22  23
ENDBRANCH  21  22
ENDBRANCH   6  21
TORSDOF 8
ENDMDL
MODEL 8
REMARK VINA RESULT:      -7.3      1.684      3.291
REMARK  Name = 
REMARK  10 active torsions:
REMARK  status: ('A' for Active; 'I' for Inactive)
REMARK    1  A    between atoms: C_1  and  C_2
REMARK    2  A    between atoms: C_2  and  C_3
REMARK    3  A    between atoms: C_3  and  C_4
REMARK    4  A    between atoms: C_4  and  O_5
REMARK    5  A    between atoms: O_5  and  C_6
REMARK    6  A    between atoms: C_10  and  C_11
REMARK    7  A    between atoms: C_16  and  C_18
REMARK    8  A    between atoms: C_18  and  S_19
REMARK    9  A    between atoms: S_19  and  C_20
REMARK   10  A    between atoms: C_23  and  C_24
REMARK                            x       y       z     vdW  Elec       q    Type
REMARK                         _______ _______ _______ _____ _____    ______ ____
ROOT
ATOM      1  C   UNL     1       2.281   8.025  18.226  0.00  0.00    +0.000 A 
ATOM      2  N   UNL     1       2.153   9.001  17.351  0.00  0.00    +0.000 NA
ATOM      3  N   UNL     1       1.534  10.115  17.901  0.00  0.00    +0.000 NA
ATOM      4  C   UNL     1       1.153   9.904  19.137  0.00  0.00    +0.000 A 
ATOM      5  N   UNL     1       0.516  10.852  19.899  0.00  0.00    +0.000 N 
ATOM      6  C   UNL     1      -0.165  10.638  21.081  0.00  0.00    +0.000 C 
ATOM      7  O   UNL     1      -0.221   9.580  21.706  0.00  0.00    +0.000 OA
ATOM      8  S   UNL     1       1.554   8.373  19.747  0.00  0.00    +0.000 S 
ATOM      9  H   UNL     1       0.378  11.738  19.426  0.00  0.00    +0.000 HD
ENDROOT
BRANCH   1  14
ATOM     10  C   UNL     1       4.945   5.491  17.337  0.00  0.00    +0.000 A 
ATOM     11  C   UNL     1       4.245   4.299  17.513  0.00  0.00    +0.000 A 
ATOM     12  C   UNL     1       2.916   4.317  17.947  0.00  0.00    +0.000 A 
ATOM     13  C   UNL     1       2.275   5.534  18.192  0.00  0.00    +0.000 A 
ATOM     14  C   UNL     1       2.959   6.743  18.004  0.00  0.00    +0.000 A 
ATOM     15  C   UNL     1       4.296   6.701  17.569  0.00  0.00    +0.000 A 
BRANCH  10  16
ATOM     16  O   UNL     1       6.229   5.375  16.878  0.00  0.00    +0.000 OA
BRANCH  16  17
ATOM     17  C   UNL     1       7.217   5.058  17.865  0.00  0.00    +0.000 C 
BRANCH  17  18
ATOM     18  C   UNL     1       7.719   6.366  18.473  0.00  0.00    +0.000 C 
BRANCH  18  20
ATOM     19  C   UNL     1       8.226   8.795  18.041  0.00  0.00    +0.000 C 
ATOM     20  C   UNL     1       7.780   7.479  17.428  0.00  0.00    +0.000 C 
ENDBRANCH  18  20
ENDBRANCH  17  18
ENDBRANCH  16  17
ENDBRANCH  10  16
ENDBRANCH   1  14
BRANCH   6  21
ATOM     21  C   UNL     1      -0.855  11.881  21.644  0.00  0.00    +0.000 C 
BRANCH  21  22
ATOM     22  S   UNL     1      -1.663  11.504  23.239  0.00  0.00    +0.000 S 
BRANCH  22  23
ATOM     23  C   UNL     1      -3.240  12.320  23.120  0.00  0.00    +0.000 A 
ATOM     24  C   UNL     1      -3.657  12.671  21.829  0.00  0.00    +0.000 A 
ATOM     25  C   UNL     1      -4.926  13.205  21.604  0.00  0.00    +0.000 A 
ATOM     26  C   UNL     1      -5.806  13.400  22.669  0.00  0.00    +0.000 A 
ATOM     27  C   UNL     1      -7.190  13.926  22.427  0.00  0.00    +0.000 C 
ATOM     28  C   UNL     1      -5.387  13.067  23.964  0.00  0.00    +0.000 A 
ATOM     29  C   UNL     1      -4.112  12.529  24.190  0.00  0.00    +0.000 A 
ENDBRANCH  22  23
ENDBRANCH  21  22
ENDBRANCH   6  21
TORSDOF 8
ENDMDL
MODEL 9
REMARK VINA RESULT:      -7.3      1.972      9.614
REMARK  Name = 
REMARK  10 active torsions:
REMARK  status: ('A' for Active; 'I' for Inactive)
REMARK    1  A    between atoms: C_1  and  C_2
REMARK    2  A    between atoms: C_2  and  C_3
REMARK    3  A    between atoms: C_3  and  C_4
REMARK    4  A    between atoms: C_4  and  O_5
REMARK    5  A    between atoms: O_5  and  C_6
REMARK    6  A    between atoms: C_10  and  C_11
REMARK    7  A    between atoms: C_16  and  C_18
REMARK    8  A    between atoms: C_18  and  S_19
REMARK    9  A    between atoms: S_19  and  C_20
REMARK   10  A    between atoms: C_23  and  C_24
REMARK                            x       y       z     vdW  Elec       q    Type
REMARK                         _______ _______ _______ _____ _____    ______ ____
ROOT
ATOM      1  C   UNL     1       1.114   9.294  19.706  0.00  0.00    +0.000 A 
ATOM      2  N   UNL     1       1.134   9.836  18.506  0.00  0.00    +0.000 NA
ATOM      3  N   UNL     1       1.898   9.098  17.614  0.00  0.00    +0.000 NA
ATOM      4  C   UNL     1       2.484   8.080  18.195  0.00  0.00    +0.000 A 
ATOM      5  N   UNL     1       3.295   7.197  17.527  0.00  0.00    +0.000 N 
ATOM      6  C   UNL     1       4.165   6.286  18.092  0.00  0.00    +0.000 C 
ATOM      7  O   UNL     1       4.278   6.037  19.291  0.00  0.00    +0.000 OA
ATOM      8  S   UNL     1       2.120   7.904  19.843  0.00  0.00    +0.000 S 
ATOM      9  H   UNL     1       3.392   7.393  16.537  0.00  0.00    +0.000 HD
ENDROOT
BRANCH   1  14
ATOM     10  C   UNL     1      -1.108  11.438  21.889  0.00  0.00    +0.000 A 
ATOM     11  C   UNL     1      -1.085  10.716  23.081  0.00  0.00    +0.000 A 
ATOM     12  C   UNL     1      -0.370   9.518  23.167  0.00  0.00    +0.000 A 
ATOM     13  C   UNL     1       0.341   9.044  22.061  0.00  0.00    +0.000 A 
ATOM     14  C   UNL     1       0.342   9.767  20.860  0.00  0.00    +0.000 A 
ATOM     15  C   UNL     1      -0.386  10.969  20.796  0.00  0.00    +0.000 A 
BRANCH  10  16
ATOM     16  O   UNL     1      -1.807  12.616  21.911  0.00  0.00    +0.000 OA
BRANCH  16  17
ATOM     17  C   UNL     1      -1.427  13.547  22.930  0.00  0.00    +0.000 C 
BRANCH  17  18
ATOM     18  C   UNL     1      -2.700  14.099  23.568  0.00  0.00    +0.000 C 
BRANCH  18  20
ATOM     19  C   UNL     1      -4.294  12.463  24.630  0.00  0.00    +0.000 C 
ATOM     20  C   UNL     1      -3.886  13.162  23.344  0.00  0.00    +0.000 C 
ENDBRANCH  18  20
ENDBRANCH  17  18
ENDBRANCH  16  17
ENDBRANCH  10  16
ENDBRANCH   1  14
BRANCH   6  21
ATOM     21  C   UNL     1       5.008   5.509  17.081  0.00  0.00    +0.000 C 
BRANCH  21  22
ATOM     22  S   UNL     1       4.126   4.010  16.520  0.00  0.00    +0.000 S 
BRANCH  22  23
ATOM     23  C   UNL     1       3.197   3.503  17.950  0.00  0.00    +0.000 A 
ATOM     24  C   UNL     1       3.926   2.875  18.968  0.00  0.00    +0.000 A 
ATOM     25  C   UNL     1       3.325   2.543  20.182  0.00  0.00    +0.000 A 
ATOM     26  C   UNL     1       1.979   2.834  20.404  0.00  0.00    +0.000 A 
ATOM     27  C   UNL     1       1.340   2.527  21.726  0.00  0.00    +0.000 C 
ATOM     28  C   UNL     1       1.241   3.447  19.382  0.00  0.00    +0.000 A 
ATOM     29  C   UNL     1       1.845   3.781  18.162  0.00  0.00    +0.000 A 
ENDBRANCH  22  23
ENDBRANCH  21  22
ENDBRANCH   6  21
TORSDOF 8
ENDMDL
