MODEL 1
REMARK VINA RESULT:      -7.5      0.000      0.000
REMARK  Name = 
REMARK  12 active torsions:
REMARK  status: ('A' for Active; 'I' for Inactive)
REMARK    1  A    between atoms: C_1  and  O_2
REMARK    2  A    between atoms: O_2  and  C_3
REMARK    3  A    between atoms: C_3  and  C_5
REMARK    4  A    between atoms: C_8  and  N_9
REMARK    5  A    between atoms: N_9  and  C_10
REMARK    6  A    between atoms: C_10  and  N_12
REMARK    7  A    between atoms: N_12  and  C_13
REMARK    8  A    between atoms: C_13  and  N_14
REMARK    9  A    between atoms: C_13  and  C_25
REMARK   10  A    between atoms: C_15  and  O_17
REMARK   11  A    between atoms: O_17  and  C_18
REMARK   12  A    between atoms: C_18  and  C_19
REMARK                            x       y       z     vdW  Elec       q    Type
REMARK                         _______ _______ _______ _____ _____    ______ ____
ROOT
ATOM      1  C   UNL     1       5.866   6.259  16.785  0.00  0.00    +0.000 C 
ENDROOT
BRANCH   1   2
ATOM      2  N   UNL     1       6.724   7.438  16.829  0.00  0.00    +0.000 N 
ATOM      3  C   UNL     1       7.659   7.650  17.795  0.00  0.00    +0.000 C 
ATOM      4  O   UNL     1       7.888   6.871  18.711  0.00  0.00    +0.000 OA
ATOM      5  H   UNL     1       6.661   8.137  16.103  0.00  0.00    +0.000 HD
BRANCH   3   6
ATOM      6  O   UNL     1       8.169   8.891  17.662  0.00  0.00    +0.000 OA
BRANCH   6   7
ATOM      7  C   UNL     1       8.888   9.361  18.808  0.00  0.00    +0.000 C 
BRANCH   7   8
ATOM      8  C   UNL     1       9.337  10.785  18.638  0.00  0.00    +0.000 A 
ATOM      9  C   UNL     1      10.470  11.254  19.316  0.00  0.00    +0.000 A 
ATOM     10  C   UNL     1      10.917  12.561  19.124  0.00  0.00    +0.000 A 
ATOM     11  C   UNL     1      10.230  13.414  18.261  0.00  0.00    +0.000 A 
ATOM     12  C   UNL     1       9.092  12.963  17.595  0.00  0.00    +0.000 A 
ATOM     13  C   UNL     1       8.643  11.655  17.787  0.00  0.00    +0.000 A 
ENDBRANCH   7   8
ENDBRANCH   6   7
ENDBRANCH   3   6
ENDBRANCH   1   2
BRANCH   1  14
ATOM     14  C   UNL     1       6.541   4.928  16.210  0.00  0.00    +0.000 C 
ATOM     15 CL   UNL     1       5.362   3.617  15.860  0.00  0.00    +0.000 Cl
ATOM     16 CL   UNL     1       7.420   5.301  14.671  0.00  0.00    +0.000 Cl
ATOM     17 CL   UNL     1       7.787   4.243  17.332  0.00  0.00    +0.000 Cl
ENDBRANCH   1  14
BRANCH   1  18
ATOM     18  N   UNL     1       5.237   6.154  18.104  0.00  0.00    +0.000 N 
ATOM     19  H   UNL     1       5.818   6.513  18.859  0.00  0.00    +0.000 HD
BRANCH  18  20
ATOM     20  C   UNL     1       4.082   5.527  18.496  0.00  0.00    +0.000 C 
ATOM     21  S   UNL     1       4.046   4.060  19.291  0.00  0.00    +0.000 S 
BRANCH  20  22
ATOM     22  N   UNL     1       2.992   6.257  18.031  0.00  0.00    +0.000 N 
ATOM     23  H   UNL     1       2.429   5.763  17.347  0.00  0.00    +0.000 HD
BRANCH  22  27
ATOM     24  C   UNL     1       1.176   9.623  19.799  0.00  0.00    +0.000 A 
ATOM     25  C   UNL     1       1.498   9.632  18.438  0.00  0.00    +0.000 A 
ATOM     26  C   UNL     1       2.105   8.525  17.848  0.00  0.00    +0.000 A 
ATOM     27  C   UNL     1       2.401   7.396  18.609  0.00  0.00    +0.000 A 
ATOM     28  C   UNL     1       2.031   7.356  19.958  0.00  0.00    +0.000 A 
ATOM     29  C   UNL     1       1.439   8.475  20.559  0.00  0.00    +0.000 A 
BRANCH  24  30
ATOM     30  C   UNL     1       0.554  10.849  20.365  0.00  0.00    +0.000 C 
ATOM     31  O   UNL     1       0.664  11.178  21.533  0.00  0.00    +0.000 OA
BRANCH  30  33
ATOM     32  C   UNL     1      -1.556  11.459  19.595  0.00  0.00    +0.000 C 
ATOM     33  O   UNL     1      -0.143  11.521  19.416  0.00  0.00    +0.000 OA
ENDBRANCH  30  33
ENDBRANCH  24  30
ENDBRANCH  22  27
ENDBRANCH  20  22
ENDBRANCH  18  20
ENDBRANCH   1  18
TORSDOF 11
ENDMDL
MODEL 2
REMARK VINA RESULT:      -7.2      4.573      5.557
REMARK  Name = 
REMARK  12 active torsions:
REMARK  status: ('A' for Active; 'I' for Inactive)
REMARK    1  A    between atoms: C_1  and  O_2
REMARK    2  A    between atoms: O_2  and  C_3
REMARK    3  A    between atoms: C_3  and  C_5
REMARK    4  A    between atoms: C_8  and  N_9
REMARK    5  A    between atoms: N_9  and  C_10
REMARK    6  A    between atoms: C_10  and  N_12
REMARK    7  A    between atoms: N_12  and  C_13
REMARK    8  A    between atoms: C_13  and  N_14
REMARK    9  A    between atoms: C_13  and  C_25
REMARK   10  A    between atoms: C_15  and  O_17
REMARK   11  A    between atoms: O_17  and  C_18
REMARK   12  A    between atoms: C_18  and  C_19
REMARK                            x       y       z     vdW  Elec       q    Type
REMARK                         _______ _______ _______ _____ _____    ______ ____
ROOT
ATOM      1  C   UNL     1       3.417   3.784  18.290  0.00  0.00    +0.000 C 
ENDROOT
BRANCH   1   2
ATOM      2  N   UNL     1       4.588   3.921  17.431  0.00  0.00    +0.000 N 
ATOM      3  C   UNL     1       5.844   4.142  17.905  0.00  0.00    +0.000 C 
ATOM      4  O   UNL     1       6.123   4.231  19.093  0.00  0.00    +0.000 OA
ATOM      5  H   UNL     1       4.494   3.825  16.430  0.00  0.00    +0.000 HD
BRANCH   3   6
ATOM      6  O   UNL     1       6.676   4.387  16.873  0.00  0.00    +0.000 OA
BRANCH   6   7
ATOM      7  C   UNL     1       6.142   5.270  15.880  0.00  0.00    +0.000 C 
BRANCH   7   8
ATOM      8  C   UNL     1       6.440   4.790  14.487  0.00  0.00    +0.000 A 
ATOM      9  C   UNL     1       5.605   3.849  13.870  0.00  0.00    +0.000 A 
ATOM     10  C   UNL     1       5.852   3.438  12.560  0.00  0.00    +0.000 A 
ATOM     11  C   UNL     1       6.941   3.954  11.860  0.00  0.00    +0.000 A 
ATOM     12  C   UNL     1       7.788   4.878  12.471  0.00  0.00    +0.000 A 
ATOM     13  C   UNL     1       7.542   5.291  13.781  0.00  0.00    +0.000 A 
ENDBRANCH   7   8
ENDBRANCH   6   7
ENDBRANCH   3   6
ENDBRANCH   1   2
BRANCH   1  14
ATOM     14  C   UNL     1       3.214   2.351  18.969  0.00  0.00    +0.000 C 
ATOM     15 CL   UNL     1       1.496   1.832  19.056  0.00  0.00    +0.000 Cl
ATOM     16 CL   UNL     1       4.120   1.094  18.030  0.00  0.00    +0.000 Cl
ATOM     17 CL   UNL     1       3.881   2.281  20.652  0.00  0.00    +0.000 Cl
ENDBRANCH   1  14
BRANCH   1  18
ATOM     18  N   UNL     1       3.428   4.938  19.194  0.00  0.00    +0.000 N 
ATOM     19  H   UNL     1       4.359   5.320  19.349  0.00  0.00    +0.000 HD
BRANCH  18  20
ATOM     20  C   UNL     1       2.432   5.479  19.965  0.00  0.00    +0.000 C 
ATOM     21  S   UNL     1       1.075   4.639  20.451  0.00  0.00    +0.000 S 
BRANCH  20  22
ATOM     22  N   UNL     1       2.699   6.831  20.165  0.00  0.00    +0.000 N 
ATOM     23  H   UNL     1       3.668   7.028  20.389  0.00  0.00    +0.000 HD
BRANCH  22  27
ATOM     24  C   UNL     1       0.414  10.161  18.965  0.00  0.00    +0.000 A 
ATOM     25  C   UNL     1       0.411   9.753  20.303  0.00  0.00    +0.000 A 
ATOM     26  C   UNL     1       1.160   8.648  20.705  0.00  0.00    +0.000 A 
ATOM     27  C   UNL     1       1.917   7.935  19.779  0.00  0.00    +0.000 A 
ATOM     28  C   UNL     1       1.971   8.371  18.450  0.00  0.00    +0.000 A 
ATOM     29  C   UNL     1       1.205   9.469  18.037  0.00  0.00    +0.000 A 
BRANCH  24  30
ATOM     30  C   UNL     1      -0.427  11.332  18.605  0.00  0.00    +0.000 C 
ATOM     31  O   UNL     1       0.017  12.460  18.469  0.00  0.00    +0.000 OA
BRANCH  30  33
ATOM     32  C   UNL     1      -2.639  11.873  19.087  0.00  0.00    +0.000 C 
ATOM     33  O   UNL     1      -1.727  10.972  18.464  0.00  0.00    +0.000 OA
ENDBRANCH  30  33
ENDBRANCH  24  30
ENDBRANCH  22  27
ENDBRANCH  20  22
ENDBRANCH  18  20
ENDBRANCH   1  18
TORSDOF 11
ENDMDL
MODEL 3
REMARK VINA RESULT:      -7.2      4.883      6.065
REMARK  Name = 
REMARK  12 active torsions:
REMARK  status: ('A' for Active; 'I' for Inactive)
REMARK    1  A    between atoms: C_1  and  O_2
REMARK    2  A    between atoms: O_2  and  C_3
REMARK    3  A    between atoms: C_3  and  C_5
REMARK    4  A    between atoms: C_8  and  N_9
REMARK    5  A    between atoms: N_9  and  C_10
REMARK    6  A    between atoms: C_10  and  N_12
REMARK    7  A    between atoms: N_12  and  C_13
REMARK    8  A    between atoms: C_13  and  N_14
REMARK    9  A    between atoms: C_13  and  C_25
REMARK   10  A    between atoms: C_15  and  O_17
REMARK   11  A    between atoms: O_17  and  C_18
REMARK   12  A    between atoms: C_18  and  C_19
REMARK                            x       y       z     vdW  Elec       q    Type
REMARK                         _______ _______ _______ _____ _____    ______ ____
ROOT
ATOM      1  C   UNL     1       2.976   4.563  19.277  0.00  0.00    +0.000 C 
ENDROOT
BRANCH   1   2
ATOM      2  N   UNL     1       4.158   4.548  18.423  0.00  0.00    +0.000 N 
ATOM      3  C   UNL     1       4.170   4.025  17.166  0.00  0.00    +0.000 C 
ATOM      4  O   UNL     1       3.192   3.531  16.620  0.00  0.00    +0.000 OA
ATOM      5  H   UNL     1       5.020   4.965  18.745  0.00  0.00    +0.000 HD
BRANCH   3   6
ATOM      6  O   UNL     1       5.434   4.008  16.699  0.00  0.00    +0.000 OA
BRANCH   6   7
ATOM      7  C   UNL     1       5.789   5.151  15.912  0.00  0.00    +0.000 C 
BRANCH   7   8
ATOM      8  C   UNL     1       6.215   4.762  14.524  0.00  0.00    +0.000 A 
ATOM      9  C   UNL     1       7.367   5.322  13.955  0.00  0.00    +0.000 A 
ATOM     10  C   UNL     1       7.790   4.927  12.687  0.00  0.00    +0.000 A 
ATOM     11  C   UNL     1       7.062   3.977  11.971  0.00  0.00    +0.000 A 
ATOM     12  C   UNL     1       5.906   3.427  12.521  0.00  0.00    +0.000 A 
ATOM     13  C   UNL     1       5.480   3.821  13.791  0.00  0.00    +0.000 A 
ENDBRANCH   7   8
ENDBRANCH   6   7
ENDBRANCH   3   6
ENDBRANCH   1   2
BRANCH   1  14
ATOM     14  C   UNL     1       2.719   3.237  20.134  0.00  0.00    +0.000 C 
ATOM     15 CL   UNL     1       1.518   2.124  19.394  0.00  0.00    +0.000 Cl
ATOM     16 CL   UNL     1       4.270   2.322  20.327  0.00  0.00    +0.000 Cl
ATOM     17 CL   UNL     1       2.150   3.599  21.815  0.00  0.00    +0.000 Cl
ENDBRANCH   1  14
BRANCH   1  18
ATOM     18  N   UNL     1       3.019   5.823  20.024  0.00  0.00    +0.000 N 
ATOM     19  H   UNL     1       3.530   5.756  20.901  0.00  0.00    +0.000 HD
BRANCH  18  20
ATOM     20  C   UNL     1       2.369   7.011  19.809  0.00  0.00    +0.000 C 
ATOM     21  S   UNL     1       2.425   7.852  18.369  0.00  0.00    +0.000 S 
BRANCH  20  22
ATOM     22  N   UNL     1       1.772   7.421  20.998  0.00  0.00    +0.000 N 
ATOM     23  H   UNL     1       2.167   6.989  21.826  0.00  0.00    +0.000 HD
BRANCH  22  27
ATOM     24  C   UNL     1      -0.599  10.852  21.603  0.00  0.00    +0.000 A 
ATOM     25  C   UNL     1      -0.086  10.150  22.698  0.00  0.00    +0.000 A 
ATOM     26  C   UNL     1       0.693   9.011  22.506  0.00  0.00    +0.000 A 
ATOM     27  C   UNL     1       0.969   8.555  21.218  0.00  0.00    +0.000 A 
ATOM     28  C   UNL     1       0.508   9.284  20.116  0.00  0.00    +0.000 A 
ATOM     29  C   UNL     1      -0.293  10.418  20.305  0.00  0.00    +0.000 A 
BRANCH  24  30
ATOM     30  C   UNL     1      -1.442  12.043  21.885  0.00  0.00    +0.000 C 
ATOM     31  O   UNL     1      -1.800  12.830  21.025  0.00  0.00    +0.000 OA
BRANCH  30  33
ATOM     32  C   UNL     1      -3.131  12.262  23.472  0.00  0.00    +0.000 C 
ATOM     33  O   UNL     1      -1.737  12.127  23.206  0.00  0.00    +0.000 OA
ENDBRANCH  30  33
ENDBRANCH  24  30
ENDBRANCH  22  27
ENDBRANCH  20  22
ENDBRANCH  18  20
ENDBRANCH   1  18
TORSDOF 11
ENDMDL
MODEL 4
REMARK VINA RESULT:      -7.1      4.367      5.685
REMARK  Name = 
REMARK  12 active torsions:
REMARK  status: ('A' for Active; 'I' for Inactive)
REMARK    1  A    between atoms: C_1  and  O_2
REMARK    2  A    between atoms: O_2  and  C_3
REMARK    3  A    between atoms: C_3  and  C_5
REMARK    4  A    between atoms: C_8  and  N_9
REMARK    5  A    between atoms: N_9  and  C_10
REMARK    6  A    between atoms: C_10  and  N_12
REMARK    7  A    between atoms: N_12  and  C_13
REMARK    8  A    between atoms: C_13  and  N_14
REMARK    9  A    between atoms: C_13  and  C_25
REMARK   10  A    between atoms: C_15  and  O_17
REMARK   11  A    between atoms: O_17  and  C_18
REMARK   12  A    between atoms: C_18  and  C_19
REMARK                            x       y       z     vdW  Elec       q    Type
REMARK                         _______ _______ _______ _____ _____    ______ ____
ROOT
ATOM      1  C   UNL     1       2.731   5.116  18.185  0.00  0.00    +0.000 C 
ENDROOT
BRANCH   1   2
ATOM      2  N   UNL     1       3.831   5.422  17.277  0.00  0.00    +0.000 N 
ATOM      3  C   UNL     1       5.113   5.614  17.690  0.00  0.00    +0.000 C 
ATOM      4  O   UNL     1       5.478   5.533  18.856  0.00  0.00    +0.000 OA
ATOM      5  H   UNL     1       3.666   5.475  16.282  0.00  0.00    +0.000 HD
BRANCH   3   6
ATOM      6  O   UNL     1       5.860   6.041  16.653  0.00  0.00    +0.000 OA
BRANCH   6   7
ATOM      7  C   UNL     1       6.941   5.170  16.303  0.00  0.00    +0.000 C 
BRANCH   7   8
ATOM      8  C   UNL     1       6.883   4.761  14.858  0.00  0.00    +0.000 A 
ATOM      9  C   UNL     1       5.944   3.812  14.429  0.00  0.00    +0.000 A 
ATOM     10  C   UNL     1       5.857   3.467  13.080  0.00  0.00    +0.000 A 
ATOM     11  C   UNL     1       6.712   4.057  12.151  0.00  0.00    +0.000 A 
ATOM     12  C   UNL     1       7.661   4.988  12.570  0.00  0.00    +0.000 A 
ATOM     13  C   UNL     1       7.750   5.335  13.919  0.00  0.00    +0.000 A 
ENDBRANCH   7   8
ENDBRANCH   6   7
ENDBRANCH   3   6
ENDBRANCH   1   2
BRANCH   1  14
ATOM     14  C   UNL     1       2.627   3.594  18.665  0.00  0.00    +0.000 C 
ATOM     15 CL   UNL     1       3.659   2.469  17.717  0.00  0.00    +0.000 Cl
ATOM     16 CL   UNL     1       3.121   3.463  20.402  0.00  0.00    +0.000 Cl
ATOM     17 CL   UNL     1       0.932   2.959  18.588  0.00  0.00    +0.000 Cl
ENDBRANCH   1  14
BRANCH   1  18
ATOM     18  N   UNL     1       2.769   6.132  19.241  0.00  0.00    +0.000 N 
ATOM     19  H   UNL     1       3.098   5.773  20.135  0.00  0.00    +0.000 HD
BRANCH  18  20
ATOM     20  C   UNL     1       2.301   7.420  19.258  0.00  0.00    +0.000 C 
ATOM     21  S   UNL     1       2.292   8.422  17.923  0.00  0.00    +0.000 S 
BRANCH  20  22
ATOM     22  N   UNL     1       1.954   7.758  20.563  0.00  0.00    +0.000 N 
ATOM     23  H   UNL     1       2.571   7.366  21.266  0.00  0.00    +0.000 HD
BRANCH  22  27
ATOM     24  C   UNL     1      -0.609  10.825  21.897  0.00  0.00    +0.000 A 
ATOM     25  C   UNL     1      -0.291  10.716  20.540  0.00  0.00    +0.000 A 
ATOM     26  C   UNL     1       0.561   9.708  20.093  0.00  0.00    +0.000 A 
ATOM     27  C   UNL     1       1.110   8.798  20.994  0.00  0.00    +0.000 A 
ATOM     28  C   UNL     1       0.752   8.865  22.345  0.00  0.00    +0.000 A 
ATOM     29  C   UNL     1      -0.088   9.889  22.802  0.00  0.00    +0.000 A 
BRANCH  24  30
ATOM     30  C   UNL     1      -1.504  11.940  22.305  0.00  0.00    +0.000 C 
ATOM     31  O   UNL     1      -2.552  12.199  21.738  0.00  0.00    +0.000 OA
BRANCH  30  33
ATOM     32  C   UNL     1      -1.487  13.943  23.490  0.00  0.00    +0.000 C 
ATOM     33  O   UNL     1      -0.990  12.613  23.364  0.00  0.00    +0.000 OA
ENDBRANCH  30  33
ENDBRANCH  24  30
ENDBRANCH  22  27
ENDBRANCH  20  22
ENDBRANCH  18  20
ENDBRANCH   1  18
TORSDOF 11
ENDMDL
MODEL 5
REMARK VINA RESULT:      -7.1      4.150      5.731
REMARK  Name = 
REMARK  12 active torsions:
REMARK  status: ('A' for Active; 'I' for Inactive)
REMARK    1  A    between atoms: C_1  and  O_2
REMARK    2  A    between atoms: O_2  and  C_3
REMARK    3  A    between atoms: C_3  and  C_5
REMARK    4  A    between atoms: C_8  and  N_9
REMARK    5  A    between atoms: N_9  and  C_10
REMARK    6  A    between atoms: C_10  and  N_12
REMARK    7  A    between atoms: N_12  and  C_13
REMARK    8  A    between atoms: C_13  and  N_14
REMARK    9  A    between atoms: C_13  and  C_25
REMARK   10  A    between atoms: C_15  and  O_17
REMARK   11  A    between atoms: O_17  and  C_18
REMARK   12  A    between atoms: C_18  and  C_19
REMARK                            x       y       z     vdW  Elec       q    Type
REMARK                         _______ _______ _______ _____ _____    ______ ____
ROOT
ATOM      1  C   UNL     1       3.478   6.004  18.030  0.00  0.00    +0.000 C 
ENDROOT
BRANCH   1   2
ATOM      2  N   UNL     1       4.893   6.076  17.683  0.00  0.00    +0.000 N 
ATOM      3  C   UNL     1       5.354   6.594  16.511  0.00  0.00    +0.000 C 
ATOM      4  O   UNL     1       4.634   7.066  15.641  0.00  0.00    +0.000 OA
ATOM      5  H   UNL     1       5.591   5.755  18.339  0.00  0.00    +0.000 HD
BRANCH   3   6
ATOM      6  O   UNL     1       6.679   6.370  16.412  0.00  0.00    +0.000 OA
BRANCH   6   7
ATOM      7  C   UNL     1       7.029   5.012  16.123  0.00  0.00    +0.000 C 
BRANCH   7   8
ATOM      8  C   UNL     1       6.936   4.712  14.653  0.00  0.00    +0.000 A 
ATOM      9  C   UNL     1       7.749   5.397  13.739  0.00  0.00    +0.000 A 
ATOM     10  C   UNL     1       7.699   5.087  12.380  0.00  0.00    +0.000 A 
ATOM     11  C   UNL     1       6.829   4.099  11.921  0.00  0.00    +0.000 A 
ATOM     12  C   UNL     1       6.004   3.424  12.819  0.00  0.00    +0.000 A 
ATOM     13  C   UNL     1       6.053   3.733  14.180  0.00  0.00    +0.000 A 
ENDBRANCH   7   8
ENDBRANCH   6   7
ENDBRANCH   3   6
ENDBRANCH   1   2
BRANCH   1  14
ATOM     14  C   UNL     1       2.928   4.554  18.416  0.00  0.00    +0.000 C 
ATOM     15 CL   UNL     1       2.710   4.314  20.184  0.00  0.00    +0.000 Cl
ATOM     16 CL   UNL     1       1.326   4.272  17.622  0.00  0.00    +0.000 Cl
ATOM     17 CL   UNL     1       4.009   3.224  17.826  0.00  0.00    +0.000 Cl
ENDBRANCH   1  14
BRANCH   1  18
ATOM     18  N   UNL     1       3.234   7.074  19.001  0.00  0.00    +0.000 N 
ATOM     19  H   UNL     1       3.888   7.069  19.781  0.00  0.00    +0.000 HD
BRANCH  18  20
ATOM     20  C   UNL     1       2.200   7.969  19.105  0.00  0.00    +0.000 C 
ATOM     21  S   UNL     1       1.705   8.963  17.859  0.00  0.00    +0.000 S 
BRANCH  20  22
ATOM     22  N   UNL     1       1.732   7.970  20.416  0.00  0.00    +0.000 N 
ATOM     23  H   UNL     1       2.212   7.313  21.022  0.00  0.00    +0.000 HD
BRANCH  22  27
ATOM     24  C   UNL     1      -0.524  10.962  22.341  0.00  0.00    +0.000 A 
ATOM     25  C   UNL     1      -0.587   9.638  22.787  0.00  0.00    +0.000 A 
ATOM     26  C   UNL     1       0.151   8.642  22.151  0.00  0.00    +0.000 A 
ATOM     27  C   UNL     1       0.960   8.953  21.060  0.00  0.00    +0.000 A 
ATOM     28  C   UNL     1       1.073  10.284  20.642  0.00  0.00    +0.000 A 
ATOM     29  C   UNL     1       0.316  11.285  21.267  0.00  0.00    +0.000 A 
BRANCH  24  30
ATOM     30  C   UNL     1      -1.359  11.965  23.052  0.00  0.00    +0.000 C 
ATOM     31  O   UNL     1      -2.552  11.822  23.255  0.00  0.00    +0.000 OA
BRANCH  30  33
ATOM     32  C   UNL     1      -1.288  14.284  23.243  0.00  0.00    +0.000 C 
ATOM     33  O   UNL     1      -0.618  13.039  23.421  0.00  0.00    +0.000 OA
ENDBRANCH  30  33
ENDBRANCH  24  30
ENDBRANCH  22  27
ENDBRANCH  20  22
ENDBRANCH  18  20
ENDBRANCH   1  18
TORSDOF 11
ENDMDL
MODEL 6
REMARK VINA RESULT:      -7.1      4.618      8.541
REMARK  Name = 
REMARK  12 active torsions:
REMARK  status: ('A' for Active; 'I' for Inactive)
REMARK    1  A    between atoms: C_1  and  O_2
REMARK    2  A    between atoms: O_2  and  C_3
REMARK    3  A    between atoms: C_3  and  C_5
REMARK    4  A    between atoms: C_8  and  N_9
REMARK    5  A    between atoms: N_9  and  C_10
REMARK    6  A    between atoms: C_10  and  N_12
REMARK    7  A    between atoms: N_12  and  C_13
REMARK    8  A    between atoms: C_13  and  N_14
REMARK    9  A    between atoms: C_13  and  C_25
REMARK   10  A    between atoms: C_15  and  O_17
REMARK   11  A    between atoms: O_17  and  C_18
REMARK   12  A    between atoms: C_18  and  C_19
REMARK                            x       y       z     vdW  Elec       q    Type
REMARK                         _______ _______ _______ _____ _____    ______ ____
ROOT
ATOM      1  C   UNL     1       2.125   6.787  19.894  0.00  0.00    +0.000 C 
ENDROOT
BRANCH   1   2
ATOM      2  N   UNL     1       2.092   7.868  20.873  0.00  0.00    +0.000 N 
ATOM      3  C   UNL     1       0.954   8.289  21.489  0.00  0.00    +0.000 C 
ATOM      4  O   UNL     1      -0.150   7.796  21.300  0.00  0.00    +0.000 OA
ATOM      5  H   UNL     1       2.949   8.329  21.145  0.00  0.00    +0.000 HD
BRANCH   3   6
ATOM      6  O   UNL     1       1.217   9.400  22.205  0.00  0.00    +0.000 OA
BRANCH   6   7
ATOM      7  C   UNL     1       0.173   9.782  23.108  0.00  0.00    +0.000 C 
BRANCH   7   8
ATOM      8  C   UNL     1      -0.609  10.958  22.593  0.00  0.00    +0.000 A 
ATOM      9  C   UNL     1      -1.792  11.354  23.231  0.00  0.00    +0.000 A 
ATOM     10  C   UNL     1      -2.494  12.474  22.784  0.00  0.00    +0.000 A 
ATOM     11  C   UNL     1      -2.026  13.200  21.690  0.00  0.00    +0.000 A 
ATOM     12  C   UNL     1      -0.859  12.804  21.038  0.00  0.00    +0.000 A 
ATOM     13  C   UNL     1      -0.156  11.684  21.484  0.00  0.00    +0.000 A 
ENDBRANCH   7   8
ENDBRANCH   6   7
ENDBRANCH   3   6
ENDBRANCH   1   2
BRANCH   1  14
ATOM     14  C   UNL     1       2.270   7.235  18.366  0.00  0.00    +0.000 C 
ATOM     15 CL   UNL     1       3.975   7.445  17.836  0.00  0.00    +0.000 Cl
ATOM     16 CL   UNL     1       1.508   5.996  17.288  0.00  0.00    +0.000 Cl
ATOM     17 CL   UNL     1       1.406   8.788  18.015  0.00  0.00    +0.000 Cl
ENDBRANCH   1  14
BRANCH   1  18
ATOM     18  N   UNL     1       3.104   5.813  20.383  0.00  0.00    +0.000 N 
ATOM     19  H   UNL     1       3.884   6.239  20.880  0.00  0.00    +0.000 HD
BRANCH  18  20
ATOM     20  C   UNL     1       3.215   4.465  20.156  0.00  0.00    +0.000 C 
ATOM     21  S   UNL     1       1.987   3.372  20.445  0.00  0.00    +0.000 S 
BRANCH  20  22
ATOM     22  N   UNL     1       4.519   4.179  19.762  0.00  0.00    +0.000 N 
ATOM     23  H   UNL     1       5.030   3.606  20.424  0.00  0.00    +0.000 HD
BRANCH  22  27
ATOM     24  C   UNL     1       6.162   4.427  15.890  0.00  0.00    +0.000 A 
ATOM     25  C   UNL     1       6.934   4.772  17.004  0.00  0.00    +0.000 A 
ATOM     26  C   UNL     1       6.394   4.698  18.287  0.00  0.00    +0.000 A 
ATOM     27  C   UNL     1       5.078   4.283  18.475  0.00  0.00    +0.000 A 
ATOM     28  C   UNL     1       4.317   3.882  17.371  0.00  0.00    +0.000 A 
ATOM     29  C   UNL     1       4.849   3.974  16.078  0.00  0.00    +0.000 A 
BRANCH  24  30
ATOM     30  C   UNL     1       6.796   4.554  14.552  0.00  0.00    +0.000 C 
ATOM     31  O   UNL     1       7.655   5.380  14.292  0.00  0.00    +0.000 OA
BRANCH  30  33
ATOM     32  C   UNL     1       6.713   3.839  12.338  0.00  0.00    +0.000 C 
ATOM     33  O   UNL     1       6.282   3.649  13.683  0.00  0.00    +0.000 OA
ENDBRANCH  30  33
ENDBRANCH  24  30
ENDBRANCH  22  27
ENDBRANCH  20  22
ENDBRANCH  18  20
ENDBRANCH   1  18
TORSDOF 11
ENDMDL
MODEL 7
REMARK VINA RESULT:      -7.1      4.616      5.643
REMARK  Name = 
REMARK  12 active torsions:
REMARK  status: ('A' for Active; 'I' for Inactive)
REMARK    1  A    between atoms: C_1  and  O_2
REMARK    2  A    between atoms: O_2  and  C_3
REMARK    3  A    between atoms: C_3  and  C_5
REMARK    4  A    between atoms: C_8  and  N_9
REMARK    5  A    between atoms: N_9  and  C_10
REMARK    6  A    between atoms: C_10  and  N_12
REMARK    7  A    between atoms: N_12  and  C_13
REMARK    8  A    between atoms: C_13  and  N_14
REMARK    9  A    between atoms: C_13  and  C_25
REMARK   10  A    between atoms: C_15  and  O_17
REMARK   11  A    between atoms: O_17  and  C_18
REMARK   12  A    between atoms: C_18  and  C_19
REMARK                            x       y       z     vdW  Elec       q    Type
REMARK                         _______ _______ _______ _____ _____    ______ ____
ROOT
ATOM      1  C   UNL     1       3.123   4.182  18.236  0.00  0.00    +0.000 C 
ENDROOT
BRANCH   1   2
ATOM      2  N   UNL     1       4.330   4.136  17.418  0.00  0.00    +0.000 N 
ATOM      3  C   UNL     1       5.588   4.180  17.934  0.00  0.00    +0.000 C 
ATOM      4  O   UNL     1       5.837   4.244  19.130  0.00  0.00    +0.000 OA
ATOM      5  H   UNL     1       4.257   4.041  16.415  0.00  0.00    +0.000 HD
BRANCH   3   6
ATOM      6  O   UNL     1       6.481   4.288  16.930  0.00  0.00    +0.000 OA
BRANCH   6   7
ATOM      7  C   UNL     1       6.152   5.280  15.950  0.00  0.00    +0.000 C 
BRANCH   7   8
ATOM      8  C   UNL     1       6.429   4.798  14.554  0.00  0.00    +0.000 A 
ATOM      9  C   UNL     1       5.602   3.833  13.962  0.00  0.00    +0.000 A 
ATOM     10  C   UNL     1       5.828   3.420  12.649  0.00  0.00    +0.000 A 
ATOM     11  C   UNL     1       6.887   3.959  11.920  0.00  0.00    +0.000 A 
ATOM     12  C   UNL     1       7.725   4.906  12.505  0.00  0.00    +0.000 A 
ATOM     13  C   UNL     1       7.501   5.321  13.819  0.00  0.00    +0.000 A 
ENDBRANCH   7   8
ENDBRANCH   6   7
ENDBRANCH   3   6
ENDBRANCH   1   2
BRANCH   1  14
ATOM     14  C   UNL     1       2.701   2.806  18.932  0.00  0.00    +0.000 C 
ATOM     15 CL   UNL     1       3.568   1.373  18.279  0.00  0.00    +0.000 Cl
ATOM     16 CL   UNL     1       3.036   2.888  20.709  0.00  0.00    +0.000 Cl
ATOM     17 CL   UNL     1       0.927   2.470  18.783  0.00  0.00    +0.000 Cl
ENDBRANCH   1  14
BRANCH   1  18
ATOM     18  N   UNL     1       3.264   5.343  19.120  0.00  0.00    +0.000 N 
ATOM     19  H   UNL     1       3.688   5.118  20.018  0.00  0.00    +0.000 HD
BRANCH  18  20
ATOM     20  C   UNL     1       2.793   6.624  18.994  0.00  0.00    +0.000 C 
ATOM     21  S   UNL     1       3.306   7.690  17.817  0.00  0.00    +0.000 S 
BRANCH  20  22
ATOM     22  N   UNL     1       1.927   6.893  20.050  0.00  0.00    +0.000 N 
ATOM     23  H   UNL     1       1.848   6.135  20.719  0.00  0.00    +0.000 HD
BRANCH  22  27
ATOM     24  C   UNL     1       0.432  10.602  21.376  0.00  0.00    +0.000 A 
ATOM     25  C   UNL     1       0.439  10.295  20.012  0.00  0.00    +0.000 A 
ATOM     26  C   UNL     1       0.938   9.072  19.566  0.00  0.00    +0.000 A 
ATOM     27  C   UNL     1       1.439   8.142  20.474  0.00  0.00    +0.000 A 
ATOM     28  C   UNL     1       1.384   8.418  21.845  0.00  0.00    +0.000 A 
ATOM     29  C   UNL     1       0.901   9.654  22.296  0.00  0.00    +0.000 A 
BRANCH  24  30
ATOM     30  C   UNL     1      -0.092  11.934  21.776  0.00  0.00    +0.000 C 
ATOM     31  O   UNL     1      -0.550  12.170  22.881  0.00  0.00    +0.000 OA
BRANCH  30  33
ATOM     32  C   UNL     1      -1.167  13.618  20.581  0.00  0.00    +0.000 C 
ATOM     33  O   UNL     1       0.001  12.820  20.754  0.00  0.00    +0.000 OA
ENDBRANCH  30  33
ENDBRANCH  24  30
ENDBRANCH  22  27
ENDBRANCH  20  22
ENDBRANCH  18  20
ENDBRANCH   1  18
TORSDOF 11
ENDMDL
MODEL 8
REMARK VINA RESULT:      -7.1      4.788      5.859
REMARK  Name = 
REMARK  12 active torsions:
REMARK  status: ('A' for Active; 'I' for Inactive)
REMARK    1  A    between atoms: C_1  and  O_2
REMARK    2  A    between atoms: O_2  and  C_3
REMARK    3  A    between atoms: C_3  and  C_5
REMARK    4  A    between atoms: C_8  and  N_9
REMARK    5  A    between atoms: N_9  and  C_10
REMARK    6  A    between atoms: C_10  and  N_12
REMARK    7  A    between atoms: N_12  and  C_13
REMARK    8  A    between atoms: C_13  and  N_14
REMARK    9  A    between atoms: C_13  and  C_25
REMARK   10  A    between atoms: C_15  and  O_17
REMARK   11  A    between atoms: O_17  and  C_18
REMARK   12  A    between atoms: C_18  and  C_19
REMARK                            x       y       z     vdW  Elec       q    Type
REMARK                         _______ _______ _______ _____ _____    ______ ____
ROOT
ATOM      1  C   UNL     1       2.831   4.759  18.919  0.00  0.00    +0.000 C 
ENDROOT
BRANCH   1   2
ATOM      2  N   UNL     1       3.841   4.674  17.870  0.00  0.00    +0.000 N 
ATOM      3  C   UNL     1       5.144   5.024  18.052  0.00  0.00    +0.000 C 
ATOM      4  O   UNL     1       5.604   5.428  19.112  0.00  0.00    +0.000 OA
ATOM      5  H   UNL     1       3.595   4.315  16.959  0.00  0.00    +0.000 HD
BRANCH   3   6
ATOM      6  O   UNL     1       5.786   4.995  16.867  0.00  0.00    +0.000 OA
BRANCH   6   7
ATOM      7  C   UNL     1       5.151   4.186  15.871  0.00  0.00    +0.000 C 
BRANCH   7   8
ATOM      8  C   UNL     1       5.871   4.256  14.553  0.00  0.00    +0.000 A 
ATOM      9  C   UNL     1       7.008   5.062  14.411  0.00  0.00    +0.000 A 
ATOM     10  C   UNL     1       7.706   5.093  13.204  0.00  0.00    +0.000 A 
ATOM     11  C   UNL     1       7.267   4.327  12.125  0.00  0.00    +0.000 A 
ATOM     12  C   UNL     1       6.127   3.534  12.250  0.00  0.00    +0.000 A 
ATOM     13  C   UNL     1       5.428   3.503  13.458  0.00  0.00    +0.000 A 
ENDBRANCH   7   8
ENDBRANCH   6   7
ENDBRANCH   3   6
ENDBRANCH   1   2
BRANCH   1  14
ATOM     14  C   UNL     1       2.670   3.460  19.838  0.00  0.00    +0.000 C 
ATOM     15 CL   UNL     1       4.175   2.489  19.982  0.00  0.00    +0.000 Cl
ATOM     16 CL   UNL     1       2.169   3.948  21.508  0.00  0.00    +0.000 Cl
ATOM     17 CL   UNL     1       1.370   2.348  19.241  0.00  0.00    +0.000 Cl
ENDBRANCH   1  14
BRANCH   1  18
ATOM     18  N   UNL     1       3.064   6.027  19.617  0.00  0.00    +0.000 N 
ATOM     19  H   UNL     1       3.742   5.953  20.373  0.00  0.00    +0.000 HD
BRANCH  18  20
ATOM     20  C   UNL     1       2.420   7.233  19.517  0.00  0.00    +0.000 C 
ATOM     21  S   UNL     1       2.467   8.200  18.158  0.00  0.00    +0.000 S 
BRANCH  20  22
ATOM     22  N   UNL     1       1.837   7.538  20.744  0.00  0.00    +0.000 N 
ATOM     23  H   UNL     1       2.246   7.040  21.527  0.00  0.00    +0.000 HD
BRANCH  22  27
ATOM     24  C   UNL     1      -0.603  10.814  21.776  0.00  0.00    +0.000 A 
ATOM     25  C   UNL     1      -0.451  10.447  20.435  0.00  0.00    +0.000 A 
ATOM     26  C   UNL     1       0.361   9.368  20.086  0.00  0.00    +0.000 A 
ATOM     27  C   UNL     1       1.032   8.645  21.070  0.00  0.00    +0.000 A 
ATOM     28  C   UNL     1       0.839   8.970  22.417  0.00  0.00    +0.000 A 
ATOM     29  C   UNL     1       0.041  10.065  22.771  0.00  0.00    +0.000 A 
BRANCH  24  30
ATOM     30  C   UNL     1      -1.463  11.990  22.071  0.00  0.00    +0.000 C 
ATOM     31  O   UNL     1      -1.554  12.493  23.177  0.00  0.00    +0.000 OA
BRANCH  30  33
ATOM     32  C   UNL     1      -2.745  13.675  21.102  0.00  0.00    +0.000 C 
ATOM     33  O   UNL     1      -2.122  12.401  20.959  0.00  0.00    +0.000 OA
ENDBRANCH  30  33
ENDBRANCH  24  30
ENDBRANCH  22  27
ENDBRANCH  20  22
ENDBRANCH  18  20
ENDBRANCH   1  18
TORSDOF 11
ENDMDL
MODEL 9
REMARK VINA RESULT:      -7.1      5.039      6.150
REMARK  Name = 
REMARK  12 active torsions:
REMARK  status: ('A' for Active; 'I' for Inactive)
REMARK    1  A    between atoms: C_1  and  O_2
REMARK    2  A    between atoms: O_2  and  C_3
REMARK    3  A    between atoms: C_3  and  C_5
REMARK    4  A    between atoms: C_8  and  N_9
REMARK    5  A    between atoms: N_9  and  C_10
REMARK    6  A    between atoms: C_10  and  N_12
REMARK    7  A    between atoms: N_12  and  C_13
REMARK    8  A    between atoms: C_13  and  N_14
REMARK    9  A    between atoms: C_13  and  C_25
REMARK   10  A    between atoms: C_15  and  O_17
REMARK   11  A    between atoms: O_17  and  C_18
REMARK   12  A    between atoms: C_18  and  C_19
REMARK                            x       y       z     vdW  Elec       q    Type
REMARK                         _______ _______ _______ _____ _____    ______ ____
ROOT
ATOM      1  C   UNL     1       2.873   4.474  19.264  0.00  0.00    +0.000 C 
ENDROOT
BRANCH   1   2
ATOM      2  N   UNL     1       3.933   4.363  18.268  0.00  0.00    +0.000 N 
ATOM      3  C   UNL     1       3.754   3.802  17.041  0.00  0.00    +0.000 C 
ATOM      4  O   UNL     1       2.689   3.349  16.642  0.00  0.00    +0.000 OA
ATOM      5  H   UNL     1       4.850   4.739  18.462  0.00  0.00    +0.000 HD
BRANCH   3   6
ATOM      6  O   UNL     1       4.945   3.696  16.418  0.00  0.00    +0.000 OA
BRANCH   6   7
ATOM      7  C   UNL     1       5.369   4.888  15.747  0.00  0.00    +0.000 C 
BRANCH   7   8
ATOM      8  C   UNL     1       6.014   4.584  14.424  0.00  0.00    +0.000 A 
ATOM      9  C   UNL     1       5.426   3.663  13.547  0.00  0.00    +0.000 A 
ATOM     10  C   UNL     1       5.996   3.415  12.298  0.00  0.00    +0.000 A 
ATOM     11  C   UNL     1       7.164   4.077  11.920  0.00  0.00    +0.000 A 
ATOM     12  C   UNL     1       7.765   4.982  12.792  0.00  0.00    +0.000 A 
ATOM     13  C   UNL     1       7.196   5.231  14.042  0.00  0.00    +0.000 A 
ENDBRANCH   7   8
ENDBRANCH   6   7
ENDBRANCH   3   6
ENDBRANCH   1   2
BRANCH   1  14
ATOM     14  C   UNL     1       2.691   3.213  20.230  0.00  0.00    +0.000 C 
ATOM     15 CL   UNL     1       2.134   3.646  21.882  0.00  0.00    +0.000 Cl
ATOM     16 CL   UNL     1       1.479   2.068  19.524  0.00  0.00    +0.000 Cl
ATOM     17 CL   UNL     1       4.219   2.257  20.414  0.00  0.00    +0.000 Cl
ENDBRANCH   1  14
BRANCH   1  18
ATOM     18  N   UNL     1       3.050   5.774  19.916  0.00  0.00    +0.000 N 
ATOM     19  H   UNL     1       3.681   5.744  20.714  0.00  0.00    +0.000 HD
BRANCH  18  20
ATOM     20  C   UNL     1       2.402   6.967  19.721  0.00  0.00    +0.000 C 
ATOM     21  S   UNL     1       2.488   7.850  18.308  0.00  0.00    +0.000 S 
BRANCH  20  22
ATOM     22  N   UNL     1       1.776   7.340  20.907  0.00  0.00    +0.000 N 
ATOM     23  H   UNL     1       2.131   6.860  21.727  0.00  0.00    +0.000 HD
BRANCH  22  27
ATOM     24  C   UNL     1      -0.527  10.803  21.586  0.00  0.00    +0.000 A 
ATOM     25  C   UNL     1       0.025  10.104  22.664  0.00  0.00    +0.000 A 
ATOM     26  C   UNL     1       0.782   8.954  22.447  0.00  0.00    +0.000 A 
ATOM     27  C   UNL     1       0.996   8.485  21.153  0.00  0.00    +0.000 A 
ATOM     28  C   UNL     1       0.495   9.210  20.065  0.00  0.00    +0.000 A 
ATOM     29  C   UNL     1      -0.283  10.355  20.280  0.00  0.00    +0.000 A 
BRANCH  24  30
ATOM     30  C   UNL     1      -1.344  12.006  21.894  0.00  0.00    +0.000 C 
ATOM     31  O   UNL     1      -1.472  12.458  23.019  0.00  0.00    +0.000 OA
BRANCH  30  33
ATOM     32  C   UNL     1      -3.186  13.112  21.000  0.00  0.00    +0.000 C 
ATOM     33  O   UNL     1      -1.917  12.504  20.771  0.00  0.00    +0.000 OA
ENDBRANCH  30  33
ENDBRANCH  24  30
ENDBRANCH  22  27
ENDBRANCH  20  22
ENDBRANCH  18  20
ENDBRANCH   1  18
TORSDOF 11
ENDMDL
