MODEL 1
REMARK VINA RESULT:      -7.4      0.000      0.000
REMARK  Name = 
REMARK  7 active torsions:
REMARK  status: ('A' for Active; 'I' for Inactive)
REMARK    1  A    between atoms: C_1  and  C_2
REMARK    2  A    between atoms: C_2  and  C_3
REMARK    3  A    between atoms: C_2  and  C_4
REMARK    4  A    between atoms: C_5  and  P_6
REMARK    5  A    between atoms: P_6  and  C_8
REMARK    6  A    between atoms: P_6  and  C_14
REMARK    7  A    between atoms: N_20  and  C_21
REMARK                            x       y       z     vdW  Elec       q    Type
REMARK                         _______ _______ _______ _____ _____    ______ ____
ROOT
ATOM      1  P   UNL     1       5.335   5.525  15.743  0.00  0.00    +0.000 P 
ATOM      2  O   UNL     1       4.928   6.851  15.134  0.00  0.00    +0.000 OA
ENDROOT
BRANCH   1   4
ATOM      3  C   UNL     1       3.311   5.985  17.720  0.00  0.00    +0.000 A 
ATOM      4  C   UNL     1       4.008   4.991  16.950  0.00  0.00    +0.000 A 
ATOM      5  N   UNL     1       3.675   3.792  17.612  0.00  0.00    +0.000 N 
ATOM      6  C   UNL     1       4.072   2.453  17.241  0.00  0.00    +0.000 C 
ATOM      7  C   UNL     1       3.024   4.009  18.818  0.00  0.00    +0.000 A 
ATOM      8  C   UNL     1       2.622   3.114  19.842  0.00  0.00    +0.000 A 
ATOM      9  C   UNL     1       2.001   3.625  20.996  0.00  0.00    +0.000 A 
ATOM     10  C   UNL     1       1.804   4.982  21.136  0.00  0.00    +0.000 A 
ATOM     11  C   UNL     1       2.204   5.858  20.125  0.00  0.00    +0.000 A 
ATOM     12  C   UNL     1       2.804   5.369  18.928  0.00  0.00    +0.000 A 
BRANCH   3  14
ATOM     13  C   UNL     1       1.757   8.003  17.835  0.00  0.00    +0.000 C 
ATOM     14  C   UNL     1       3.160   7.482  17.474  0.00  0.00    +0.000 C 
ATOM     15  C   UNL     1       4.237   8.304  18.187  0.00  0.00    +0.000 C 
ENDBRANCH   3  14
ENDBRANCH   1   4
BRANCH   1  16
ATOM     16  C   UNL     1       6.620   5.743  17.004  0.00  0.00    +0.000 A 
ATOM     17  C   UNL     1       7.316   6.965  17.166  0.00  0.00    +0.000 A 
ATOM     18  C   UNL     1       8.045   7.205  18.322  0.00  0.00    +0.000 A 
ATOM     19  C   UNL     1       8.097   6.227  19.312  0.00  0.00    +0.000 A 
ATOM     20  C   UNL     1       7.438   5.008  19.139  0.00  0.00    +0.000 A 
ATOM     21  C   UNL     1       6.713   4.764  17.978  0.00  0.00    +0.000 A 
ENDBRANCH   1  16
BRANCH   1  22
ATOM     22  C   UNL     1       6.229   4.588  14.417  0.00  0.00    +0.000 A 
ATOM     23  C   UNL     1       5.603   3.624  13.606  0.00  0.00    +0.000 A 
ATOM     24  C   UNL     1       6.093   3.324  12.305  0.00  0.00    +0.000 A 
ATOM     25  C   UNL     1       7.211   3.959  11.764  0.00  0.00    +0.000 A 
ATOM     26  C   UNL     1       7.853   4.912  12.530  0.00  0.00    +0.000 A 
ATOM     27  C   UNL     1       7.361   5.212  13.804  0.00  0.00    +0.000 A 
ENDBRANCH   1  22
TORSDOF 4
ENDMDL
MODEL 2
REMARK VINA RESULT:      -6.9      0.728      1.250
REMARK  Name = 
REMARK  7 active torsions:
REMARK  status: ('A' for Active; 'I' for Inactive)
REMARK    1  A    between atoms: C_1  and  C_2
REMARK    2  A    between atoms: C_2  and  C_3
REMARK    3  A    between atoms: C_2  and  C_4
REMARK    4  A    between atoms: C_5  and  P_6
REMARK    5  A    between atoms: P_6  and  C_8
REMARK    6  A    between atoms: P_6  and  C_14
REMARK    7  A    between atoms: N_20  and  C_21
REMARK                            x       y       z     vdW  Elec       q    Type
REMARK                         _______ _______ _______ _____ _____    ______ ____
ROOT
ATOM      1  P   UNL     1       4.965   5.507  16.181  0.00  0.00    +0.000 P 
ATOM      2  O   UNL     1       4.365   6.745  15.543  0.00  0.00    +0.000 OA
ENDROOT
BRANCH   1   4
ATOM      3  C   UNL     1       3.083   5.577  18.342  0.00  0.00    +0.000 A 
ATOM      4  C   UNL     1       3.697   4.756  17.333  0.00  0.00    +0.000 A 
ATOM      5  N   UNL     1       3.363   3.451  17.748  0.00  0.00    +0.000 N 
ATOM      6  C   UNL     1       3.689   2.214  17.076  0.00  0.00    +0.000 C 
ATOM      7  C   UNL     1       2.795   3.419  19.014  0.00  0.00    +0.000 A 
ATOM      8  C   UNL     1       2.426   2.335  19.850  0.00  0.00    +0.000 A 
ATOM      9  C   UNL     1       1.896   2.600  21.125  0.00  0.00    +0.000 A 
ATOM     10  C   UNL     1       1.755   3.901  21.562  0.00  0.00    +0.000 A 
ATOM     11  C   UNL     1       2.122   4.963  20.735  0.00  0.00    +0.000 A 
ATOM     12  C   UNL     1       2.630   4.729  19.424  0.00  0.00    +0.000 A 
BRANCH   3  14
ATOM     13  C   UNL     1       2.048   7.684  17.345  0.00  0.00    +0.000 C 
ATOM     14  C   UNL     1       2.970   7.095  18.429  0.00  0.00    +0.000 C 
ATOM     15  C   UNL     1       2.536   7.572  19.818  0.00  0.00    +0.000 C 
ENDBRANCH   3  14
ENDBRANCH   1   4
BRANCH   1  16
ATOM     16  C   UNL     1       6.138   5.942  17.494  0.00  0.00    +0.000 A 
ATOM     17  C   UNL     1       6.626   4.984  18.415  0.00  0.00    +0.000 A 
ATOM     18  C   UNL     1       7.745   5.265  19.186  0.00  0.00    +0.000 A 
ATOM     19  C   UNL     1       8.373   6.500  19.054  0.00  0.00    +0.000 A 
ATOM     20  C   UNL     1       7.873   7.458  18.170  0.00  0.00    +0.000 A 
ATOM     21  C   UNL     1       6.747   7.182  17.402  0.00  0.00    +0.000 A 
ENDBRANCH   1  16
BRANCH   1  22
ATOM     22  C   UNL     1       6.063   4.735  14.902  0.00  0.00    +0.000 A 
ATOM     23  C   UNL     1       5.600   3.795  13.964  0.00  0.00    +0.000 A 
ATOM     24  C   UNL     1       6.247   3.628  12.708  0.00  0.00    +0.000 A 
ATOM     25  C   UNL     1       7.364   4.376  12.338  0.00  0.00    +0.000 A 
ATOM     26  C   UNL     1       7.849   5.309  13.234  0.00  0.00    +0.000 A 
ATOM     27  C   UNL     1       7.202   5.479  14.463  0.00  0.00    +0.000 A 
ENDBRANCH   1  22
TORSDOF 4
ENDMDL
MODEL 3
REMARK VINA RESULT:      -6.8      8.250     11.179
REMARK  Name = 
REMARK  7 active torsions:
REMARK  status: ('A' for Active; 'I' for Inactive)
REMARK    1  A    between atoms: C_1  and  C_2
REMARK    2  A    between atoms: C_2  and  C_3
REMARK    3  A    between atoms: C_2  and  C_4
REMARK    4  A    between atoms: C_5  and  P_6
REMARK    5  A    between atoms: P_6  and  C_8
REMARK    6  A    between atoms: P_6  and  C_14
REMARK    7  A    between atoms: N_20  and  C_21
REMARK                            x       y       z     vdW  Elec       q    Type
REMARK                         _______ _______ _______ _____ _____    ______ ____
ROOT
ATOM      1  P   UNL     1      -0.651  11.613  19.578  0.00  0.00    +0.000 P 
ATOM      2  O   UNL     1       0.012  10.772  18.506  0.00  0.00    +0.000 OA
ENDROOT
BRANCH   1   4
ATOM      3  C   UNL     1      -3.304  12.633  19.943  0.00  0.00    +0.000 A 
ATOM      4  C   UNL     1      -2.378  12.052  19.009  0.00  0.00    +0.000 A 
ATOM      5  N   UNL     1      -3.213  11.668  17.940  0.00  0.00    +0.000 N 
ATOM      6  C   UNL     1      -2.807  11.061  16.693  0.00  0.00    +0.000 C 
ATOM      7  C   UNL     1      -4.562  11.776  18.248  0.00  0.00    +0.000 A 
ATOM      8  C   UNL     1      -5.722  11.394  17.528  0.00  0.00    +0.000 A 
ATOM      9  C   UNL     1      -6.987  11.592  18.108  0.00  0.00    +0.000 A 
ATOM     10  C   UNL     1      -7.094  12.135  19.371  0.00  0.00    +0.000 A 
ATOM     11  C   UNL     1      -5.948  12.507  20.076  0.00  0.00    +0.000 A 
ATOM     12  C   UNL     1      -4.654  12.351  19.501  0.00  0.00    +0.000 A 
BRANCH   3  14
ATOM     13  C   UNL     1      -3.249  14.867  21.171  0.00  0.00    +0.000 C 
ATOM     14  C   UNL     1      -3.040  13.345  21.265  0.00  0.00    +0.000 C 
ATOM     15  C   UNL     1      -3.860  12.762  22.420  0.00  0.00    +0.000 C 
ENDBRANCH   3  14
ENDBRANCH   1   4
BRANCH   1  16
ATOM     16  C   UNL     1      -0.035  13.319  19.554  0.00  0.00    +0.000 A 
ATOM     17  C   UNL     1      -0.403  14.237  18.541  0.00  0.00    +0.000 A 
ATOM     18  C   UNL     1      -0.186  15.597  18.720  0.00  0.00    +0.000 A 
ATOM     19  C   UNL     1       0.406  16.045  19.898  0.00  0.00    +0.000 A 
ATOM     20  C   UNL     1       0.799  15.137  20.883  0.00  0.00    +0.000 A 
ATOM     21  C   UNL     1       0.590  13.774  20.702  0.00  0.00    +0.000 A 
ENDBRANCH   1  16
BRANCH   1  22
ATOM     22  C   UNL     1      -0.022  10.983  21.205  0.00  0.00    +0.000 A 
ATOM     23  C   UNL     1      -0.814  10.945  22.367  0.00  0.00    +0.000 A 
ATOM     24  C   UNL     1      -0.550  10.011  23.407  0.00  0.00    +0.000 A 
ATOM     25  C   UNL     1       0.496   9.091  23.337  0.00  0.00    +0.000 A 
ATOM     26  C   UNL     1       1.295   9.098  22.211  0.00  0.00    +0.000 A 
ATOM     27  C   UNL     1       1.025  10.010  21.185  0.00  0.00    +0.000 A 
ENDBRANCH   1  22
TORSDOF 4
ENDMDL
MODEL 4
REMARK VINA RESULT:      -6.8      7.100     10.357
REMARK  Name = 
REMARK  7 active torsions:
REMARK  status: ('A' for Active; 'I' for Inactive)
REMARK    1  A    between atoms: C_1  and  C_2
REMARK    2  A    between atoms: C_2  and  C_3
REMARK    3  A    between atoms: C_2  and  C_4
REMARK    4  A    between atoms: C_5  and  P_6
REMARK    5  A    between atoms: P_6  and  C_8
REMARK    6  A    between atoms: P_6  and  C_14
REMARK    7  A    between atoms: N_20  and  C_21
REMARK                            x       y       z     vdW  Elec       q    Type
REMARK                         _______ _______ _______ _____ _____    ______ ____
ROOT
ATOM      1  P   UNL     1      -0.792  11.186  18.994  0.00  0.00    +0.000 P 
ATOM      2  O   UNL     1      -1.017  10.552  17.636  0.00  0.00    +0.000 OA
ENDROOT
BRANCH   1   4
ATOM      3  C   UNL     1      -2.470  12.587  20.848  0.00  0.00    +0.000 A 
ATOM      4  C   UNL     1      -2.368  12.046  19.520  0.00  0.00    +0.000 A 
ATOM      5  N   UNL     1      -3.707  12.050  19.078  0.00  0.00    +0.000 N 
ATOM      6  C   UNL     1      -4.197  11.645  17.780  0.00  0.00    +0.000 C 
ATOM      7  C   UNL     1      -4.606  12.343  20.094  0.00  0.00    +0.000 A 
ATOM      8  C   UNL     1      -6.023  12.339  20.122  0.00  0.00    +0.000 A 
ATOM      9  C   UNL     1      -6.687  12.647  21.323  0.00  0.00    +0.000 A 
ATOM     10  C   UNL     1      -5.965  12.932  22.463  0.00  0.00    +0.000 A 
ATOM     11  C   UNL     1      -4.570  12.932  22.428  0.00  0.00    +0.000 A 
ATOM     12  C   UNL     1      -3.867  12.658  21.219  0.00  0.00    +0.000 A 
BRANCH   3  14
ATOM     13  C   UNL     1      -1.343  14.458  22.163  0.00  0.00    +0.000 C 
ATOM     14  C   UNL     1      -1.371  12.953  21.839  0.00  0.00    +0.000 C 
ATOM     15  C   UNL     1      -1.446  12.129  23.128  0.00  0.00    +0.000 C 
ENDBRANCH   3  14
ENDBRANCH   1   4
BRANCH   1  16
ATOM     16  C   UNL     1       0.184  12.709  18.859  0.00  0.00    +0.000 A 
ATOM     17  C   UNL     1      -0.385  13.932  18.429  0.00  0.00    +0.000 A 
ATOM     18  C   UNL     1       0.287  15.127  18.642  0.00  0.00    +0.000 A 
ATOM     19  C   UNL     1       1.530  15.109  19.269  0.00  0.00    +0.000 A 
ATOM     20  C   UNL     1       2.107  13.900  19.664  0.00  0.00    +0.000 A 
ATOM     21  C   UNL     1       1.438  12.701  19.444  0.00  0.00    +0.000 A 
ENDBRANCH   1  16
BRANCH   1  22
ATOM     22  C   UNL     1       0.352  10.058  19.919  0.00  0.00    +0.000 A 
ATOM     23  C   UNL     1       0.030   9.502  21.171  0.00  0.00    +0.000 A 
ATOM     24  C   UNL     1       0.610   8.277  21.603  0.00  0.00    +0.000 A 
ATOM     25  C   UNL     1       1.521   7.565  20.823  0.00  0.00    +0.000 A 
ATOM     26  C   UNL     1       1.861   8.080  19.587  0.00  0.00    +0.000 A 
ATOM     27  C   UNL     1       1.280   9.278  19.160  0.00  0.00    +0.000 A 
ENDBRANCH   1  22
TORSDOF 4
ENDMDL
MODEL 5
REMARK VINA RESULT:      -6.8      8.492     10.842
REMARK  Name = 
REMARK  7 active torsions:
REMARK  status: ('A' for Active; 'I' for Inactive)
REMARK    1  A    between atoms: C_1  and  C_2
REMARK    2  A    between atoms: C_2  and  C_3
REMARK    3  A    between atoms: C_2  and  C_4
REMARK    4  A    between atoms: C_5  and  P_6
REMARK    5  A    between atoms: P_6  and  C_8
REMARK    6  A    between atoms: P_6  and  C_14
REMARK    7  A    between atoms: N_20  and  C_21
REMARK                            x       y       z     vdW  Elec       q    Type
REMARK                         _______ _______ _______ _____ _____    ______ ____
ROOT
ATOM      1  P   UNL     1      -0.680  12.863  20.657  0.00  0.00    +0.000 P 
ATOM      2  O   UNL     1      -0.754  13.912  21.748  0.00  0.00    +0.000 OA
ENDROOT
BRANCH   1   4
ATOM      3  C   UNL     1      -3.540  13.028  20.590  0.00  0.00    +0.000 A 
ATOM      4  C   UNL     1      -2.353  12.742  19.830  0.00  0.00    +0.000 A 
ATOM      5  N   UNL     1      -2.864  12.103  18.683  0.00  0.00    +0.000 N 
ATOM      6  C   UNL     1      -2.112  11.628  17.544  0.00  0.00    +0.000 C 
ATOM      7  C   UNL     1      -4.213  11.798  18.795  0.00  0.00    +0.000 A 
ATOM      8  C   UNL     1      -5.084  11.067  17.947  0.00  0.00    +0.000 A 
ATOM      9  C   UNL     1      -6.422  10.878  18.335  0.00  0.00    +0.000 A 
ATOM     10  C   UNL     1      -6.876  11.384  19.535  0.00  0.00    +0.000 A 
ATOM     11  C   UNL     1      -6.013  12.101  20.365  0.00  0.00    +0.000 A 
ATOM     12  C   UNL     1      -4.661  12.339  19.985  0.00  0.00    +0.000 A 
BRANCH   3  14
ATOM     13  C   UNL     1      -4.724  14.956  21.767  0.00  0.00    +0.000 C 
ATOM     14  C   UNL     1      -3.703  13.809  21.889  0.00  0.00    +0.000 C 
ATOM     15  C   UNL     1      -4.050  12.907  23.077  0.00  0.00    +0.000 C 
ENDBRANCH   3  14
ENDBRANCH   1   4
BRANCH   1  16
ATOM     16  C   UNL     1      -0.720  11.186  21.348  0.00  0.00    +0.000 A 
ATOM     17  C   UNL     1      -0.359  10.049  20.586  0.00  0.00    +0.000 A 
ATOM     18  C   UNL     1      -0.090   8.843  21.217  0.00  0.00    +0.000 A 
ATOM     19  C   UNL     1      -0.191   8.760  22.603  0.00  0.00    +0.000 A 
ATOM     20  C   UNL     1      -0.579   9.872  23.352  0.00  0.00    +0.000 A 
ATOM     21  C   UNL     1      -0.857  11.080  22.721  0.00  0.00    +0.000 A 
ENDBRANCH   1  16
BRANCH   1  22
ATOM     22  C   UNL     1       1.030  12.962  19.947  0.00  0.00    +0.000 A 
ATOM     23  C   UNL     1       1.295  12.833  18.571  0.00  0.00    +0.000 A 
ATOM     24  C   UNL     1       2.447  13.426  17.984  0.00  0.00    +0.000 A 
ATOM     25  C   UNL     1       3.371  14.161  18.729  0.00  0.00    +0.000 A 
ATOM     26  C   UNL     1       3.144  14.309  20.083  0.00  0.00    +0.000 A 
ATOM     27  C   UNL     1       2.004  13.734  20.654  0.00  0.00    +0.000 A 
ENDBRANCH   1  22
TORSDOF 4
ENDMDL
MODEL 6
REMARK VINA RESULT:      -6.7      8.696     11.237
REMARK  Name = 
REMARK  7 active torsions:
REMARK  status: ('A' for Active; 'I' for Inactive)
REMARK    1  A    between atoms: C_1  and  C_2
REMARK    2  A    between atoms: C_2  and  C_3
REMARK    3  A    between atoms: C_2  and  C_4
REMARK    4  A    between atoms: C_5  and  P_6
REMARK    5  A    between atoms: P_6  and  C_8
REMARK    6  A    between atoms: P_6  and  C_14
REMARK    7  A    between atoms: N_20  and  C_21
REMARK                            x       y       z     vdW  Elec       q    Type
REMARK                         _______ _______ _______ _____ _____    ______ ____
ROOT
ATOM      1  P   UNL     1      -1.354  13.236  20.935  0.00  0.00    +0.000 P 
ATOM      2  O   UNL     1      -1.579  14.113  22.151  0.00  0.00    +0.000 OA
ENDROOT
BRANCH   1   4
ATOM      3  C   UNL     1      -4.215  13.070  20.891  0.00  0.00    +0.000 A 
ATOM      4  C   UNL     1      -3.007  12.898  20.129  0.00  0.00    +0.000 A 
ATOM      5  N   UNL     1      -3.449  12.169  19.006  0.00  0.00    +0.000 N 
ATOM      6  C   UNL     1      -2.654  11.747  17.875  0.00  0.00    +0.000 C 
ATOM      7  C   UNL     1      -4.753  11.715  19.141  0.00  0.00    +0.000 A 
ATOM      8  C   UNL     1      -5.539  10.862  18.324  0.00  0.00    +0.000 A 
ATOM      9  C   UNL     1      -6.844  10.534  18.731  0.00  0.00    +0.000 A 
ATOM     10  C   UNL     1      -7.345  11.022  19.919  0.00  0.00    +0.000 A 
ATOM     11  C   UNL     1      -6.566  11.859  20.719  0.00  0.00    +0.000 A 
ATOM     12  C   UNL     1      -5.252  12.239  20.318  0.00  0.00    +0.000 A 
BRANCH   3  14
ATOM     13  C   UNL     1      -5.602  14.888  22.018  0.00  0.00    +0.000 C 
ATOM     14  C   UNL     1      -4.458  13.868  22.167  0.00  0.00    +0.000 C 
ATOM     15  C   UNL     1      -4.696  12.970  23.384  0.00  0.00    +0.000 C 
ENDBRANCH   3  14
ENDBRANCH   1   4
BRANCH   1  16
ATOM     16  C   UNL     1      -1.050  11.512  21.410  0.00  0.00    +0.000 A 
ATOM     17  C   UNL     1      -0.462  10.580  20.521  0.00  0.00    +0.000 A 
ATOM     18  C   UNL     1       0.048   9.383  21.004  0.00  0.00    +0.000 A 
ATOM     19  C   UNL     1      -0.037   9.103  22.366  0.00  0.00    +0.000 A 
ATOM     20  C   UNL     1      -0.647  10.008  23.237  0.00  0.00    +0.000 A 
ATOM     21  C   UNL     1      -1.166  11.205  22.754  0.00  0.00    +0.000 A 
ENDBRANCH   1  16
BRANCH   1  22
ATOM     22  C   UNL     1       0.276  13.746  20.213  0.00  0.00    +0.000 A 
ATOM     23  C   UNL     1       1.472  13.755  20.955  0.00  0.00    +0.000 A 
ATOM     24  C   UNL     1       2.735  13.610  20.318  0.00  0.00    +0.000 A 
ATOM     25  C   UNL     1       2.861  13.454  18.937  0.00  0.00    +0.000 A 
ATOM     26  C   UNL     1       1.710  13.441  18.175  0.00  0.00    +0.000 A 
ATOM     27  C   UNL     1       0.469  13.571  18.807  0.00  0.00    +0.000 A 
ENDBRANCH   1  22
TORSDOF 4
ENDMDL
MODEL 7
REMARK VINA RESULT:      -6.7      8.309     12.295
REMARK  Name = 
REMARK  7 active torsions:
REMARK  status: ('A' for Active; 'I' for Inactive)
REMARK    1  A    between atoms: C_1  and  C_2
REMARK    2  A    between atoms: C_2  and  C_3
REMARK    3  A    between atoms: C_2  and  C_4
REMARK    4  A    between atoms: C_5  and  P_6
REMARK    5  A    between atoms: P_6  and  C_8
REMARK    6  A    between atoms: P_6  and  C_14
REMARK    7  A    between atoms: N_20  and  C_21
REMARK                            x       y       z     vdW  Elec       q    Type
REMARK                         _______ _______ _______ _____ _____    ______ ____
ROOT
ATOM      1  P   UNL     1      -1.255  13.336  22.051  0.00  0.00    +0.000 P 
ATOM      2  O   UNL     1      -0.497  12.447  23.015  0.00  0.00    +0.000 OA
ENDROOT
BRANCH   1   4
ATOM      3  C   UNL     1      -1.262  11.294  20.040  0.00  0.00    +0.000 A 
ATOM      4  C   UNL     1      -2.058  12.259  20.749  0.00  0.00    +0.000 A 
ATOM      5  N   UNL     1      -3.232  12.326  19.972  0.00  0.00    +0.000 N 
ATOM      6  C   UNL     1      -4.410  13.118  20.242  0.00  0.00    +0.000 C 
ATOM      7  C   UNL     1      -3.115  11.654  18.764  0.00  0.00    +0.000 A 
ATOM      8  C   UNL     1      -3.988  11.565  17.651  0.00  0.00    +0.000 A 
ATOM      9  C   UNL     1      -3.589  10.829  16.521  0.00  0.00    +0.000 A 
ATOM     10  C   UNL     1      -2.353  10.218  16.491  0.00  0.00    +0.000 A 
ATOM     11  C   UNL     1      -1.497  10.311  17.590  0.00  0.00    +0.000 A 
ATOM     12  C   UNL     1      -1.887  11.019  18.763  0.00  0.00    +0.000 A 
BRANCH   3  14
ATOM     13  C   UNL     1      -0.037   9.205  20.839  0.00  0.00    +0.000 C 
ATOM     14  C   UNL     1       0.084  10.679  20.408  0.00  0.00    +0.000 C 
ATOM     15  C   UNL     1       1.122  10.828  19.292  0.00  0.00    +0.000 C 
ENDBRANCH   3  14
ENDBRANCH   1   4
BRANCH   1  16
ATOM     16  C   UNL     1      -0.130  14.170  20.897  0.00  0.00    +0.000 A 
ATOM     17  C   UNL     1       1.277  14.063  21.009  0.00  0.00    +0.000 A 
ATOM     18  C   UNL     1       2.091  14.432  19.947  0.00  0.00    +0.000 A 
ATOM     19  C   UNL     1       1.511  14.920  18.779  0.00  0.00    +0.000 A 
ATOM     20  C   UNL     1       0.125  15.057  18.681  0.00  0.00    +0.000 A 
ATOM     21  C   UNL     1      -0.692  14.695  19.747  0.00  0.00    +0.000 A 
ENDBRANCH   1  16
BRANCH   1  22
ATOM     22  C   UNL     1      -1.922  14.748  23.050  0.00  0.00    +0.000 A 
ATOM     23  C   UNL     1      -3.043  15.502  22.656  0.00  0.00    +0.000 A 
ATOM     24  C   UNL     1      -3.853  16.173  23.613  0.00  0.00    +0.000 A 
ATOM     25  C   UNL     1      -3.586  16.126  24.981  0.00  0.00    +0.000 A 
ATOM     26  C   UNL     1      -2.494  15.396  25.407  0.00  0.00    +0.000 A 
ATOM     27  C   UNL     1      -1.707  14.727  24.464  0.00  0.00    +0.000 A 
ENDBRANCH   1  22
TORSDOF 4
ENDMDL
MODEL 8
REMARK VINA RESULT:      -6.7      7.687     11.673
REMARK  Name = 
REMARK  7 active torsions:
REMARK  status: ('A' for Active; 'I' for Inactive)
REMARK    1  A    between atoms: C_1  and  C_2
REMARK    2  A    between atoms: C_2  and  C_3
REMARK    3  A    between atoms: C_2  and  C_4
REMARK    4  A    between atoms: C_5  and  P_6
REMARK    5  A    between atoms: P_6  and  C_8
REMARK    6  A    between atoms: P_6  and  C_14
REMARK    7  A    between atoms: N_20  and  C_21
REMARK                            x       y       z     vdW  Elec       q    Type
REMARK                         _______ _______ _______ _____ _____    ______ ____
ROOT
ATOM      1  P   UNL     1      -2.633  12.383  22.032  0.00  0.00    +0.000 P 
ATOM      2  O   UNL     1      -3.050  11.850  23.388  0.00  0.00    +0.000 OA
ENDROOT
BRANCH   1   4
ATOM      3  C   UNL     1      -0.580  11.676  20.160  0.00  0.00    +0.000 A 
ATOM      4  C   UNL     1      -1.062  11.514  21.506  0.00  0.00    +0.000 A 
ATOM      5  N   UNL     1      -0.316  10.414  21.974  0.00  0.00    +0.000 N 
ATOM      6  C   UNL     1      -0.360   9.831  23.296  0.00  0.00    +0.000 C 
ATOM      7  C   UNL     1       0.400   9.784  20.966  0.00  0.00    +0.000 A 
ATOM      8  C   UNL     1       1.173   8.594  20.966  0.00  0.00    +0.000 A 
ATOM      9  C   UNL     1       1.770   8.163  19.768  0.00  0.00    +0.000 A 
ATOM     10  C   UNL     1       1.589   8.880  18.605  0.00  0.00    +0.000 A 
ATOM     11  C   UNL     1       0.826  10.049  18.611  0.00  0.00    +0.000 A 
ATOM     12  C   UNL     1       0.237  10.532  19.815  0.00  0.00    +0.000 A 
BRANCH   3  14
ATOM     13  C   UNL     1       0.299  13.693  18.873  0.00  0.00    +0.000 C 
ATOM     14  C   UNL     1      -0.896  12.758  19.134  0.00  0.00    +0.000 C 
ATOM     15  C   UNL     1      -1.423  12.181  17.817  0.00  0.00    +0.000 C 
ENDBRANCH   3  14
ENDBRANCH   1   4
BRANCH   1  16
ATOM     16  C   UNL     1      -1.871  14.023  22.171  0.00  0.00    +0.000 A 
ATOM     17  C   UNL     1      -0.594  14.212  22.752  0.00  0.00    +0.000 A 
ATOM     18  C   UNL     1       0.091  15.403  22.556  0.00  0.00    +0.000 A 
ATOM     19  C   UNL     1      -0.495  16.412  21.795  0.00  0.00    +0.000 A 
ATOM     20  C   UNL     1      -1.769  16.238  21.250  0.00  0.00    +0.000 A 
ATOM     21  C   UNL     1      -2.460  15.048  21.452  0.00  0.00    +0.000 A 
ENDBRANCH   1  16
BRANCH   1  22
ATOM     22  C   UNL     1      -4.198  12.745  21.105  0.00  0.00    +0.000 A 
ATOM     23  C   UNL     1      -4.388  12.391  19.757  0.00  0.00    +0.000 A 
ATOM     24  C   UNL     1      -5.690  12.169  19.230  0.00  0.00    +0.000 A 
ATOM     25  C   UNL     1      -6.841  12.288  20.009  0.00  0.00    +0.000 A 
ATOM     26  C   UNL     1      -6.695  12.634  21.338  0.00  0.00    +0.000 A 
ATOM     27  C   UNL     1      -5.412  12.840  21.855  0.00  0.00    +0.000 A 
ENDBRANCH   1  22
TORSDOF 4
ENDMDL
MODEL 9
REMARK VINA RESULT:      -6.6      7.806     10.924
REMARK  Name = 
REMARK  7 active torsions:
REMARK  status: ('A' for Active; 'I' for Inactive)
REMARK    1  A    between atoms: C_1  and  C_2
REMARK    2  A    between atoms: C_2  and  C_3
REMARK    3  A    between atoms: C_2  and  C_4
REMARK    4  A    between atoms: C_5  and  P_6
REMARK    5  A    between atoms: P_6  and  C_8
REMARK    6  A    between atoms: P_6  and  C_14
REMARK    7  A    between atoms: N_20  and  C_21
REMARK                            x       y       z     vdW  Elec       q    Type
REMARK                         _______ _______ _______ _____ _____    ______ ____
ROOT
ATOM      1  P   UNL     1      -1.071  10.863  19.119  0.00  0.00    +0.000 P 
ATOM      2  O   UNL     1      -0.675  10.082  17.882  0.00  0.00    +0.000 OA
ENDROOT
BRANCH   1   4
ATOM      3  C   UNL     1      -3.351  12.439  19.850  0.00  0.00    +0.000 A 
ATOM      4  C   UNL     1      -2.699  11.722  18.787  0.00  0.00    +0.000 A 
ATOM      5  N   UNL     1      -3.715  11.611  17.816  0.00  0.00    +0.000 N 
ATOM      6  C   UNL     1      -3.606  11.010  16.507  0.00  0.00    +0.000 C 
ATOM      7  C   UNL     1      -4.957  12.005  18.293  0.00  0.00    +0.000 A 
ATOM      8  C   UNL     1      -6.248  11.947  17.709  0.00  0.00    +0.000 A 
ATOM      9  C   UNL     1      -7.358  12.392  18.450  0.00  0.00    +0.000 A 
ATOM     10  C   UNL     1      -7.191  12.861  19.736  0.00  0.00    +0.000 A 
ATOM     11  C   UNL     1      -5.919  12.913  20.305  0.00  0.00    +0.000 A 
ATOM     12  C   UNL     1      -4.769  12.503  19.569  0.00  0.00    +0.000 A 
BRANCH   3  14
ATOM     13  C   UNL     1      -2.661  14.518  21.154  0.00  0.00    +0.000 C 
ATOM     14  C   UNL     1      -2.779  12.982  21.154  0.00  0.00    +0.000 C 
ATOM     15  C   UNL     1      -3.561  12.505  22.381  0.00  0.00    +0.000 C 
ENDBRANCH   3  14
ENDBRANCH   1   4
BRANCH   1  16
ATOM     16  C   UNL     1      -0.109  12.394  19.271  0.00  0.00    +0.000 A 
ATOM     17  C   UNL     1      -0.319  13.502  18.415  0.00  0.00    +0.000 A 
ATOM     18  C   UNL     1       0.189  14.749  18.752  0.00  0.00    +0.000 A 
ATOM     19  C   UNL     1       0.917  14.895  19.930  0.00  0.00    +0.000 A 
ATOM     20  C   UNL     1       1.152  13.795  20.757  0.00  0.00    +0.000 A 
ATOM     21  C   UNL     1       0.651  12.543  20.418  0.00  0.00    +0.000 A 
ENDBRANCH   1  16
BRANCH   1  22
ATOM     22  C   UNL     1      -0.484   9.876  20.575  0.00  0.00    +0.000 A 
ATOM     23  C   UNL     1       0.739   9.182  20.586  0.00  0.00    +0.000 A 
ATOM     24  C   UNL     1       1.418   8.906  21.805  0.00  0.00    +0.000 A 
ATOM     25  C   UNL     1       0.917   9.300  23.045  0.00  0.00    +0.000 A 
ATOM     26  C   UNL     1      -0.283   9.984  23.075  0.00  0.00    +0.000 A 
ATOM     27  C   UNL     1      -0.942  10.264  21.873  0.00  0.00    +0.000 A 
ENDBRANCH   1  22
TORSDOF 4
ENDMDL
