MODEL 1
REMARK VINA RESULT:      -9.7      0.000      0.000
REMARK  Name = 
REMARK  4 active torsions:
REMARK  status: ('A' for Active; 'I' for Inactive)
REMARK    1  A    between atoms: C_4  and  C_5
REMARK    2  A    between atoms: C_5  and  O_6
REMARK    3  A    between atoms: O_6  and  C_7
REMARK    4  A    between atoms: C_9  and  C_10
REMARK                            x       y       z     vdW  Elec       q    Type
REMARK                         _______ _______ _______ _____ _____    ______ ____
ROOT
ATOM      1  C   UNL     1       4.411   6.458  17.180  0.00  0.00    +0.000 A 
ATOM      2  C   UNL     1       3.638   7.537  17.506  0.00  0.00    +0.000 A 
ATOM      3  C   UNL     1       2.724   7.329  18.510  0.00  0.00    +0.000 A 
ATOM      4  N   UNL     1       2.606   6.125  19.117  0.00  0.00    +0.000 NA
ATOM      5  C   UNL     1       3.400   5.114  18.727  0.00  0.00    +0.000 A 
ATOM      6  N   UNL     1       3.322   3.912  19.390  0.00  0.00    +0.000 N 
ATOM      7  C   UNL     1       4.158   2.779  18.989  0.00  0.00    +0.000 C 
ATOM      8  C   UNL     1       3.301   1.681  18.344  0.00  0.00    +0.000 C 
ATOM      9  O   UNL     1       2.204   1.299  19.192  0.00  0.00    +0.000 OA
ATOM     10  C   UNL     1       1.356   2.434  19.447  0.00  0.00    +0.000 C 
ATOM     11  C   UNL     1       2.122   3.567  20.152  0.00  0.00    +0.000 C 
ATOM     12  N   UNL     1       4.302   5.250  17.750  0.00  0.00    +0.000 NA
ENDROOT
BRANCH   3  13
ATOM     13  C   UNL     1       1.808   8.391  18.983  0.00  0.00    +0.000 A 
ATOM     14  C   UNL     1       1.443   8.475  20.338  0.00  0.00    +0.000 A 
ATOM     15  C   UNL     1       0.545   9.447  20.810  0.00  0.00    +0.000 A 
ATOM     16  C   UNL     1      -0.017  10.361  19.904  0.00  0.00    +0.000 A 
ATOM     17  C   UNL     1      -0.959  11.421  20.016  0.00  0.00    +0.000 A 
ATOM     18  C   UNL     1      -1.136  11.962  18.762  0.00  0.00    +0.000 A 
ATOM     19  N   UNL     1      -0.324  11.281  17.896  0.00  0.00    +0.000 N 
ATOM     20  C   UNL     1       0.358  10.290  18.565  0.00  0.00    +0.000 A 
ATOM     21  C   UNL     1       1.263   9.333  18.084  0.00  0.00    +0.000 A 
ATOM     22  H   UNL     1      -0.245  11.462  16.904  0.00  0.00    +0.000 HD
ENDBRANCH   3  13
BRANCH   1  23
ATOM     23  O   UNL     1       5.331   6.652  16.172  0.00  0.00    +0.000 OA
BRANCH  23  24
ATOM     24  C   UNL     1       6.402   5.704  16.232  0.00  0.00    +0.000 C 
BRANCH  24  28
ATOM     25  C   UNL     1       6.890   4.066  12.333  0.00  0.00    +0.000 A 
ATOM     26  C   UNL     1       5.799   3.663  13.094  0.00  0.00    +0.000 A 
ATOM     27  C   UNL     1       5.631   4.183  14.375  0.00  0.00    +0.000 A 
ATOM     28  C   UNL     1       6.567   5.093  14.860  0.00  0.00    +0.000 A 
ATOM     29  N   UNL     1       7.640   5.490  14.128  0.00  0.00    +0.000 NA
ATOM     30  C   UNL     1       7.775   4.973  12.889  0.00  0.00    +0.000 A 
ENDBRANCH  24  28
ENDBRANCH  23  24
ENDBRANCH   1  23
TORSDOF 4
ENDMDL
MODEL 2
REMARK VINA RESULT:      -9.6      0.872      1.336
REMARK  Name = 
REMARK  4 active torsions:
REMARK  status: ('A' for Active; 'I' for Inactive)
REMARK    1  A    between atoms: C_4  and  C_5
REMARK    2  A    between atoms: C_5  and  O_6
REMARK    3  A    between atoms: O_6  and  C_7
REMARK    4  A    between atoms: C_9  and  C_10
REMARK                            x       y       z     vdW  Elec       q    Type
REMARK                         _______ _______ _______ _____ _____    ______ ____
ROOT
ATOM      1  C   UNL     1       4.631   6.395  17.170  0.00  0.00    +0.000 A 
ATOM      2  C   UNL     1       3.849   7.479  17.452  0.00  0.00    +0.000 A 
ATOM      3  C   UNL     1       2.886   7.281  18.411  0.00  0.00    +0.000 A 
ATOM      4  N   UNL     1       2.733   6.081  19.019  0.00  0.00    +0.000 NA
ATOM      5  C   UNL     1       3.540   5.064  18.674  0.00  0.00    +0.000 A 
ATOM      6  N   UNL     1       3.425   3.866  19.339  0.00  0.00    +0.000 N 
ATOM      7  C   UNL     1       4.274   2.727  18.984  0.00  0.00    +0.000 C 
ATOM      8  C   UNL     1       3.444   1.629  18.305  0.00  0.00    +0.000 C 
ATOM      9  O   UNL     1       2.306   1.257  19.101  0.00  0.00    +0.000 OA
ATOM     10  C   UNL     1       1.452   2.397  19.309  0.00  0.00    +0.000 C 
ATOM     11  C   UNL     1       2.188   3.531  20.043  0.00  0.00    +0.000 C 
ATOM     12  N   UNL     1       4.489   5.190  17.740  0.00  0.00    +0.000 NA
ENDROOT
BRANCH   3  13
ATOM     13  C   UNL     1       1.953   8.349  18.833  0.00  0.00    +0.000 A 
ATOM     14  C   UNL     1       1.491   9.306  17.913  0.00  0.00    +0.000 A 
ATOM     15  C   UNL     1       0.636  10.355  18.291  0.00  0.00    +0.000 A 
ATOM     16  C   UNL     1       0.234  10.462  19.633  0.00  0.00    +0.000 A 
ATOM     17  C   UNL     1      -0.568  11.386  20.360  0.00  0.00    +0.000 A 
ATOM     18  C   UNL     1      -0.594  10.977  21.674  0.00  0.00    +0.000 A 
ATOM     19  N   UNL     1       0.149   9.832  21.770  0.00  0.00    +0.000 N 
ATOM     20  C   UNL     1       0.677   9.505  20.541  0.00  0.00    +0.000 A 
ATOM     21  C   UNL     1       1.519   8.446  20.172  0.00  0.00    +0.000 A 
ATOM     22  H   UNL     1       0.306   9.307  22.620  0.00  0.00    +0.000 HD
ENDBRANCH   3  13
BRANCH   1  23
ATOM     23  O   UNL     1       5.600   6.578  16.206  0.00  0.00    +0.000 OA
BRANCH  23  24
ATOM     24  C   UNL     1       6.574   5.530  16.216  0.00  0.00    +0.000 C 
BRANCH  24  28
ATOM     25  C   UNL     1       6.977   4.126  12.218  0.00  0.00    +0.000 A 
ATOM     26  C   UNL     1       5.944   3.624  12.999  0.00  0.00    +0.000 A 
ATOM     27  C   UNL     1       5.805   4.066  14.313  0.00  0.00    +0.000 A 
ATOM     28  C   UNL     1       6.712   5.001  14.808  0.00  0.00    +0.000 A 
ATOM     29  N   UNL     1       7.728   5.495  14.055  0.00  0.00    +0.000 NA
ATOM     30  C   UNL     1       7.835   5.052  12.785  0.00  0.00    +0.000 A 
ENDBRANCH  24  28
ENDBRANCH  23  24
ENDBRANCH   1  23
TORSDOF 4
ENDMDL
MODEL 3
REMARK VINA RESULT:      -9.1      1.583      1.990
REMARK  Name = 
REMARK  4 active torsions:
REMARK  status: ('A' for Active; 'I' for Inactive)
REMARK    1  A    between atoms: C_4  and  C_5
REMARK    2  A    between atoms: C_5  and  O_6
REMARK    3  A    between atoms: O_6  and  C_7
REMARK    4  A    between atoms: C_9  and  C_10
REMARK                            x       y       z     vdW  Elec       q    Type
REMARK                         _______ _______ _______ _____ _____    ______ ____
ROOT
ATOM      1  C   UNL     1       3.563   6.851  17.823  0.00  0.00    +0.000 A 
ATOM      2  C   UNL     1       2.820   7.913  18.256  0.00  0.00    +0.000 A 
ATOM      3  C   UNL     1       2.104   7.703  19.409  0.00  0.00    +0.000 A 
ATOM      4  N   UNL     1       2.139   6.514  20.054  0.00  0.00    +0.000 NA
ATOM      5  C   UNL     1       2.891   5.519  19.553  0.00  0.00    +0.000 A 
ATOM      6  N   UNL     1       2.976   4.335  20.246  0.00  0.00    +0.000 N 
ATOM      7  C   UNL     1       3.770   3.219  19.729  0.00  0.00    +0.000 C 
ATOM      8  C   UNL     1       2.856   2.075  19.270  0.00  0.00    +0.000 C 
ATOM      9  O   UNL     1       1.939   1.682  20.306  0.00  0.00    +0.000 OA
ATOM     10  C   UNL     1       1.107   2.794  20.681  0.00  0.00    +0.000 C 
ATOM     11  C   UNL     1       1.941   3.972  21.214  0.00  0.00    +0.000 C 
ATOM     12  N   UNL     1       3.602   5.656  18.429  0.00  0.00    +0.000 NA
ENDROOT
BRANCH   3  13
ATOM     13  C   UNL     1       1.246   8.747  20.011  0.00  0.00    +0.000 A 
ATOM     14  C   UNL     1       0.972   9.942  19.322  0.00  0.00    +0.000 A 
ATOM     15  C   UNL     1       0.194  10.967  19.884  0.00  0.00    +0.000 A 
ATOM     16  C   UNL     1      -0.325  10.805  21.180  0.00  0.00    +0.000 A 
ATOM     17  C   UNL     1      -1.097  11.621  22.051  0.00  0.00    +0.000 A 
ATOM     18  C   UNL     1      -1.292  10.922  23.221  0.00  0.00    +0.000 A 
ATOM     19  N   UNL     1      -0.680   9.705  23.086  0.00  0.00    +0.000 N 
ATOM     20  C   UNL     1      -0.070   9.614  21.855  0.00  0.00    +0.000 A 
ATOM     21  C   UNL     1       0.695   8.579  21.300  0.00  0.00    +0.000 A 
ATOM     22  H   UNL     1      -0.659   8.981  23.792  0.00  0.00    +0.000 HD
ENDBRANCH   3  13
BRANCH   1  23
ATOM     23  O   UNL     1       4.285   7.046  16.665  0.00  0.00    +0.000 OA
BRANCH  23  24
ATOM     24  C   UNL     1       5.652   6.646  16.808  0.00  0.00    +0.000 C 
BRANCH  24  28
ATOM     25  C   UNL     1       6.639   4.037  13.592  0.00  0.00    +0.000 A 
ATOM     26  C   UNL     1       5.336   4.036  14.076  0.00  0.00    +0.000 A 
ATOM     27  C   UNL     1       5.001   4.876  15.134  0.00  0.00    +0.000 A 
ATOM     28  C   UNL     1       5.985   5.696  15.682  0.00  0.00    +0.000 A 
ATOM     29  N   UNL     1       7.262   5.702  15.221  0.00  0.00    +0.000 NA
ATOM     30  C   UNL     1       7.558   4.880  14.192  0.00  0.00    +0.000 A 
ENDBRANCH  24  28
ENDBRANCH  23  24
ENDBRANCH   1  23
TORSDOF 4
ENDMDL
MODEL 4
REMARK VINA RESULT:      -9.0      2.217      3.102
REMARK  Name = 
REMARK  4 active torsions:
REMARK  status: ('A' for Active; 'I' for Inactive)
REMARK    1  A    between atoms: C_4  and  C_5
REMARK    2  A    between atoms: C_5  and  O_6
REMARK    3  A    between atoms: O_6  and  C_7
REMARK    4  A    between atoms: C_9  and  C_10
REMARK                            x       y       z     vdW  Elec       q    Type
REMARK                         _______ _______ _______ _____ _____    ______ ____
ROOT
ATOM      1  C   UNL     1       3.465   6.871  17.653  0.00  0.00    +0.000 A 
ATOM      2  C   UNL     1       2.745   7.934  18.120  0.00  0.00    +0.000 A 
ATOM      3  C   UNL     1       2.088   7.727  19.308  0.00  0.00    +0.000 A 
ATOM      4  N   UNL     1       2.155   6.539  19.954  0.00  0.00    +0.000 NA
ATOM      5  C   UNL     1       2.880   5.542  19.418  0.00  0.00    +0.000 A 
ATOM      6  N   UNL     1       2.999   4.359  20.108  0.00  0.00    +0.000 N 
ATOM      7  C   UNL     1       3.766   3.242  19.554  0.00  0.00    +0.000 C 
ATOM      8  C   UNL     1       2.829   2.098  19.143  0.00  0.00    +0.000 C 
ATOM      9  O   UNL     1       1.966   1.707  20.225  0.00  0.00    +0.000 OA
ATOM     10  C   UNL     1       1.154   2.821  20.639  0.00  0.00    +0.000 C 
ATOM     11  C   UNL     1       2.014   3.999  21.127  0.00  0.00    +0.000 C 
ATOM     12  N   UNL     1       3.534   5.677  18.259  0.00  0.00    +0.000 NA
ENDROOT
BRANCH   3  13
ATOM     13  C   UNL     1       1.261   8.772  19.951  0.00  0.00    +0.000 A 
ATOM     14  C   UNL     1       1.045  10.009  19.319  0.00  0.00    +0.000 A 
ATOM     15  C   UNL     1       0.298  11.036  19.921  0.00  0.00    +0.000 A 
ATOM     16  C   UNL     1      -0.246  10.830  21.200  0.00  0.00    +0.000 A 
ATOM     17  C   UNL     1      -1.000  11.631  22.101  0.00  0.00    +0.000 A 
ATOM     18  C   UNL     1      -1.239  10.883  23.232  0.00  0.00    +0.000 A 
ATOM     19  N   UNL     1      -0.672   9.652  23.044  0.00  0.00    +0.000 N 
ATOM     20  C   UNL     1      -0.047   9.598  21.819  0.00  0.00    +0.000 A 
ATOM     21  C   UNL     1       0.685   8.562  21.222  0.00  0.00    +0.000 A 
ATOM     22  H   UNL     1      -0.689   8.893  23.713  0.00  0.00    +0.000 HD
ENDBRANCH   3  13
BRANCH   1  23
ATOM     23  O   UNL     1       4.128   7.063  16.459  0.00  0.00    +0.000 OA
BRANCH  23  24
ATOM     24  C   UNL     1       5.221   6.153  16.298  0.00  0.00    +0.000 C 
BRANCH  24  28
ATOM     25  C   UNL     1       8.456   7.498  18.715  0.00  0.00    +0.000 A 
ATOM     26  C   UNL     1       7.971   6.211  18.908  0.00  0.00    +0.000 A 
ATOM     27  C   UNL     1       6.906   5.760  18.132  0.00  0.00    +0.000 A 
ATOM     28  C   UNL     1       6.354   6.617  17.182  0.00  0.00    +0.000 A 
ATOM     29  N   UNL     1       6.817   7.879  16.988  0.00  0.00    +0.000 NA
ATOM     30  C   UNL     1       7.853   8.287  17.752  0.00  0.00    +0.000 A 
ENDBRANCH  24  28
ENDBRANCH  23  24
ENDBRANCH   1  23
TORSDOF 4
ENDMDL
MODEL 5
REMARK VINA RESULT:      -8.8      1.819      2.647
REMARK  Name = 
REMARK  4 active torsions:
REMARK  status: ('A' for Active; 'I' for Inactive)
REMARK    1  A    between atoms: C_4  and  C_5
REMARK    2  A    between atoms: C_5  and  O_6
REMARK    3  A    between atoms: O_6  and  C_7
REMARK    4  A    between atoms: C_9  and  C_10
REMARK                            x       y       z     vdW  Elec       q    Type
REMARK                         _______ _______ _______ _____ _____    ______ ____
ROOT
ATOM      1  C   UNL     1       3.742   6.729  17.370  0.00  0.00    +0.000 A 
ATOM      2  C   UNL     1       3.035   7.862  17.657  0.00  0.00    +0.000 A 
ATOM      3  C   UNL     1       2.282   7.816  18.805  0.00  0.00    +0.000 A 
ATOM      4  N   UNL     1       2.250   6.709  19.583  0.00  0.00    +0.000 NA
ATOM      5  C   UNL     1       2.969   5.633  19.221  0.00  0.00    +0.000 A 
ATOM      6  N   UNL     1       2.986   4.534  20.047  0.00  0.00    +0.000 N 
ATOM      7  C   UNL     1       3.743   3.335  19.684  0.00  0.00    +0.000 C 
ATOM      8  C   UNL     1       2.792   2.184  19.332  0.00  0.00    +0.000 C 
ATOM      9  O   UNL     1       1.834   1.950  20.379  0.00  0.00    +0.000 OA
ATOM     10  C   UNL     1       1.042   3.131  20.600  0.00  0.00    +0.000 C 
ATOM     11  C   UNL     1       1.913   4.327  21.019  0.00  0.00    +0.000 C 
ATOM     12  N   UNL     1       3.713   5.611  18.110  0.00  0.00    +0.000 NA
ENDROOT
BRANCH   3  13
ATOM     13  C   UNL     1       1.455   8.956  19.259  0.00  0.00    +0.000 A 
ATOM     14  C   UNL     1       1.021   9.044  20.593  0.00  0.00    +0.000 A 
ATOM     15  C   UNL     1       0.203  10.093  21.045  0.00  0.00    +0.000 A 
ATOM     16  C   UNL     1      -0.206  11.085  20.138  0.00  0.00    +0.000 A 
ATOM     17  C   UNL     1      -1.038  12.235  20.230  0.00  0.00    +0.000 A 
ATOM     18  C   UNL     1      -1.082  12.824  18.987  0.00  0.00    +0.000 A 
ATOM     19  N   UNL     1      -0.296  12.083  18.146  0.00  0.00    +0.000 N 
ATOM     20  C   UNL     1       0.238  11.008  18.821  0.00  0.00    +0.000 A 
ATOM     21  C   UNL     1       1.066   9.974  18.361  0.00  0.00    +0.000 A 
ATOM     22  H   UNL     1      -0.141  12.280  17.167  0.00  0.00    +0.000 HD
ENDBRANCH   3  13
BRANCH   1  23
ATOM     23  O   UNL     1       4.500   6.760  16.219  0.00  0.00    +0.000 OA
BRANCH  23  24
ATOM     24  C   UNL     1       5.639   5.898  16.302  0.00  0.00    +0.000 C 
BRANCH  24  28
ATOM     25  C   UNL     1       8.552   7.770  18.779  0.00  0.00    +0.000 A 
ATOM     26  C   UNL     1       8.181   6.460  19.059  0.00  0.00    +0.000 A 
ATOM     27  C   UNL     1       7.222   5.838  18.264  0.00  0.00    +0.000 A 
ATOM     28  C   UNL     1       6.658   6.550  17.207  0.00  0.00    +0.000 A 
ATOM     29  N   UNL     1       7.009   7.831  16.928  0.00  0.00    +0.000 NA
ATOM     30  C   UNL     1       7.944   8.407  17.713  0.00  0.00    +0.000 A 
ENDBRANCH  24  28
ENDBRANCH  23  24
ENDBRANCH   1  23
TORSDOF 4
ENDMDL
MODEL 6
REMARK VINA RESULT:      -8.7      1.974      5.062
REMARK  Name = 
REMARK  4 active torsions:
REMARK  status: ('A' for Active; 'I' for Inactive)
REMARK    1  A    between atoms: C_4  and  C_5
REMARK    2  A    between atoms: C_5  and  O_6
REMARK    3  A    between atoms: O_6  and  C_7
REMARK    4  A    between atoms: C_9  and  C_10
REMARK                            x       y       z     vdW  Elec       q    Type
REMARK                         _______ _______ _______ _____ _____    ______ ____
ROOT
ATOM      1  C   UNL     1       2.474   4.735  17.386  0.00  0.00    +0.000 A 
ATOM      2  C   UNL     1       1.782   5.757  17.973  0.00  0.00    +0.000 A 
ATOM      3  C   UNL     1       2.508   6.895  18.226  0.00  0.00    +0.000 A 
ATOM      4  N   UNL     1       3.823   6.976  17.915  0.00  0.00    +0.000 NA
ATOM      5  C   UNL     1       4.428   5.919  17.348  0.00  0.00    +0.000 A 
ATOM      6  N   UNL     1       5.747   6.027  16.975  0.00  0.00    +0.000 N 
ATOM      7  C   UNL     1       6.450   4.896  16.368  0.00  0.00    +0.000 C 
ATOM      8  C   UNL     1       7.498   4.331  17.337  0.00  0.00    +0.000 C 
ATOM      9  O   UNL     1       8.387   5.358  17.811  0.00  0.00    +0.000 OA
ATOM     10  C   UNL     1       7.643   6.377  18.503  0.00  0.00    +0.000 C 
ATOM     11  C   UNL     1       6.604   7.043  17.584  0.00  0.00    +0.000 C 
ATOM     12  N   UNL     1       3.780   4.779  17.086  0.00  0.00    +0.000 NA
ENDROOT
BRANCH   3  13
ATOM     13  C   UNL     1       1.913   8.093  18.859  0.00  0.00    +0.000 A 
ATOM     14  C   UNL     1       1.594   8.100  20.228  0.00  0.00    +0.000 A 
ATOM     15  C   UNL     1       0.993   9.207  20.850  0.00  0.00    +0.000 A 
ATOM     16  C   UNL     1       0.688  10.344  20.082  0.00  0.00    +0.000 A 
ATOM     17  C   UNL     1       0.065  11.592  20.358  0.00  0.00    +0.000 A 
ATOM     18  C   UNL     1       0.029  12.313  19.186  0.00  0.00    +0.000 A 
ATOM     19  N   UNL     1       0.622  11.556  18.212  0.00  0.00    +0.000 N 
ATOM     20  C   UNL     1       1.020  10.344  18.730  0.00  0.00    +0.000 A 
ATOM     21  C   UNL     1       1.632   9.250  18.102  0.00  0.00    +0.000 A 
ATOM     22  H   UNL     1       0.738  11.833  17.247  0.00  0.00    +0.000 HD
ENDBRANCH   3  13
BRANCH   1  23
ATOM     23  O   UNL     1       1.758   3.585  17.129  0.00  0.00    +0.000 OA
BRANCH  23  24
ATOM     24  C   UNL     1       2.387   2.425  17.682  0.00  0.00    +0.000 C 
BRANCH  24  28
ATOM     25  C   UNL     1       2.293   2.659  21.932  0.00  0.00    +0.000 A 
ATOM     26  C   UNL     1       1.104   2.810  21.230  0.00  0.00    +0.000 A 
ATOM     27  C   UNL     1       1.120   2.746  19.839  0.00  0.00    +0.000 A 
ATOM     28  C   UNL     1       2.334   2.534  19.188  0.00  0.00    +0.000 A 
ATOM     29  N   UNL     1       3.503   2.390  19.864  0.00  0.00    +0.000 NA
ATOM     30  C   UNL     1       3.456   2.452  21.211  0.00  0.00    +0.000 A 
ENDBRANCH  24  28
ENDBRANCH  23  24
ENDBRANCH   1  23
TORSDOF 4
ENDMDL
MODEL 7
REMARK VINA RESULT:      -8.6      1.067      1.150
REMARK  Name = 
REMARK  4 active torsions:
REMARK  status: ('A' for Active; 'I' for Inactive)
REMARK    1  A    between atoms: C_4  and  C_5
REMARK    2  A    between atoms: C_5  and  O_6
REMARK    3  A    between atoms: O_6  and  C_7
REMARK    4  A    between atoms: C_9  and  C_10
REMARK                            x       y       z     vdW  Elec       q    Type
REMARK                         _______ _______ _______ _____ _____    ______ ____
ROOT
ATOM      1  C   UNL     1       4.773   6.626  17.042  0.00  0.00    +0.000 A 
ATOM      2  C   UNL     1       4.046   7.783  17.073  0.00  0.00    +0.000 A 
ATOM      3  C   UNL     1       2.912   7.749  17.847  0.00  0.00    +0.000 A 
ATOM      4  N   UNL     1       2.550   6.630  18.519  0.00  0.00    +0.000 NA
ATOM      5  C   UNL     1       3.319   5.532  18.424  0.00  0.00    +0.000 A 
ATOM      6  N   UNL     1       2.984   4.420  19.159  0.00  0.00    +0.000 N 
ATOM      7  C   UNL     1       3.784   3.197  19.074  0.00  0.00    +0.000 C 
ATOM      8  C   UNL     1       3.002   2.092  18.350  0.00  0.00    +0.000 C 
ATOM      9  O   UNL     1       1.711   1.880  18.947  0.00  0.00    +0.000 OA
ATOM     10  C   UNL     1       0.933   3.089  18.887  0.00  0.00    +0.000 C 
ATOM     11  C   UNL     1       1.616   4.241  19.643  0.00  0.00    +0.000 C 
ATOM     12  N   UNL     1       4.429   5.498  17.679  0.00  0.00    +0.000 NA
ENDROOT
BRANCH   3  13
ATOM     13  C   UNL     1       2.011   8.914  17.988  0.00  0.00    +0.000 A 
ATOM     14  C   UNL     1       2.524  10.189  18.285  0.00  0.00    +0.000 A 
ATOM     15  C   UNL     1       1.692  11.306  18.464  0.00  0.00    +0.000 A 
ATOM     16  C   UNL     1       0.300  11.150  18.353  0.00  0.00    +0.000 A 
ATOM     17  C   UNL     1      -0.814  12.023  18.504  0.00  0.00    +0.000 A 
ATOM     18  C   UNL     1      -1.957  11.288  18.285  0.00  0.00    +0.000 A 
ATOM     19  N   UNL     1      -1.579  10.005  17.992  0.00  0.00    +0.000 N 
ATOM     20  C   UNL     1      -0.208   9.892  18.041  0.00  0.00    +0.000 A 
ATOM     21  C   UNL     1       0.614   8.773  17.848  0.00  0.00    +0.000 A 
ATOM     22  H   UNL     1      -2.211   9.243  17.786  0.00  0.00    +0.000 HD
ENDBRANCH   3  13
BRANCH   1  23
ATOM     23  O   UNL     1       5.913   6.645  16.267  0.00  0.00    +0.000 OA
BRANCH  23  24
ATOM     24  C   UNL     1       6.590   5.385  16.276  0.00  0.00    +0.000 C 
BRANCH  24  28
ATOM     25  C   UNL     1       7.010   4.157  12.221  0.00  0.00    +0.000 A 
ATOM     26  C   UNL     1       6.012   3.576  12.993  0.00  0.00    +0.000 A 
ATOM     27  C   UNL     1       5.869   3.960  14.324  0.00  0.00    +0.000 A 
ATOM     28  C   UNL     1       6.736   4.918  14.846  0.00  0.00    +0.000 A 
ATOM     29  N   UNL     1       7.718   5.489  14.102  0.00  0.00    +0.000 NA
ATOM     30  C   UNL     1       7.830   5.100  12.815  0.00  0.00    +0.000 A 
ENDBRANCH  24  28
ENDBRANCH  23  24
ENDBRANCH   1  23
TORSDOF 4
ENDMDL
MODEL 8
REMARK VINA RESULT:      -8.5      2.192      5.246
REMARK  Name = 
REMARK  4 active torsions:
REMARK  status: ('A' for Active; 'I' for Inactive)
REMARK    1  A    between atoms: C_4  and  C_5
REMARK    2  A    between atoms: C_5  and  O_6
REMARK    3  A    between atoms: O_6  and  C_7
REMARK    4  A    between atoms: C_9  and  C_10
REMARK                            x       y       z     vdW  Elec       q    Type
REMARK                         _______ _______ _______ _____ _____    ______ ____
ROOT
ATOM      1  C   UNL     1       2.544   4.681  17.348  0.00  0.00    +0.000 A 
ATOM      2  C   UNL     1       1.827   5.710  17.888  0.00  0.00    +0.000 A 
ATOM      3  C   UNL     1       2.536   6.861  18.134  0.00  0.00    +0.000 A 
ATOM      4  N   UNL     1       3.859   6.946  17.860  0.00  0.00    +0.000 NA
ATOM      5  C   UNL     1       4.489   5.880  17.338  0.00  0.00    +0.000 A 
ATOM      6  N   UNL     1       5.817   5.991  17.001  0.00  0.00    +0.000 N 
ATOM      7  C   UNL     1       6.547   4.851  16.444  0.00  0.00    +0.000 C 
ATOM      8  C   UNL     1       7.571   4.320  17.457  0.00  0.00    +0.000 C 
ATOM      9  O   UNL     1       8.437   5.367  17.931  0.00  0.00    +0.000 OA
ATOM     10  C   UNL     1       7.665   6.396  18.575  0.00  0.00    +0.000 C 
ATOM     11  C   UNL     1       6.648   7.030  17.610  0.00  0.00    +0.000 C 
ATOM     12  N   UNL     1       3.858   4.729  17.086  0.00  0.00    +0.000 NA
ENDROOT
BRANCH   3  13
ATOM     13  C   UNL     1       1.912   8.068  18.719  0.00  0.00    +0.000 A 
ATOM     14  C   UNL     1       1.733   9.231  17.949  0.00  0.00    +0.000 A 
ATOM     15  C   UNL     1       1.181  10.406  18.487  0.00  0.00    +0.000 A 
ATOM     16  C   UNL     1       0.802  10.430  19.840  0.00  0.00    +0.000 A 
ATOM     17  C   UNL     1       0.262  11.422  20.704  0.00  0.00    +0.000 A 
ATOM     18  C   UNL     1       0.110  10.858  21.950  0.00  0.00    +0.000 A 
ATOM     19  N   UNL     1       0.522   9.555  21.871  0.00  0.00    +0.000 N 
ATOM     20  C   UNL     1       0.962   9.273  20.598  0.00  0.00    +0.000 A 
ATOM     21  C   UNL     1       1.500   8.091  20.069  0.00  0.00    +0.000 A 
ATOM     22  H   UNL     1       0.523   8.896  22.638  0.00  0.00    +0.000 HD
ENDBRANCH   3  13
BRANCH   1  23
ATOM     23  O   UNL     1       1.846   3.518  17.099  0.00  0.00    +0.000 OA
BRANCH  23  24
ATOM     24  C   UNL     1       2.472   2.376  17.692  0.00  0.00    +0.000 C 
BRANCH  24  28
ATOM     25  C   UNL     1       2.248   2.684  21.932  0.00  0.00    +0.000 A 
ATOM     26  C   UNL     1       1.081   2.820  21.191  0.00  0.00    +0.000 A 
ATOM     27  C   UNL     1       1.139   2.732  19.803  0.00  0.00    +0.000 A 
ATOM     28  C   UNL     1       2.373   2.511  19.193  0.00  0.00    +0.000 A 
ATOM     29  N   UNL     1       3.521   2.383  19.907  0.00  0.00    +0.000 NA
ATOM     30  C   UNL     1       3.433   2.468  21.251  0.00  0.00    +0.000 A 
ENDBRANCH  24  28
ENDBRANCH  23  24
ENDBRANCH   1  23
TORSDOF 4
ENDMDL
MODEL 9
REMARK VINA RESULT:      -8.4      1.593      2.138
REMARK  Name = 
REMARK  4 active torsions:
REMARK  status: ('A' for Active; 'I' for Inactive)
REMARK    1  A    between atoms: C_4  and  C_5
REMARK    2  A    between atoms: C_5  and  O_6
REMARK    3  A    between atoms: O_6  and  C_7
REMARK    4  A    between atoms: C_9  and  C_10
REMARK                            x       y       z     vdW  Elec       q    Type
REMARK                         _______ _______ _______ _____ _____    ______ ____
ROOT
ATOM      1  C   UNL     1       3.130   7.178  18.107  0.00  0.00    +0.000 A 
ATOM      2  C   UNL     1       2.423   8.174  18.720  0.00  0.00    +0.000 A 
ATOM      3  C   UNL     1       1.851   7.840  19.923  0.00  0.00    +0.000 A 
ATOM      4  N   UNL     1       1.983   6.598  20.446  0.00  0.00    +0.000 NA
ATOM      5  C   UNL     1       2.689   5.675  19.771  0.00  0.00    +0.000 A 
ATOM      6  N   UNL     1       2.876   4.436  20.336  0.00  0.00    +0.000 N 
ATOM      7  C   UNL     1       3.624   3.395  19.629  0.00  0.00    +0.000 C 
ATOM      8  C   UNL     1       2.683   2.271  19.173  0.00  0.00    +0.000 C 
ATOM      9  O   UNL     1       1.902   1.759  20.266  0.00  0.00    +0.000 OA
ATOM     10  C   UNL     1       1.099   2.808  20.837  0.00  0.00    +0.000 C 
ATOM     11  C   UNL     1       1.968   3.956  21.378  0.00  0.00    +0.000 C 
ATOM     12  N   UNL     1       3.261   5.935  18.591  0.00  0.00    +0.000 NA
ENDROOT
BRANCH   3  13
ATOM     13  C   UNL     1       1.050   8.799  20.715  0.00  0.00    +0.000 A 
ATOM     14  C   UNL     1       0.983   8.697  22.116  0.00  0.00    +0.000 A 
ATOM     15  C   UNL     1       0.201   9.568  22.893  0.00  0.00    +0.000 A 
ATOM     16  C   UNL     1      -0.550  10.570  22.255  0.00  0.00    +0.000 A 
ATOM     17  C   UNL     1      -1.454  11.572  22.703  0.00  0.00    +0.000 A 
ATOM     18  C   UNL     1      -1.899  12.262  21.598  0.00  0.00    +0.000 A 
ATOM     19  N   UNL     1      -1.288  11.726  20.497  0.00  0.00    +0.000 N 
ATOM     20  C   UNL     1      -0.470  10.683  20.869  0.00  0.00    +0.000 A 
ATOM     21  C   UNL     1       0.317   9.828  20.085  0.00  0.00    +0.000 A 
ATOM     22  H   UNL     1      -1.426  12.035  19.545  0.00  0.00    +0.000 HD
ENDBRANCH   3  13
BRANCH   1  23
ATOM     23  O   UNL     1       3.707   7.498  16.897  0.00  0.00    +0.000 OA
BRANCH  23  24
ATOM     24  C   UNL     1       5.135   7.546  16.978  0.00  0.00    +0.000 C 
BRANCH  24  28
ATOM     25  C   UNL     1       6.762   3.946  15.390  0.00  0.00    +0.000 A 
ATOM     26  C   UNL     1       5.792   4.619  14.657  0.00  0.00    +0.000 A 
ATOM     27  C   UNL     1       5.243   5.793  15.168  0.00  0.00    +0.000 A 
ATOM     28  C   UNL     1       5.682   6.259  16.406  0.00  0.00    +0.000 A 
ATOM     29  N   UNL     1       6.625   5.607  17.133  0.00  0.00    +0.000 NA
ATOM     30  C   UNL     1       7.143   4.474  16.611  0.00  0.00    +0.000 A 
ENDBRANCH  24  28
ENDBRANCH  23  24
ENDBRANCH   1  23
TORSDOF 4
ENDMDL
