MODEL 1
REMARK VINA RESULT:      -7.3      0.000      0.000
REMARK  Name = 
REMARK  5 active torsions:
REMARK  status: ('A' for Active; 'I' for Inactive)
REMARK    1  A    between atoms: N_1  and  C_2
REMARK    2  A    between atoms: C_2  and  N_4
REMARK    3  A    between atoms: N_4  and  N_5
REMARK    4  A    between atoms: C_6  and  C_7
REMARK    5  A    between atoms: C_12  and  C_13
REMARK                            x       y       z     vdW  Elec       q    Type
REMARK                         _______ _______ _______ _____ _____    ______ ____
ROOT
ATOM      1  C   UNL     1       4.570   5.675  17.288  0.00  0.00    +0.000 A 
ATOM      2  N   UNL     1       4.941   4.742  16.377  0.00  0.00    +0.000 NA
ATOM      3  C   UNL     1       4.338   3.549  16.476  0.00  0.00    +0.000 A 
ATOM      4  C   UNL     1       3.374   3.250  17.428  0.00  0.00    +0.000 A 
ATOM      5  C   UNL     1       2.948   4.222  18.361  0.00  0.00    +0.000 A 
ATOM      6  C   UNL     1       1.952   4.001  19.363  0.00  0.00    +0.000 A 
ATOM      7  C   UNL     1       1.587   5.049  20.240  0.00  0.00    +0.000 A 
ATOM      8  C   UNL     1       2.164   6.299  20.138  0.00  0.00    +0.000 A 
ATOM      9  C   UNL     1       3.126   6.521  19.163  0.00  0.00    +0.000 A 
ATOM     10  C   UNL     1       3.563   5.501  18.277  0.00  0.00    +0.000 A 
ENDROOT
BRANCH   6  11
ATOM     11  C   UNL     1       1.210   2.698  19.590  0.00  0.00    +0.000 C 
ATOM     12  F   UNL     1       1.958   1.565  19.562  0.00  0.00    +0.000 F 
ATOM     13  F   UNL     1       0.574   2.680  20.797  0.00  0.00    +0.000 F 
ATOM     14  F   UNL     1       0.230   2.506  18.661  0.00  0.00    +0.000 F 
ENDBRANCH   6  11
BRANCH   1  16
ATOM     15  N   UNL     1       6.686   6.831  17.064  0.00  0.00    +0.000 NA
ATOM     16  C   UNL     1       5.398   6.903  17.181  0.00  0.00    +0.000 C 
BRANCH  15  17
ATOM     17  N   UNL     1       7.378   7.995  17.002  0.00  0.00    +0.000 N 
ATOM     18  H   UNL     1       7.292   8.619  16.205  0.00  0.00    +0.000 HD
BRANCH  17  19
ATOM     19  C   UNL     1       8.165   8.372  18.064  0.00  0.00    +0.000 C 
ATOM     20  S   UNL     1       8.682   9.926  18.298  0.00  0.00    +0.000 S 
BRANCH  19  21
ATOM     21  N   UNL     1       8.481   7.368  18.922  0.00  0.00    +0.000 N 
ATOM     22  H   UNL     1       8.110   7.335  19.860  0.00  0.00    +0.000 HD
ATOM     23  H   UNL     1       9.242   6.758  18.647  0.00  0.00    +0.000 HD
ENDBRANCH  19  21
ENDBRANCH  17  19
ENDBRANCH  15  17
ENDBRANCH   1  16
TORSDOF 5
ENDMDL
MODEL 2
REMARK VINA RESULT:      -7.2      3.574      4.599
REMARK  Name = 
REMARK  5 active torsions:
REMARK  status: ('A' for Active; 'I' for Inactive)
REMARK    1  A    between atoms: N_1  and  C_2
REMARK    2  A    between atoms: C_2  and  N_4
REMARK    3  A    between atoms: N_4  and  N_5
REMARK    4  A    between atoms: C_6  and  C_7
REMARK    5  A    between atoms: C_12  and  C_13
REMARK                            x       y       z     vdW  Elec       q    Type
REMARK                         _______ _______ _______ _____ _____    ______ ____
ROOT
ATOM      1  C   UNL     1       3.426   6.060  18.352  0.00  0.00    +0.000 A 
ATOM      2  N   UNL     1       3.427   4.967  19.154  0.00  0.00    +0.000 NA
ATOM      3  C   UNL     1       2.709   5.063  20.282  0.00  0.00    +0.000 A 
ATOM      4  C   UNL     1       1.980   6.188  20.638  0.00  0.00    +0.000 A 
ATOM      5  C   UNL     1       1.936   7.321  19.794  0.00  0.00    +0.000 A 
ATOM      6  C   UNL     1       1.198   8.514  20.078  0.00  0.00    +0.000 A 
ATOM      7  C   UNL     1       1.209   9.587  19.158  0.00  0.00    +0.000 A 
ATOM      8  C   UNL     1       1.909   9.504  17.971  0.00  0.00    +0.000 A 
ATOM      9  C   UNL     1       2.621   8.347  17.687  0.00  0.00    +0.000 A 
ATOM     10  C   UNL     1       2.680   7.249  18.586  0.00  0.00    +0.000 A 
ENDROOT
BRANCH   6  11
ATOM     11  C   UNL     1       0.363   8.754  21.322  0.00  0.00    +0.000 C 
ATOM     12  F   UNL     1      -0.647   7.875  21.548  0.00  0.00    +0.000 F 
ATOM     13  F   UNL     1       1.123   8.729  22.455  0.00  0.00    +0.000 F 
ATOM     14  F   UNL     1      -0.226   9.984  21.306  0.00  0.00    +0.000 F 
ENDBRANCH   6  11
BRANCH   1  16
ATOM     15  N   UNL     1       5.590   6.305  17.294  0.00  0.00    +0.000 NA
ATOM     16  C   UNL     1       4.362   5.902  17.210  0.00  0.00    +0.000 C 
BRANCH  15  17
ATOM     17  N   UNL     1       6.377   6.156  16.201  0.00  0.00    +0.000 N 
ATOM     18  H   UNL     1       6.688   6.957  15.660  0.00  0.00    +0.000 HD
BRANCH  17  19
ATOM     19  C   UNL     1       6.818   4.902  15.849  0.00  0.00    +0.000 C 
ATOM     20  S   UNL     1       6.358   4.141  14.454  0.00  0.00    +0.000 S 
BRANCH  19  21
ATOM     21  N   UNL     1       7.677   4.332  16.734  0.00  0.00    +0.000 N 
ATOM     22  H   UNL     1       8.345   4.881  17.253  0.00  0.00    +0.000 HD
ATOM     23  H   UNL     1       7.742   3.321  16.716  0.00  0.00    +0.000 HD
ENDBRANCH  19  21
ENDBRANCH  17  19
ENDBRANCH  15  17
ENDBRANCH   1  16
TORSDOF 5
ENDMDL
MODEL 3
REMARK VINA RESULT:      -7.2      3.367      4.843
REMARK  Name = 
REMARK  5 active torsions:
REMARK  status: ('A' for Active; 'I' for Inactive)
REMARK    1  A    between atoms: N_1  and  C_2
REMARK    2  A    between atoms: C_2  and  N_4
REMARK    3  A    between atoms: N_4  and  N_5
REMARK    4  A    between atoms: C_6  and  C_7
REMARK    5  A    between atoms: C_12  and  C_13
REMARK                            x       y       z     vdW  Elec       q    Type
REMARK                         _______ _______ _______ _____ _____    ______ ____
ROOT
ATOM      1  C   UNL     1       5.138   4.696  16.363  0.00  0.00    +0.000 A 
ATOM      2  N   UNL     1       5.304   6.039  16.297  0.00  0.00    +0.000 NA
ATOM      3  C   UNL     1       4.579   6.766  17.159  0.00  0.00    +0.000 A 
ATOM      4  C   UNL     1       3.711   6.215  18.091  0.00  0.00    +0.000 A 
ATOM      5  C   UNL     1       3.556   4.814  18.200  0.00  0.00    +0.000 A 
ATOM      6  C   UNL     1       2.696   4.165  19.141  0.00  0.00    +0.000 A 
ATOM      7  C   UNL     1       2.624   2.754  19.177  0.00  0.00    +0.000 A 
ATOM      8  C   UNL     1       3.387   1.979  18.327  0.00  0.00    +0.000 A 
ATOM      9  C   UNL     1       4.228   2.602  17.417  0.00  0.00    +0.000 A 
ATOM     10  C   UNL     1       4.317   4.015  17.305  0.00  0.00    +0.000 A 
ENDROOT
BRANCH   6  11
ATOM     11  C   UNL     1       1.814   4.871  20.155  0.00  0.00    +0.000 C 
ATOM     12  F   UNL     1       1.594   6.194  19.944  0.00  0.00    +0.000 F 
ATOM     13  F   UNL     1       0.574   4.306  20.227  0.00  0.00    +0.000 F 
ATOM     14  F   UNL     1       2.326   4.786  21.416  0.00  0.00    +0.000 F 
ENDBRANCH   6  11
BRANCH   1  16
ATOM     15  N   UNL     1       5.518   4.136  14.038  0.00  0.00    +0.000 NA
ATOM     16  C   UNL     1       5.872   4.000  15.276  0.00  0.00    +0.000 C 
BRANCH  15  17
ATOM     17  N   UNL     1       6.215   3.447  13.104  0.00  0.00    +0.000 N 
ATOM     18  H   UNL     1       7.223   3.331  13.174  0.00  0.00    +0.000 HD
BRANCH  17  19
ATOM     19  C   UNL     1       5.545   2.836  12.071  0.00  0.00    +0.000 C 
ATOM     20  S   UNL     1       4.138   3.427  11.432  0.00  0.00    +0.000 S 
BRANCH  19  21
ATOM     21  N   UNL     1       6.133   1.705  11.600  0.00  0.00    +0.000 N 
ATOM     22  H   UNL     1       5.591   0.906  11.309  0.00  0.00    +0.000 HD
ATOM     23  H   UNL     1       7.136   1.631  11.724  0.00  0.00    +0.000 HD
ENDBRANCH  19  21
ENDBRANCH  17  19
ENDBRANCH  15  17
ENDBRANCH   1  16
TORSDOF 5
ENDMDL
MODEL 4
REMARK VINA RESULT:      -7.1      3.373      4.508
REMARK  Name = 
REMARK  5 active torsions:
REMARK  status: ('A' for Active; 'I' for Inactive)
REMARK    1  A    between atoms: N_1  and  C_2
REMARK    2  A    between atoms: C_2  and  N_4
REMARK    3  A    between atoms: N_4  and  N_5
REMARK    4  A    between atoms: C_6  and  C_7
REMARK    5  A    between atoms: C_12  and  C_13
REMARK                            x       y       z     vdW  Elec       q    Type
REMARK                         _______ _______ _______ _____ _____    ______ ____
ROOT
ATOM      1  C   UNL     1       3.441   4.922  18.858  0.00  0.00    +0.000 A 
ATOM      2  N   UNL     1       3.202   3.984  19.807  0.00  0.00    +0.000 NA
ATOM      3  C   UNL     1       2.451   4.376  20.846  0.00  0.00    +0.000 A 
ATOM      4  C   UNL     1       1.917   5.650  20.974  0.00  0.00    +0.000 A 
ATOM      5  C   UNL     1       2.124   6.628  19.975  0.00  0.00    +0.000 A 
ATOM      6  C   UNL     1       1.599   7.958  20.021  0.00  0.00    +0.000 A 
ATOM      7  C   UNL     1       1.854   8.856  18.960  0.00  0.00    +0.000 A 
ATOM      8  C   UNL     1       2.592   8.469  17.859  0.00  0.00    +0.000 A 
ATOM      9  C   UNL     1       3.099   7.179  17.805  0.00  0.00    +0.000 A 
ATOM     10  C   UNL     1       2.910   6.241  18.855  0.00  0.00    +0.000 A 
ENDROOT
BRANCH   6  11
ATOM     11  C   UNL     1       0.753   8.527  21.144  0.00  0.00    +0.000 C 
ATOM     12  F   UNL     1      -0.383   7.847  21.448  0.00  0.00    +0.000 F 
ATOM     13  F   UNL     1       1.450   8.604  22.315  0.00  0.00    +0.000 F 
ATOM     14  F   UNL     1       0.349   9.802  20.877  0.00  0.00    +0.000 F 
ENDBRANCH   6  11
BRANCH   1  16
ATOM     15  N   UNL     1       5.675   4.522  18.012  0.00  0.00    +0.000 NA
ATOM     16  C   UNL     1       4.396   4.430  17.832  0.00  0.00    +0.000 C 
BRANCH  15  17
ATOM     17  N   UNL     1       6.484   4.081  17.019  0.00  0.00    +0.000 N 
ATOM     18  H   UNL     1       6.807   3.118  16.989  0.00  0.00    +0.000 HD
BRANCH  17  19
ATOM     19  C   UNL     1       6.828   4.932  15.996  0.00  0.00    +0.000 C 
ATOM     20  S   UNL     1       6.630   4.551  14.399  0.00  0.00    +0.000 S 
BRANCH  19  21
ATOM     21  N   UNL     1       7.335   6.127  16.396  0.00  0.00    +0.000 N 
ATOM     22  H   UNL     1       6.940   6.639  17.170  0.00  0.00    +0.000 HD
ATOM     23  H   UNL     1       8.006   6.566  15.776  0.00  0.00    +0.000 HD
ENDBRANCH  19  21
ENDBRANCH  17  19
ENDBRANCH  15  17
ENDBRANCH   1  16
TORSDOF 5
ENDMDL
MODEL 5
REMARK VINA RESULT:      -7.1      2.732      3.451
REMARK  Name = 
REMARK  5 active torsions:
REMARK  status: ('A' for Active; 'I' for Inactive)
REMARK    1  A    between atoms: N_1  and  C_2
REMARK    2  A    between atoms: C_2  and  N_4
REMARK    3  A    between atoms: N_4  and  N_5
REMARK    4  A    between atoms: C_6  and  C_7
REMARK    5  A    between atoms: C_12  and  C_13
REMARK                            x       y       z     vdW  Elec       q    Type
REMARK                         _______ _______ _______ _____ _____    ______ ____
ROOT
ATOM      1  C   UNL     1       4.666   6.008  17.777  0.00  0.00    +0.000 A 
ATOM      2  N   UNL     1       3.931   7.128  17.566  0.00  0.00    +0.000 NA
ATOM      3  C   UNL     1       2.701   7.134  18.097  0.00  0.00    +0.000 A 
ATOM      4  C   UNL     1       2.176   6.084  18.838  0.00  0.00    +0.000 A 
ATOM      5  C   UNL     1       2.942   4.926  19.100  0.00  0.00    +0.000 A 
ATOM      6  C   UNL     1       2.484   3.808  19.866  0.00  0.00    +0.000 A 
ATOM      7  C   UNL     1       3.337   2.702  20.082  0.00  0.00    +0.000 A 
ATOM      8  C   UNL     1       4.623   2.683  19.579  0.00  0.00    +0.000 A 
ATOM      9  C   UNL     1       5.075   3.768  18.841  0.00  0.00    +0.000 A 
ATOM     10  C   UNL     1       4.255   4.892  18.558  0.00  0.00    +0.000 A 
ENDROOT
BRANCH   6  11
ATOM     11  C   UNL     1       1.113   3.685  20.503  0.00  0.00    +0.000 C 
ATOM     12  F   UNL     1       1.053   3.007  21.678  0.00  0.00    +0.000 F 
ATOM     13  F   UNL     1       0.563   4.906  20.763  0.00  0.00    +0.000 F 
ATOM     14  F   UNL     1       0.226   3.055  19.679  0.00  0.00    +0.000 F 
ENDBRANCH   6  11
BRANCH   1  16
ATOM     15  N   UNL     1       6.015   5.650  15.798  0.00  0.00    +0.000 NA
ATOM     16  C   UNL     1       5.949   6.046  17.029  0.00  0.00    +0.000 C 
BRANCH  15  17
ATOM     17  N   UNL     1       7.225   5.685  15.190  0.00  0.00    +0.000 N 
ATOM     18  H   UNL     1       8.042   6.066  15.660  0.00  0.00    +0.000 HD
BRANCH  17  19
ATOM     19  C   UNL     1       7.371   5.139  13.937  0.00  0.00    +0.000 C 
ATOM     20  S   UNL     1       6.411   3.918  13.367  0.00  0.00    +0.000 S 
BRANCH  19  21
ATOM     21  N   UNL     1       8.362   5.689  13.188  0.00  0.00    +0.000 N 
ATOM     22  H   UNL     1       8.368   6.670  12.955  0.00  0.00    +0.000 HD
ATOM     23  H   UNL     1       8.991   5.044  12.725  0.00  0.00    +0.000 HD
ENDBRANCH  19  21
ENDBRANCH  17  19
ENDBRANCH  15  17
ENDBRANCH   1  16
TORSDOF 5
ENDMDL
MODEL 6
REMARK VINA RESULT:      -7.1      2.543      3.563
REMARK  Name = 
REMARK  5 active torsions:
REMARK  status: ('A' for Active; 'I' for Inactive)
REMARK    1  A    between atoms: N_1  and  C_2
REMARK    2  A    between atoms: C_2  and  N_4
REMARK    3  A    between atoms: N_4  and  N_5
REMARK    4  A    between atoms: C_6  and  C_7
REMARK    5  A    between atoms: C_12  and  C_13
REMARK                            x       y       z     vdW  Elec       q    Type
REMARK                         _______ _______ _______ _____ _____    ______ ____
ROOT
ATOM      1  C   UNL     1       4.302   5.934  17.235  0.00  0.00    +0.000 A 
ATOM      2  N   UNL     1       3.853   7.140  17.660  0.00  0.00    +0.000 NA
ATOM      3  C   UNL     1       2.818   7.118  18.512  0.00  0.00    +0.000 A 
ATOM      4  C   UNL     1       2.223   5.951  18.970  0.00  0.00    +0.000 A 
ATOM      5  C   UNL     1       2.703   4.684  18.568  0.00  0.00    +0.000 A 
ATOM      6  C   UNL     1       2.158   3.435  19.004  0.00  0.00    +0.000 A 
ATOM      7  C   UNL     1       2.724   2.221  18.552  0.00  0.00    +0.000 A 
ATOM      8  C   UNL     1       3.813   2.213  17.704  0.00  0.00    +0.000 A 
ATOM      9  C   UNL     1       4.350   3.421  17.283  0.00  0.00    +0.000 A 
ATOM     10  C   UNL     1       3.806   4.674  17.671  0.00  0.00    +0.000 A 
ENDROOT
BRANCH   6  11
ATOM     11  C   UNL     1       0.983   3.274  19.949  0.00  0.00    +0.000 C 
ATOM     12  F   UNL     1       0.438   4.419  20.435  0.00  0.00    +0.000 F 
ATOM     13  F   UNL     1      -0.051   2.604  19.362  0.00  0.00    +0.000 F 
ATOM     14  F   UNL     1       1.315   2.538  21.048  0.00  0.00    +0.000 F 
ENDBRANCH   6  11
BRANCH   1  16
ATOM     15  N   UNL     1       6.491   5.480  16.307  0.00  0.00    +0.000 NA
ATOM     16  C   UNL     1       5.347   6.076  16.191  0.00  0.00    +0.000 C 
BRANCH  15  17
ATOM     17  N   UNL     1       7.408   5.681  15.329  0.00  0.00    +0.000 N 
ATOM     18  H   UNL     1       8.250   6.223  15.497  0.00  0.00    +0.000 HD
BRANCH  17  19
ATOM     19  C   UNL     1       7.229   5.089  14.101  0.00  0.00    +0.000 C 
ATOM     20  S   UNL     1       6.158   3.856  13.840  0.00  0.00    +0.000 S 
BRANCH  19  21
ATOM     21  N   UNL     1       7.995   5.605  13.105  0.00  0.00    +0.000 N 
ATOM     22  H   UNL     1       8.974   5.379  13.016  0.00  0.00    +0.000 HD
ATOM     23  H   UNL     1       7.590   6.363  12.567  0.00  0.00    +0.000 HD
ENDBRANCH  19  21
ENDBRANCH  17  19
ENDBRANCH  15  17
ENDBRANCH   1  16
TORSDOF 5
ENDMDL
MODEL 7
REMARK VINA RESULT:      -7.0      3.472      4.678
REMARK  Name = 
REMARK  5 active torsions:
REMARK  status: ('A' for Active; 'I' for Inactive)
REMARK    1  A    between atoms: N_1  and  C_2
REMARK    2  A    between atoms: C_2  and  N_4
REMARK    3  A    between atoms: N_4  and  N_5
REMARK    4  A    between atoms: C_6  and  C_7
REMARK    5  A    between atoms: C_12  and  C_13
REMARK                            x       y       z     vdW  Elec       q    Type
REMARK                         _______ _______ _______ _____ _____    ______ ____
ROOT
ATOM      1  C   UNL     1       3.312   5.970  18.464  0.00  0.00    +0.000 A 
ATOM      2  N   UNL     1       3.289   4.905  19.302  0.00  0.00    +0.000 NA
ATOM      3  C   UNL     1       2.589   5.061  20.435  0.00  0.00    +0.000 A 
ATOM      4  C   UNL     1       1.901   6.221  20.761  0.00  0.00    +0.000 A 
ATOM      5  C   UNL     1       1.882   7.326  19.880  0.00  0.00    +0.000 A 
ATOM      6  C   UNL     1       1.187   8.551  20.133  0.00  0.00    +0.000 A 
ATOM      7  C   UNL     1       1.220   9.592  19.177  0.00  0.00    +0.000 A 
ATOM      8  C   UNL     1       1.902   9.446  17.985  0.00  0.00    +0.000 A 
ATOM      9  C   UNL     1       2.572   8.258  17.732  0.00  0.00    +0.000 A 
ATOM     10  C   UNL     1       2.608   7.189  18.666  0.00  0.00    +0.000 A 
ENDROOT
BRANCH   6  11
ATOM     11  C   UNL     1       0.376   8.859  21.377  0.00  0.00    +0.000 C 
ATOM     12  F   UNL     1       1.053   8.851  22.555  0.00  0.00    +0.000 F 
ATOM     13  F   UNL     1      -0.212  10.089  21.308  0.00  0.00    +0.000 F 
ATOM     14  F   UNL     1      -0.649   7.975  21.545  0.00  0.00    +0.000 F 
ENDBRANCH   6  11
BRANCH   1  16
ATOM     15  N   UNL     1       4.563   4.545  16.958  0.00  0.00    +0.000 NA
ATOM     16  C   UNL     1       4.227   5.743  17.317  0.00  0.00    +0.000 C 
BRANCH  15  17
ATOM     17  N   UNL     1       5.427   4.417  15.922  0.00  0.00    +0.000 N 
ATOM     18  H   UNL     1       5.118   4.075  15.016  0.00  0.00    +0.000 HD
BRANCH  17  19
ATOM     19  C   UNL     1       6.733   4.814  16.075  0.00  0.00    +0.000 C 
ATOM     20  S   UNL     1       7.580   4.613  17.482  0.00  0.00    +0.000 S 
BRANCH  19  21
ATOM     21  N   UNL     1       7.289   5.379  14.972  0.00  0.00    +0.000 N 
ATOM     22  H   UNL     1       7.572   6.347  14.957  0.00  0.00    +0.000 HD
ATOM     23  H   UNL     1       7.239   4.843  14.113  0.00  0.00    +0.000 HD
ENDBRANCH  19  21
ENDBRANCH  17  19
ENDBRANCH  15  17
ENDBRANCH   1  16
TORSDOF 5
ENDMDL
MODEL 8
REMARK VINA RESULT:      -6.9      2.979      3.596
REMARK  Name = 
REMARK  5 active torsions:
REMARK  status: ('A' for Active; 'I' for Inactive)
REMARK    1  A    between atoms: N_1  and  C_2
REMARK    2  A    between atoms: C_2  and  N_4
REMARK    3  A    between atoms: N_4  and  N_5
REMARK    4  A    between atoms: C_6  and  C_7
REMARK    5  A    between atoms: C_12  and  C_13
REMARK                            x       y       z     vdW  Elec       q    Type
REMARK                         _______ _______ _______ _____ _____    ______ ____
ROOT
ATOM      1  C   UNL     1       4.724   4.809  16.719  0.00  0.00    +0.000 A 
ATOM      2  N   UNL     1       4.782   3.458  16.813  0.00  0.00    +0.000 NA
ATOM      3  C   UNL     1       4.056   2.905  17.794  0.00  0.00    +0.000 A 
ATOM      4  C   UNL     1       3.265   3.633  18.672  0.00  0.00    +0.000 A 
ATOM      5  C   UNL     1       3.163   5.038  18.563  0.00  0.00    +0.000 A 
ATOM      6  C   UNL     1       2.361   5.861  19.416  0.00  0.00    +0.000 A 
ATOM      7  C   UNL     1       2.317   7.259  19.212  0.00  0.00    +0.000 A 
ATOM      8  C   UNL     1       3.025   7.853  18.186  0.00  0.00    +0.000 A 
ATOM      9  C   UNL     1       3.799   7.060  17.352  0.00  0.00    +0.000 A 
ATOM     10  C   UNL     1       3.915   5.655  17.527  0.00  0.00    +0.000 A 
ENDROOT
BRANCH   6  11
ATOM     11  C   UNL     1       1.510   5.361  20.568  0.00  0.00    +0.000 C 
ATOM     12  F   UNL     1       0.583   4.415  20.267  0.00  0.00    +0.000 F 
ATOM     13  F   UNL     1       2.271   4.818  21.562  0.00  0.00    +0.000 F 
ATOM     14  F   UNL     1       0.812   6.374  21.157  0.00  0.00    +0.000 F 
ENDBRANCH   6  11
BRANCH   1  16
ATOM     15  N   UNL     1       6.797   4.728  15.469  0.00  0.00    +0.000 NA
ATOM     16  C   UNL     1       5.672   5.327  15.699  0.00  0.00    +0.000 C 
BRANCH  15  17
ATOM     17  N   UNL     1       7.624   5.276  14.546  0.00  0.00    +0.000 N 
ATOM     18  H   UNL     1       8.411   5.858  14.820  0.00  0.00    +0.000 HD
BRANCH  17  19
ATOM     19  C   UNL     1       7.437   4.991  13.215  0.00  0.00    +0.000 C 
ATOM     20  S   UNL     1       6.507   3.731  12.682  0.00  0.00    +0.000 S 
BRANCH  19  21
ATOM     21  N   UNL     1       8.068   5.836  12.358  0.00  0.00    +0.000 N 
ATOM     22  H   UNL     1       8.519   5.502  11.520  0.00  0.00    +0.000 HD
ATOM     23  H   UNL     1       8.225   6.781  12.686  0.00  0.00    +0.000 HD
ENDBRANCH  19  21
ENDBRANCH  17  19
ENDBRANCH  15  17
ENDBRANCH   1  16
TORSDOF 5
ENDMDL
MODEL 9
REMARK VINA RESULT:      -6.9      3.739      5.229
REMARK  Name = 
REMARK  5 active torsions:
REMARK  status: ('A' for Active; 'I' for Inactive)
REMARK    1  A    between atoms: N_1  and  C_2
REMARK    2  A    between atoms: C_2  and  N_4
REMARK    3  A    between atoms: N_4  and  N_5
REMARK    4  A    between atoms: C_6  and  C_7
REMARK    5  A    between atoms: C_12  and  C_13
REMARK                            x       y       z     vdW  Elec       q    Type
REMARK                         _______ _______ _______ _____ _____    ______ ____
ROOT
ATOM      1  C   UNL     1       5.725   4.718  15.875  0.00  0.00    +0.000 A 
ATOM      2  N   UNL     1       6.454   5.860  15.914  0.00  0.00    +0.000 NA
ATOM      3  C   UNL     1       6.019   6.809  16.754  0.00  0.00    +0.000 A 
ATOM      4  C   UNL     1       4.902   6.666  17.566  0.00  0.00    +0.000 A 
ATOM      5  C   UNL     1       4.154   5.467  17.567  0.00  0.00    +0.000 A 
ATOM      6  C   UNL     1       3.002   5.232  18.382  0.00  0.00    +0.000 A 
ATOM      7  C   UNL     1       2.333   3.989  18.318  0.00  0.00    +0.000 A 
ATOM      8  C   UNL     1       2.780   2.979  17.490  0.00  0.00    +0.000 A 
ATOM      9  C   UNL     1       3.901   3.199  16.701  0.00  0.00    +0.000 A 
ATOM     10  C   UNL     1       4.595   4.437  16.693  0.00  0.00    +0.000 A 
ENDROOT
BRANCH   6  11
ATOM     11  C   UNL     1       2.400   6.226  19.357  0.00  0.00    +0.000 C 
ATOM     12  F   UNL     1       1.821   7.329  18.814  0.00  0.00    +0.000 F 
ATOM     13  F   UNL     1       1.433   5.655  20.131  0.00  0.00    +0.000 F 
ATOM     14  F   UNL     1       3.331   6.703  20.233  0.00  0.00    +0.000 F 
ENDBRANCH   6  11
BRANCH   1  16
ATOM     15  N   UNL     1       6.061   4.090  13.561  0.00  0.00    +0.000 NA
ATOM     16  C   UNL     1       6.207   3.797  14.814  0.00  0.00    +0.000 C 
BRANCH  15  17
ATOM     17  N   UNL     1       6.498   3.187  12.649  0.00  0.00    +0.000 N 
ATOM     18  H   UNL     1       7.479   2.929  12.588  0.00  0.00    +0.000 HD
BRANCH  17  19
ATOM     19  C   UNL     1       5.590   2.559  11.830  0.00  0.00    +0.000 C 
ATOM     20  S   UNL     1       4.163   3.253  11.363  0.00  0.00    +0.000 S 
BRANCH  19  21
ATOM     21  N   UNL     1       5.960   1.319  11.417  0.00  0.00    +0.000 N 
ATOM     22  H   UNL     1       6.893   0.965  11.569  0.00  0.00    +0.000 HD
ATOM     23  H   UNL     1       5.321   0.839  10.794  0.00  0.00    +0.000 HD
ENDBRANCH  19  21
ENDBRANCH  17  19
ENDBRANCH  15  17
ENDBRANCH   1  16
TORSDOF 5
ENDMDL
