MODEL 1
REMARK VINA RESULT:      -7.8      0.000      0.000
REMARK  Name = 
REMARK  9 active torsions:
REMARK  status: ('A' for Active; 'I' for Inactive)
REMARK    1  A    between atoms: C_1  and  O_2
REMARK    2  A    between atoms: O_2  and  C_3
REMARK    3  A    between atoms: C_8  and  N_9
REMARK    4  A    between atoms: N_12  and  C_13
REMARK    5  A    between atoms: C_13  and  C_14
REMARK    6  A    between atoms: C_14  and  O_15
REMARK    7  A    between atoms: C_14  and  C_16
REMARK    8  A    between atoms: C_16  and  O_17
REMARK    9  A    between atoms: O_17  and  C_18
REMARK                            x       y       z     vdW  Elec       q    Type
REMARK                         _______ _______ _______ _____ _____    ______ ____
ROOT
ATOM      1  C   UNL     1       7.299   6.509  16.901  0.00  0.00    +0.000 C 
ENDROOT
BRANCH   1   5
ATOM      2  N   UNL     1       4.367   4.630  17.815  0.00  0.00    +0.000 N 
ATOM      3  C   UNL     1       5.326   4.144  16.815  0.00  0.00    +0.000 C 
ATOM      4  C   UNL     1       5.598   5.227  15.739  0.00  0.00    +0.000 C 
ATOM      5  N   UNL     1       5.963   6.569  16.276  0.00  0.00    +0.000 NA
ATOM      6  C   UNL     1       4.890   6.969  17.210  0.00  0.00    +0.000 C 
ATOM      7  C   UNL     1       4.636   5.969  18.360  0.00  0.00    +0.000 C 
BRANCH   2  13
ATOM      8  C   UNL     1       3.319   2.771  19.083  0.00  0.00    +0.000 A 
ATOM      9  C   UNL     1       2.152   2.056  19.407  0.00  0.00    +0.000 A 
ATOM     10  C   UNL     1       0.907   2.461  18.924  0.00  0.00    +0.000 A 
ATOM     11  C   UNL     1       0.819   3.579  18.119  0.00  0.00    +0.000 A 
ATOM     12  C   UNL     1       1.977   4.285  17.782  0.00  0.00    +0.000 A 
ATOM     13  C   UNL     1       3.261   3.904  18.240  0.00  0.00    +0.000 A 
BRANCH   8  15
ATOM     14  C   UNL     1       4.603   1.737  20.791  0.00  0.00    +0.000 C 
ATOM     15  O   UNL     1       4.556   2.321  19.494  0.00  0.00    +0.000 OA
ENDBRANCH   8  15
ENDBRANCH   2  13
ENDBRANCH   1   5
BRANCH   1  16
ATOM     16  C   UNL     1       7.550   7.448  18.103  0.00  0.00    +0.000 C 
BRANCH  16  17
ATOM     17  O   UNL     1       8.453   6.892  19.071  0.00  0.00    +0.000 OA
ATOM     18  H   UNL     1       8.895   7.631  19.523  0.00  0.00    +0.000 HD
ENDBRANCH  16  17
BRANCH  16  19
ATOM     19  C   UNL     1       8.182   8.756  17.617  0.00  0.00    +0.000 C 
BRANCH  19  20
ATOM     20  O   UNL     1       8.418   9.655  18.702  0.00  0.00    +0.000 OA
BRANCH  20  21
ATOM     21  C   UNL     1       9.156  10.757  18.364  0.00  0.00    +0.000 A 
ATOM     22  C   UNL     1       8.432  11.795  17.753  0.00  0.00    +0.000 A 
ATOM     23  C   UNL     1       8.983  13.070  17.647  0.00  0.00    +0.000 A 
ATOM     24  C   UNL     1      10.242  13.260  18.182  0.00  0.00    +0.000 A 
ATOM     25  C   UNL     1      11.030  12.181  18.604  0.00  0.00    +0.000 A 
ATOM     26  C   UNL     1      10.504  10.914  18.684  0.00  0.00    +0.000 A 
ATOM     27  C   UNL     1      12.330  12.667  19.158  0.00  0.00    +0.000 C 
ATOM     28  C   UNL     1      11.826  14.000  19.712  0.00  0.00    +0.000 C 
ATOM     29  C   UNL     1      10.875  14.547  18.622  0.00  0.00    +0.000 C 
ENDBRANCH  20  21
ENDBRANCH  19  20
ENDBRANCH  16  19
ENDBRANCH   1  16
TORSDOF 8
ENDMDL
MODEL 2
REMARK VINA RESULT:      -7.7      4.671      7.581
REMARK  Name = 
REMARK  9 active torsions:
REMARK  status: ('A' for Active; 'I' for Inactive)
REMARK    1  A    between atoms: C_1  and  O_2
REMARK    2  A    between atoms: O_2  and  C_3
REMARK    3  A    between atoms: C_8  and  N_9
REMARK    4  A    between atoms: N_12  and  C_13
REMARK    5  A    between atoms: C_13  and  C_14
REMARK    6  A    between atoms: C_14  and  O_15
REMARK    7  A    between atoms: C_14  and  C_16
REMARK    8  A    between atoms: C_16  and  O_17
REMARK    9  A    between atoms: O_17  and  C_18
REMARK                            x       y       z     vdW  Elec       q    Type
REMARK                         _______ _______ _______ _____ _____    ______ ____
ROOT
ATOM      1  C   UNL     1       2.236   2.757  20.595  0.00  0.00    +0.000 C 
ENDROOT
BRANCH   1   5
ATOM      2  N   UNL     1       4.495   3.684  17.949  0.00  0.00    +0.000 N 
ATOM      3  C   UNL     1       3.119   3.245  17.684  0.00  0.00    +0.000 C 
ATOM      4  C   UNL     1       2.821   1.903  18.400  0.00  0.00    +0.000 C 
ATOM      5  N   UNL     1       3.159   1.877  19.852  0.00  0.00    +0.000 NA
ATOM      6  C   UNL     1       4.579   2.269  19.974  0.00  0.00    +0.000 C 
ATOM      7  C   UNL     1       4.918   3.644  19.357  0.00  0.00    +0.000 C 
BRANCH   2  13
ATOM      8  C   UNL     1       6.696   4.548  17.194  0.00  0.00    +0.000 A 
ATOM      9  C   UNL     1       7.492   5.028  16.138  0.00  0.00    +0.000 A 
ATOM     10  C   UNL     1       7.002   5.064  14.832  0.00  0.00    +0.000 A 
ATOM     11  C   UNL     1       5.721   4.619  14.572  0.00  0.00    +0.000 A 
ATOM     12  C   UNL     1       4.922   4.155  15.620  0.00  0.00    +0.000 A 
ATOM     13  C   UNL     1       5.372   4.111  16.960  0.00  0.00    +0.000 A 
BRANCH   8  15
ATOM     14  C   UNL     1       7.720   5.829  18.912  0.00  0.00    +0.000 C 
ATOM     15  O   UNL     1       7.153   4.591  18.495  0.00  0.00    +0.000 OA
ENDBRANCH   8  15
ENDBRANCH   2  13
ENDBRANCH   1   5
BRANCH   1  16
ATOM     16  C   UNL     1       1.201   3.546  19.760  0.00  0.00    +0.000 C 
BRANCH  16  17
ATOM     17  O   UNL     1      -0.105   2.949  19.774  0.00  0.00    +0.000 OA
ATOM     18  H   UNL     1      -0.161   2.337  19.021  0.00  0.00    +0.000 HD
ENDBRANCH  16  17
BRANCH  16  19
ATOM     19  C   UNL     1       1.040   4.958  20.331  0.00  0.00    +0.000 C 
BRANCH  19  20
ATOM     20  O   UNL     1       2.264   5.691  20.258  0.00  0.00    +0.000 OA
BRANCH  20  21
ATOM     21  C   UNL     1       2.107   7.005  19.909  0.00  0.00    +0.000 A 
ATOM     22  C   UNL     1       2.517   7.329  18.605  0.00  0.00    +0.000 A 
ATOM     23  C   UNL     1       2.131   8.535  18.024  0.00  0.00    +0.000 A 
ATOM     24  C   UNL     1       1.322   9.367  18.775  0.00  0.00    +0.000 A 
ATOM     25  C   UNL     1       1.089   9.129  20.135  0.00  0.00    +0.000 A 
ATOM     26  C   UNL     1       1.492   7.956  20.725  0.00  0.00    +0.000 A 
ATOM     27  C   UNL     1       0.168  10.164  20.698  0.00  0.00    +0.000 C 
ATOM     28  C   UNL     1      -0.642  10.423  19.427  0.00  0.00    +0.000 C 
ATOM     29  C   UNL     1       0.406  10.451  18.289  0.00  0.00    +0.000 C 
ENDBRANCH  20  21
ENDBRANCH  19  20
ENDBRANCH  16  19
ENDBRANCH   1  16
TORSDOF 8
ENDMDL
MODEL 3
REMARK VINA RESULT:      -7.5      7.860     11.260
REMARK  Name = 
REMARK  9 active torsions:
REMARK  status: ('A' for Active; 'I' for Inactive)
REMARK    1  A    between atoms: C_1  and  O_2
REMARK    2  A    between atoms: O_2  and  C_3
REMARK    3  A    between atoms: C_8  and  N_9
REMARK    4  A    between atoms: N_12  and  C_13
REMARK    5  A    between atoms: C_13  and  C_14
REMARK    6  A    between atoms: C_14  and  O_15
REMARK    7  A    between atoms: C_14  and  C_16
REMARK    8  A    between atoms: C_16  and  O_17
REMARK    9  A    between atoms: O_17  and  C_18
REMARK                            x       y       z     vdW  Elec       q    Type
REMARK                         _______ _______ _______ _____ _____    ______ ____
ROOT
ATOM      1  C   UNL     1      -0.016  10.336  18.849  0.00  0.00    +0.000 C 
ENDROOT
BRANCH   1   5
ATOM      2  N   UNL     1      -1.573  12.268  21.458  0.00  0.00    +0.000 N 
ATOM      3  C   UNL     1      -2.046  12.309  20.068  0.00  0.00    +0.000 C 
ATOM      4  C   UNL     1      -0.872  12.594  19.095  0.00  0.00    +0.000 C 
ATOM      5  N   UNL     1       0.317  11.711  19.270  0.00  0.00    +0.000 NA
ATOM      6  C   UNL     1       0.730  11.815  20.685  0.00  0.00    +0.000 C 
ATOM      7  C   UNL     1      -0.374  11.453  21.702  0.00  0.00    +0.000 C 
BRANCH   2  13
ATOM      8  C   UNL     1      -1.850  14.255  22.920  0.00  0.00    +0.000 A 
ATOM      9  C   UNL     1      -2.483  14.841  24.032  0.00  0.00    +0.000 A 
ATOM     10  C   UNL     1      -3.475  14.155  24.734  0.00  0.00    +0.000 A 
ATOM     11  C   UNL     1      -3.842  12.887  24.330  0.00  0.00    +0.000 A 
ATOM     12  C   UNL     1      -3.207  12.295  23.235  0.00  0.00    +0.000 A 
ATOM     13  C   UNL     1      -2.189  12.948  22.501  0.00  0.00    +0.000 A 
BRANCH   8  15
ATOM     14  C   UNL     1      -1.046  16.267  21.948  0.00  0.00    +0.000 C 
ATOM     15  O   UNL     1      -0.814  14.902  22.279  0.00  0.00    +0.000 OA
ENDBRANCH   8  15
ENDBRANCH   2  13
ENDBRANCH   1   5
BRANCH   1  16
ATOM     16  C   UNL     1       1.043   9.590  18.005  0.00  0.00    +0.000 C 
BRANCH  16  17
ATOM     17  O   UNL     1       2.001  10.471  17.398  0.00  0.00    +0.000 OA
ATOM     18  H   UNL     1       2.540   9.945  16.784  0.00  0.00    +0.000 HD
ENDBRANCH  16  17
BRANCH  16  19
ATOM     19  C   UNL     1       1.838   8.632  18.899  0.00  0.00    +0.000 C 
BRANCH  19  20
ATOM     20  O   UNL     1       2.514   7.639  18.126  0.00  0.00    +0.000 OA
BRANCH  20  21
ATOM     21  C   UNL     1       2.517   6.395  18.695  0.00  0.00    +0.000 A 
ATOM     22  C   UNL     1       2.269   6.371  20.078  0.00  0.00    +0.000 A 
ATOM     23  C   UNL     1       1.939   5.176  20.714  0.00  0.00    +0.000 A 
ATOM     24  C   UNL     1       1.848   4.045  19.925  0.00  0.00    +0.000 A 
ATOM     25  C   UNL     1       2.291   4.041  18.597  0.00  0.00    +0.000 A 
ATOM     26  C   UNL     1       2.647   5.210  17.969  0.00  0.00    +0.000 A 
ATOM     27  C   UNL     1       2.059   2.704  17.971  0.00  0.00    +0.000 C 
ATOM     28  C   UNL     1       0.803   2.329  18.759  0.00  0.00    +0.000 C 
ATOM     29  C   UNL     1       1.098   2.777  20.210  0.00  0.00    +0.000 C 
ENDBRANCH  20  21
ENDBRANCH  19  20
ENDBRANCH  16  19
ENDBRANCH   1  16
TORSDOF 8
ENDMDL
MODEL 4
REMARK VINA RESULT:      -7.5      1.085      1.580
REMARK  Name = 
REMARK  9 active torsions:
REMARK  status: ('A' for Active; 'I' for Inactive)
REMARK    1  A    between atoms: C_1  and  O_2
REMARK    2  A    between atoms: O_2  and  C_3
REMARK    3  A    between atoms: C_8  and  N_9
REMARK    4  A    between atoms: N_12  and  C_13
REMARK    5  A    between atoms: C_13  and  C_14
REMARK    6  A    between atoms: C_14  and  O_15
REMARK    7  A    between atoms: C_14  and  C_16
REMARK    8  A    between atoms: C_16  and  O_17
REMARK    9  A    between atoms: O_17  and  C_18
REMARK                            x       y       z     vdW  Elec       q    Type
REMARK                         _______ _______ _______ _____ _____    ______ ____
ROOT
ATOM      1  C   UNL     1       6.850   6.304  16.679  0.00  0.00    +0.000 C 
ENDROOT
BRANCH   1   5
ATOM      2  N   UNL     1       4.258   4.678  18.577  0.00  0.00    +0.000 N 
ATOM      3  C   UNL     1       4.980   3.995  17.495  0.00  0.00    +0.000 C 
ATOM      4  C   UNL     1       4.968   4.848  16.201  0.00  0.00    +0.000 C 
ATOM      5  N   UNL     1       5.406   6.263  16.376  0.00  0.00    +0.000 NA
ATOM      6  C   UNL     1       4.561   6.850  17.437  0.00  0.00    +0.000 C 
ATOM      7  C   UNL     1       4.604   6.093  18.782  0.00  0.00    +0.000 C 
BRANCH   2  13
ATOM      8  C   UNL     1       3.530   2.915  20.165  0.00  0.00    +0.000 A 
ATOM      9  C   UNL     1       2.480   2.319  20.888  0.00  0.00    +0.000 A 
ATOM     10  C   UNL     1       1.194   2.859  20.858  0.00  0.00    +0.000 A 
ATOM     11  C   UNL     1       0.948   3.994  20.112  0.00  0.00    +0.000 A 
ATOM     12  C   UNL     1       1.984   4.582  19.381  0.00  0.00    +0.000 A 
ATOM     13  C   UNL     1       3.300   4.063  19.373  0.00  0.00    +0.000 A 
BRANCH   8  15
ATOM     14  C   UNL     1       5.029   1.344  21.124  0.00  0.00    +0.000 C 
ATOM     15  O   UNL     1       4.779   2.333  20.131  0.00  0.00    +0.000 OA
ENDBRANCH   8  15
ENDBRANCH   2  13
ENDBRANCH   1   5
BRANCH   1  16
ATOM     16  C   UNL     1       7.275   7.084  17.944  0.00  0.00    +0.000 C 
BRANCH  16  17
ATOM     17  O   UNL     1       8.001   6.277  18.884  0.00  0.00    +0.000 OA
ATOM     18  H   UNL     1       7.395   5.595  19.220  0.00  0.00    +0.000 HD
ENDBRANCH  16  17
BRANCH  16  19
ATOM     19  C   UNL     1       8.204   8.239  17.554  0.00  0.00    +0.000 C 
BRANCH  19  20
ATOM     20  O   UNL     1       7.615   9.505  17.856  0.00  0.00    +0.000 OA
BRANCH  20  21
ATOM     21  C   UNL     1       8.506  10.443  18.303  0.00  0.00    +0.000 A 
ATOM     22  C   UNL     1       9.228  10.080  19.453  0.00  0.00    +0.000 A 
ATOM     23  C   UNL     1      10.367  10.792  19.823  0.00  0.00    +0.000 A 
ATOM     24  C   UNL     1      10.753  11.836  19.004  0.00  0.00    +0.000 A 
ATOM     25  C   UNL     1       9.921  12.312  17.984  0.00  0.00    +0.000 A 
ATOM     26  C   UNL     1       8.779  11.634  17.630  0.00  0.00    +0.000 A 
ATOM     27  C   UNL     1      10.587  13.427  17.242  0.00  0.00    +0.000 C 
ATOM     28  C   UNL     1      12.029  12.946  17.412  0.00  0.00    +0.000 C 
ATOM     29  C   UNL     1      12.113  12.457  18.876  0.00  0.00    +0.000 C 
ENDBRANCH  20  21
ENDBRANCH  19  20
ENDBRANCH  16  19
ENDBRANCH   1  16
TORSDOF 8
ENDMDL
MODEL 5
REMARK VINA RESULT:      -7.5      4.457      7.689
REMARK  Name = 
REMARK  9 active torsions:
REMARK  status: ('A' for Active; 'I' for Inactive)
REMARK    1  A    between atoms: C_1  and  O_2
REMARK    2  A    between atoms: O_2  and  C_3
REMARK    3  A    between atoms: C_8  and  N_9
REMARK    4  A    between atoms: N_12  and  C_13
REMARK    5  A    between atoms: C_13  and  C_14
REMARK    6  A    between atoms: C_14  and  O_15
REMARK    7  A    between atoms: C_14  and  C_16
REMARK    8  A    between atoms: C_16  and  O_17
REMARK    9  A    between atoms: O_17  and  C_18
REMARK                            x       y       z     vdW  Elec       q    Type
REMARK                         _______ _______ _______ _____ _____    ______ ____
ROOT
ATOM      1  C   UNL     1       2.835   3.437  19.770  0.00  0.00    +0.000 C 
ENDROOT
BRANCH   1   5
ATOM      2  N   UNL     1       4.778   3.932  16.779  0.00  0.00    +0.000 N 
ATOM      3  C   UNL     1       3.764   4.899  17.222  0.00  0.00    +0.000 C 
ATOM      4  C   UNL     1       2.413   4.191  17.502  0.00  0.00    +0.000 C 
ATOM      5  N   UNL     1       2.501   3.003  18.399  0.00  0.00    +0.000 NA
ATOM      6  C   UNL     1       3.497   2.086  17.808  0.00  0.00    +0.000 C 
ATOM      7  C   UNL     1       4.892   2.710  17.590  0.00  0.00    +0.000 C 
BRANCH   2  13
ATOM      8  C   UNL     1       6.872   4.717  15.703  0.00  0.00    +0.000 A 
ATOM      9  C   UNL     1       7.598   4.930  14.516  0.00  0.00    +0.000 A 
ATOM     10  C   UNL     1       7.080   4.538  13.281  0.00  0.00    +0.000 A 
ATOM     11  C   UNL     1       5.842   3.930  13.223  0.00  0.00    +0.000 A 
ATOM     12  C   UNL     1       5.111   3.729  14.397  0.00  0.00    +0.000 A 
ATOM     13  C   UNL     1       5.591   4.121  15.669  0.00  0.00    +0.000 A 
BRANCH   8  15
ATOM     14  C   UNL     1       7.277   6.587  17.108  0.00  0.00    +0.000 C 
ATOM     15  O   UNL     1       7.349   5.179  16.911  0.00  0.00    +0.000 OA
ENDBRANCH   8  15
ENDBRANCH   2  13
ENDBRANCH   1   5
BRANCH   1  16
ATOM     16  C   UNL     1       1.649   3.693  20.729  0.00  0.00    +0.000 C 
BRANCH  16  17
ATOM     17  O   UNL     1       1.938   3.333  22.089  0.00  0.00    +0.000 OA
ATOM     18  H   UNL     1       2.865   3.044  22.129  0.00  0.00    +0.000 HD
ENDBRANCH  16  17
BRANCH  16  19
ATOM     19  C   UNL     1       1.303   5.186  20.738  0.00  0.00    +0.000 C 
BRANCH  19  20
ATOM     20  O   UNL     1       2.425   5.983  20.360  0.00  0.00    +0.000 OA
BRANCH  20  21
ATOM     21  C   UNL     1       2.107   7.270  20.020  0.00  0.00    +0.000 A 
ATOM     22  C   UNL     1       2.431   7.636  18.702  0.00  0.00    +0.000 A 
ATOM     23  C   UNL     1       1.889   8.788  18.138  0.00  0.00    +0.000 A 
ATOM     24  C   UNL     1       1.017   9.524  18.918  0.00  0.00    +0.000 A 
ATOM     25  C   UNL     1       0.861   9.264  20.285  0.00  0.00    +0.000 A 
ATOM     26  C   UNL     1       1.416   8.145  20.858  0.00  0.00    +0.000 A 
ATOM     27  C   UNL     1      -0.153  10.187  20.882  0.00  0.00    +0.000 C 
ATOM     28  C   UNL     1      -1.031  10.349  19.640  0.00  0.00    +0.000 C 
ATOM     29  C   UNL     1      -0.034  10.494  18.467  0.00  0.00    +0.000 C 
ENDBRANCH  20  21
ENDBRANCH  19  20
ENDBRANCH  16  19
ENDBRANCH   1  16
TORSDOF 8
ENDMDL
MODEL 6
REMARK VINA RESULT:      -7.4      1.281      1.583
REMARK  Name = 
REMARK  9 active torsions:
REMARK  status: ('A' for Active; 'I' for Inactive)
REMARK    1  A    between atoms: C_1  and  O_2
REMARK    2  A    between atoms: O_2  and  C_3
REMARK    3  A    between atoms: C_8  and  N_9
REMARK    4  A    between atoms: N_12  and  C_13
REMARK    5  A    between atoms: C_13  and  C_14
REMARK    6  A    between atoms: C_14  and  O_15
REMARK    7  A    between atoms: C_14  and  C_16
REMARK    8  A    between atoms: C_16  and  O_17
REMARK    9  A    between atoms: O_17  and  C_18
REMARK                            x       y       z     vdW  Elec       q    Type
REMARK                         _______ _______ _______ _____ _____    ______ ____
ROOT
ATOM      1  C   UNL     1       7.188   6.315  16.756  0.00  0.00    +0.000 C 
ENDROOT
BRANCH   1   5
ATOM      2  N   UNL     1       4.152   4.748  17.892  0.00  0.00    +0.000 N 
ATOM      3  C   UNL     1       5.082   4.076  16.975  0.00  0.00    +0.000 C 
ATOM      4  C   UNL     1       5.416   4.986  15.764  0.00  0.00    +0.000 C 
ATOM      5  N   UNL     1       5.857   6.366  16.118  0.00  0.00    +0.000 NA
ATOM      6  C   UNL     1       4.808   6.949  16.981  0.00  0.00    +0.000 C 
ATOM      7  C   UNL     1       4.497   6.131  18.253  0.00  0.00    +0.000 C 
BRANCH   2  13
ATOM      8  C   UNL     1       2.227   4.676  19.458  0.00  0.00    +0.000 A 
ATOM      9  C   UNL     1       1.119   3.966  19.956  0.00  0.00    +0.000 A 
ATOM     10  C   UNL     1       0.750   2.738  19.406  0.00  0.00    +0.000 A 
ATOM     11  C   UNL     1       1.479   2.214  18.358  0.00  0.00    +0.000 A 
ATOM     12  C   UNL     1       2.589   2.908  17.869  0.00  0.00    +0.000 A 
ATOM     13  C   UNL     1       3.007   4.150  18.403  0.00  0.00    +0.000 A 
BRANCH   8  15
ATOM     14  C   UNL     1       1.625   6.589  20.728  0.00  0.00    +0.000 C 
ATOM     15  O   UNL     1       2.638   5.849  20.056  0.00  0.00    +0.000 OA
ENDBRANCH   8  15
ENDBRANCH   2  13
ENDBRANCH   1   5
BRANCH   1  16
ATOM     16  C   UNL     1       7.389   7.183  18.020  0.00  0.00    +0.000 C 
BRANCH  16  17
ATOM     17  O   UNL     1       8.251   6.569  18.991  0.00  0.00    +0.000 OA
ATOM     18  H   UNL     1       7.760   5.840  19.405  0.00  0.00    +0.000 HD
ENDBRANCH  16  17
BRANCH  16  19
ATOM     19  C   UNL     1       8.041   8.515  17.637  0.00  0.00    +0.000 C 
BRANCH  19  20
ATOM     20  O   UNL     1       8.633   9.149  18.772  0.00  0.00    +0.000 OA
BRANCH  20  21
ATOM     21  C   UNL     1       9.157  10.386  18.510  0.00  0.00    +0.000 A 
ATOM     22  C   UNL     1       8.345  11.223  17.725  0.00  0.00    +0.000 A 
ATOM     23  C   UNL     1       8.608  12.589  17.648  0.00  0.00    +0.000 A 
ATOM     24  C   UNL     1       9.673  13.070  18.387  0.00  0.00    +0.000 A 
ATOM     25  C   UNL     1      10.589  12.205  18.998  0.00  0.00    +0.000 A 
ATOM     26  C   UNL     1      10.354  10.852  19.054  0.00  0.00    +0.000 A 
ATOM     27  C   UNL     1      11.625  12.982  19.746  0.00  0.00    +0.000 C 
ATOM     28  C   UNL     1      10.743  14.172  20.129  0.00  0.00    +0.000 C 
ATOM     29  C   UNL     1       9.911  14.473  18.861  0.00  0.00    +0.000 C 
ENDBRANCH  20  21
ENDBRANCH  19  20
ENDBRANCH  16  19
ENDBRANCH   1  16
TORSDOF 8
ENDMDL
MODEL 7
REMARK VINA RESULT:      -7.4      5.287      9.082
REMARK  Name = 
REMARK  9 active torsions:
REMARK  status: ('A' for Active; 'I' for Inactive)
REMARK    1  A    between atoms: C_1  and  O_2
REMARK    2  A    between atoms: O_2  and  C_3
REMARK    3  A    between atoms: C_8  and  N_9
REMARK    4  A    between atoms: N_12  and  C_13
REMARK    5  A    between atoms: C_13  and  C_14
REMARK    6  A    between atoms: C_14  and  O_15
REMARK    7  A    between atoms: C_14  and  C_16
REMARK    8  A    between atoms: C_16  and  O_17
REMARK    9  A    between atoms: O_17  and  C_18
REMARK                            x       y       z     vdW  Elec       q    Type
REMARK                         _______ _______ _______ _____ _____    ______ ____
ROOT
ATOM      1  C   UNL     1       4.176   6.818  17.823  0.00  0.00    +0.000 C 
ENDROOT
BRANCH   1   5
ATOM      2  N   UNL     1       1.759   8.404  19.970  0.00  0.00    +0.000 N 
ATOM      3  C   UNL     1       2.280   7.058  20.240  0.00  0.00    +0.000 C 
ATOM      4  C   UNL     1       2.151   6.155  18.986  0.00  0.00    +0.000 C 
ATOM      5  N   UNL     1       2.704   6.741  17.731  0.00  0.00    +0.000 NA
ATOM      6  C   UNL     1       2.053   8.054  17.541  0.00  0.00    +0.000 C 
ATOM      7  C   UNL     1       2.225   9.031  18.724  0.00  0.00    +0.000 C 
BRANCH   2  13
ATOM      8  C   UNL     1      -0.137   9.954  20.372  0.00  0.00    +0.000 A 
ATOM      9  C   UNL     1      -0.942  10.641  21.300  0.00  0.00    +0.000 A 
ATOM     10  C   UNL     1      -0.772  10.452  22.672  0.00  0.00    +0.000 A 
ATOM     11  C   UNL     1       0.195   9.578  23.125  0.00  0.00    +0.000 A 
ATOM     12  C   UNL     1       1.006   8.904  22.209  0.00  0.00    +0.000 A 
ATOM     13  C   UNL     1       0.878   9.073  20.810  0.00  0.00    +0.000 A 
BRANCH   8  15
ATOM     14  C   UNL     1      -0.489  11.561  18.660  0.00  0.00    +0.000 C 
ATOM     15  O   UNL     1      -0.252  10.205  19.021  0.00  0.00    +0.000 OA
ENDBRANCH   8  15
ENDBRANCH   2  13
ENDBRANCH   1   5
BRANCH   1  16
ATOM     16  C   UNL     1       4.977   6.345  16.588  0.00  0.00    +0.000 C 
BRANCH  16  17
ATOM     17  O   UNL     1       6.124   7.165  16.315  0.00  0.00    +0.000 OA
ATOM     18  H   UNL     1       5.809   7.991  15.912  0.00  0.00    +0.000 HD
ENDBRANCH  16  17
BRANCH  16  19
ATOM     19  C   UNL     1       5.502   4.925  16.823  0.00  0.00    +0.000 C 
BRANCH  19  20
ATOM     20  O   UNL     1       4.544   3.943  16.425  0.00  0.00    +0.000 OA
BRANCH  20  21
ATOM     21  C   UNL     1       3.951   3.287  17.468  0.00  0.00    +0.000 A 
ATOM     22  C   UNL     1       4.749   3.147  18.617  0.00  0.00    +0.000 A 
ATOM     23  C   UNL     1       4.175   2.787  19.834  0.00  0.00    +0.000 A 
ATOM     24  C   UNL     1       2.805   2.601  19.856  0.00  0.00    +0.000 A 
ATOM     25  C   UNL     1       2.055   2.545  18.675  0.00  0.00    +0.000 A 
ATOM     26  C   UNL     1       2.619   2.869  17.465  0.00  0.00    +0.000 A 
ATOM     27  C   UNL     1       0.605   2.357  18.984  0.00  0.00    +0.000 C 
ATOM     28  C   UNL     1       0.586   3.107  20.317  0.00  0.00    +0.000 C 
ATOM     29  C   UNL     1       1.882   2.668  21.037  0.00  0.00    +0.000 C 
ENDBRANCH  20  21
ENDBRANCH  19  20
ENDBRANCH  16  19
ENDBRANCH   1  16
TORSDOF 8
ENDMDL
MODEL 8
REMARK VINA RESULT:      -7.4      2.081      2.588
REMARK  Name = 
REMARK  9 active torsions:
REMARK  status: ('A' for Active; 'I' for Inactive)
REMARK    1  A    between atoms: C_1  and  O_2
REMARK    2  A    between atoms: O_2  and  C_3
REMARK    3  A    between atoms: C_8  and  N_9
REMARK    4  A    between atoms: N_12  and  C_13
REMARK    5  A    between atoms: C_13  and  C_14
REMARK    6  A    between atoms: C_14  and  O_15
REMARK    7  A    between atoms: C_14  and  C_16
REMARK    8  A    between atoms: C_16  and  O_17
REMARK    9  A    between atoms: O_17  and  C_18
REMARK                            x       y       z     vdW  Elec       q    Type
REMARK                         _______ _______ _______ _____ _____    ______ ____
ROOT
ATOM      1  C   UNL     1       7.802   6.980  18.250  0.00  0.00    +0.000 C 
ENDROOT
BRANCH   1   5
ATOM      2  N   UNL     1       4.809   4.981  18.362  0.00  0.00    +0.000 N 
ATOM      3  C   UNL     1       6.071   4.534  18.966  0.00  0.00    +0.000 C 
ATOM      4  C   UNL     1       7.237   4.639  17.950  0.00  0.00    +0.000 C 
ATOM      5  N   UNL     1       7.364   5.963  17.274  0.00  0.00    +0.000 NA
ATOM      6  C   UNL     1       6.056   6.260  16.654  0.00  0.00    +0.000 C 
ATOM      7  C   UNL     1       4.866   6.260  17.638  0.00  0.00    +0.000 C 
BRANCH   2  13
ATOM      8  C   UNL     1       2.593   4.520  19.381  0.00  0.00    +0.000 A 
ATOM      9  C   UNL     1       1.450   3.701  19.433  0.00  0.00    +0.000 A 
ATOM     10  C   UNL     1       1.293   2.635  18.547  0.00  0.00    +0.000 A 
ATOM     11  C   UNL     1       2.270   2.382  17.604  0.00  0.00    +0.000 A 
ATOM     12  C   UNL     1       3.413   3.184  17.557  0.00  0.00    +0.000 A 
ATOM     13  C   UNL     1       3.620   4.268  18.443  0.00  0.00    +0.000 A 
BRANCH   8  15
ATOM     14  C   UNL     1       2.112   6.748  20.045  0.00  0.00    +0.000 C 
ATOM     15  O   UNL     1       2.784   5.521  20.310  0.00  0.00    +0.000 OA
ENDBRANCH   8  15
ENDBRANCH   2  13
ENDBRANCH   1   5
BRANCH   1  16
ATOM     16  C   UNL     1       8.195   8.365  17.684  0.00  0.00    +0.000 C 
BRANCH  16  17
ATOM     17  O   UNL     1       7.063   9.145  17.270  0.00  0.00    +0.000 OA
ATOM     18  H   UNL     1       6.874   8.925  16.342  0.00  0.00    +0.000 HD
ENDBRANCH  16  17
BRANCH  16  19
ATOM     19  C   UNL     1       8.916   9.180  18.762  0.00  0.00    +0.000 C 
BRANCH  19  20
ATOM     20  O   UNL     1       9.119  10.531  18.344  0.00  0.00    +0.000 OA
BRANCH  20  21
ATOM     21  C   UNL     1       9.647  11.341  19.312  0.00  0.00    +0.000 A 
ATOM     22  C   UNL     1      10.580  12.288  18.854  0.00  0.00    +0.000 A 
ATOM     23  C   UNL     1      10.950  13.360  19.663  0.00  0.00    +0.000 A 
ATOM     24  C   UNL     1      10.348  13.453  20.903  0.00  0.00    +0.000 A 
ATOM     25  C   UNL     1       9.581  12.404  21.425  0.00  0.00    +0.000 A 
ATOM     26  C   UNL     1       9.234  11.328  20.645  0.00  0.00    +0.000 A 
ATOM     27  C   UNL     1       9.033  12.772  22.766  0.00  0.00    +0.000 C 
ATOM     28  C   UNL     1       8.898  14.276  22.521  0.00  0.00    +0.000 C 
ATOM     29  C   UNL     1      10.188  14.671  21.765  0.00  0.00    +0.000 C 
ENDBRANCH  20  21
ENDBRANCH  19  20
ENDBRANCH  16  19
ENDBRANCH   1  16
TORSDOF 8
ENDMDL
MODEL 9
REMARK VINA RESULT:      -7.3      5.445      8.867
REMARK  Name = 
REMARK  9 active torsions:
REMARK  status: ('A' for Active; 'I' for Inactive)
REMARK    1  A    between atoms: C_1  and  O_2
REMARK    2  A    between atoms: O_2  and  C_3
REMARK    3  A    between atoms: C_8  and  N_9
REMARK    4  A    between atoms: N_12  and  C_13
REMARK    5  A    between atoms: C_13  and  C_14
REMARK    6  A    between atoms: C_14  and  O_15
REMARK    7  A    between atoms: C_14  and  C_16
REMARK    8  A    between atoms: C_16  and  O_17
REMARK    9  A    between atoms: O_17  and  C_18
REMARK                            x       y       z     vdW  Elec       q    Type
REMARK                         _______ _______ _______ _____ _____    ______ ____
ROOT
ATOM      1  C   UNL     1       2.050   8.227  20.157  0.00  0.00    +0.000 C 
ENDROOT
BRANCH   1   5
ATOM      2  N   UNL     1       4.249   6.289  18.066  0.00  0.00    +0.000 N 
ATOM      3  C   UNL     1       3.675   7.567  17.624  0.00  0.00    +0.000 C 
ATOM      4  C   UNL     1       2.137   7.578  17.820  0.00  0.00    +0.000 C 
ATOM      5  N   UNL     1       1.675   7.184  19.182  0.00  0.00    +0.000 NA
ATOM      6  C   UNL     1       2.264   5.860  19.475  0.00  0.00    +0.000 C 
ATOM      7  C   UNL     1       3.805   5.811  19.384  0.00  0.00    +0.000 C 
BRANCH   2  13
ATOM      8  C   UNL     1       6.557   5.681  17.383  0.00  0.00    +0.000 A 
ATOM      9  C   UNL     1       7.393   4.934  16.532  0.00  0.00    +0.000 A 
ATOM     10  C   UNL     1       6.856   4.029  15.616  0.00  0.00    +0.000 A 
ATOM     11  C   UNL     1       5.488   3.861  15.545  0.00  0.00    +0.000 A 
ATOM     12  C   UNL     1       4.652   4.610  16.378  0.00  0.00    +0.000 A 
ATOM     13  C   UNL     1       5.151   5.548  17.313  0.00  0.00    +0.000 A 
BRANCH   8  15
ATOM     14  C   UNL     1       7.673   7.765  17.597  0.00  0.00    +0.000 C 
ATOM     15  O   UNL     1       7.085   6.633  18.229  0.00  0.00    +0.000 OA
ENDBRANCH   8  15
ENDBRANCH   2  13
ENDBRANCH   1   5
BRANCH   1  16
ATOM     16  C   UNL     1       0.899   8.881  20.956  0.00  0.00    +0.000 C 
BRANCH  16  17
ATOM     17  O   UNL     1       1.095   8.818  22.377  0.00  0.00    +0.000 OA
ATOM     18  H   UNL     1       0.528   9.493  22.785  0.00  0.00    +0.000 HD
ENDBRANCH  16  17
BRANCH  16  19
ATOM     19  C   UNL     1       0.797  10.367  20.596  0.00  0.00    +0.000 C 
BRANCH  19  20
ATOM     20  O   UNL     1       0.665  10.553  19.186  0.00  0.00    +0.000 OA
BRANCH  20  21
ATOM     21  C   UNL     1      -0.627  10.514  18.736  0.00  0.00    +0.000 A 
ATOM     22  C   UNL     1      -1.506  11.409  19.369  0.00  0.00    +0.000 A 
ATOM     23  C   UNL     1      -2.749  11.692  18.806  0.00  0.00    +0.000 A 
ATOM     24  C   UNL     1      -3.054  11.076  17.607  0.00  0.00    +0.000 A 
ATOM     25  C   UNL     1      -2.263  10.041  17.094  0.00  0.00    +0.000 A 
ATOM     26  C   UNL     1      -1.049   9.734  17.659  0.00  0.00    +0.000 A 
ATOM     27  C   UNL     1      -2.803   9.570  15.782  0.00  0.00    +0.000 C 
ATOM     28  C   UNL     1      -3.385  10.905  15.314  0.00  0.00    +0.000 C 
ATOM     29  C   UNL     1      -4.051  11.509  16.573  0.00  0.00    +0.000 C 
ENDBRANCH  20  21
ENDBRANCH  19  20
ENDBRANCH  16  19
ENDBRANCH   1  16
TORSDOF 8
ENDMDL
