MODEL 1
REMARK VINA RESULT:      -8.9      0.000      0.000
REMARK  Name = 
REMARK  7 active torsions:
REMARK  status: ('A' for Active; 'I' for Inactive)
REMARK    1  A    between atoms: C_5  and  N_6
REMARK    2  A    between atoms: N_9  and  C_10
REMARK    3  A    between atoms: C_10  and  C_11
REMARK    4  A    between atoms: C_11  and  C_12
REMARK    5  A    between atoms: C_15  and  C_16
REMARK    6  A    between atoms: C_16  and  O_17
REMARK    7  A    between atoms: O_17  and  C_18
REMARK                            x       y       z     vdW  Elec       q    Type
REMARK                         _______ _______ _______ _____ _____    ______ ____
ROOT
ATOM      1  C   UNL     1       6.009   5.308  17.774  0.00  0.00    +0.000 A 
ATOM      2  C   UNL     1       7.057   5.459  18.689  0.00  0.00    +0.000 A 
ATOM      3  C   UNL     1       7.858   6.600  18.681  0.00  0.00    +0.000 A 
ATOM      4  C   UNL     1       7.628   7.627  17.761  0.00  0.00    +0.000 A 
ATOM      5  C   UNL     1       6.628   7.454  16.797  0.00  0.00    +0.000 A 
ATOM      6  C   UNL     1       5.824   6.307  16.807  0.00  0.00    +0.000 A 
ENDROOT
BRANCH   1   7
ATOM      7  C   UNL     1       5.038   4.139  17.806  0.00  0.00    +0.000 C 
BRANCH   7   8
ATOM      8  C   UNL     1       3.985   4.208  18.932  0.00  0.00    +0.000 C 
BRANCH   8  12
ATOM      9  N   UNL     1       2.204   7.096  20.069  0.00  0.00    +0.000 N 
ATOM     10  C   UNL     1       2.097   5.789  20.737  0.00  0.00    +0.000 C 
ATOM     11  C   UNL     1       1.749   4.665  19.731  0.00  0.00    +0.000 C 
ATOM     12  N   UNL     1       2.624   4.611  18.529  0.00  0.00    +0.000 NA
ATOM     13  C   UNL     1       2.578   5.950  17.894  0.00  0.00    +0.000 C 
ATOM     14  C   UNL     1       2.978   7.128  18.815  0.00  0.00    +0.000 C 
BRANCH   9  19
ATOM     15  F   UNL     1      -1.024  11.399  21.344  0.00  0.00    +0.000 F 
ATOM     16  C   UNL     1      -0.247  10.357  21.038  0.00  0.00    +0.000 A 
ATOM     17  C   UNL     1       0.107  10.135  19.722  0.00  0.00    +0.000 A 
ATOM     18  C   UNL     1       0.922   9.039  19.407  0.00  0.00    +0.000 A 
ATOM     19  C   UNL     1       1.387   8.162  20.400  0.00  0.00    +0.000 A 
ATOM     20  C   UNL     1       1.003   8.424  21.723  0.00  0.00    +0.000 A 
ATOM     21  C   UNL     1       0.191   9.513  22.042  0.00  0.00    +0.000 A 
ENDBRANCH   9  19
ENDBRANCH   8  12
ENDBRANCH   7   8
ENDBRANCH   1   7
BRANCH   4  22
ATOM     22  C   UNL     1       8.419   8.909  17.865  0.00  0.00    +0.000 C 
BRANCH  22  23
ATOM     23  O   UNL     1       8.830   9.140  19.209  0.00  0.00    +0.000 OA
BRANCH  23  24
ATOM     24  C   UNL     1       9.414  10.366  19.404  0.00  0.00    +0.000 A 
ATOM     25  C   UNL     1       9.610  10.973  20.642  0.00  0.00    +0.000 A 
ATOM     26  C   UNL     1      10.225  12.228  20.716  0.00  0.00    +0.000 A 
ATOM     27  C   UNL     1      10.651  12.901  19.555  0.00  0.00    +0.000 A 
ATOM     28  C   UNL     1      10.469  12.281  18.319  0.00  0.00    +0.000 A 
ATOM     29  C   UNL     1       9.871  11.007  18.257  0.00  0.00    +0.000 A 
ATOM     30  C   UNL     1      10.952  12.890  17.039  0.00  0.00    +0.000 C 
ATOM     31  C   UNL     1      11.276  14.376  17.073  0.00  0.00    +0.000 C 
ATOM     32  C   UNL     1      11.660  14.994  18.410  0.00  0.00    +0.000 C 
ATOM     33  C   UNL     1      11.337  14.228  19.692  0.00  0.00    +0.000 C 
ENDBRANCH  23  24
ENDBRANCH  22  23
ENDBRANCH   4  22
TORSDOF 7
ENDMDL
MODEL 2
REMARK VINA RESULT:      -8.8      3.418      5.523
REMARK  Name = 
REMARK  7 active torsions:
REMARK  status: ('A' for Active; 'I' for Inactive)
REMARK    1  A    between atoms: C_5  and  N_6
REMARK    2  A    between atoms: N_9  and  C_10
REMARK    3  A    between atoms: C_10  and  C_11
REMARK    4  A    between atoms: C_11  and  C_12
REMARK    5  A    between atoms: C_15  and  C_16
REMARK    6  A    between atoms: C_16  and  O_17
REMARK    7  A    between atoms: O_17  and  C_18
REMARK                            x       y       z     vdW  Elec       q    Type
REMARK                         _______ _______ _______ _____ _____    ______ ____
ROOT
ATOM      1  C   UNL     1       8.937   9.929  18.409  0.00  0.00    +0.000 A 
ATOM      2  C   UNL     1       8.996  10.137  19.792  0.00  0.00    +0.000 A 
ATOM      3  C   UNL     1       9.815  11.127  20.334  0.00  0.00    +0.000 A 
ATOM      4  C   UNL     1      10.591  11.944  19.507  0.00  0.00    +0.000 A 
ATOM      5  C   UNL     1      10.592  11.697  18.129  0.00  0.00    +0.000 A 
ATOM      6  C   UNL     1       9.769  10.701  17.586  0.00  0.00    +0.000 A 
ENDROOT
BRANCH   1   7
ATOM      7  C   UNL     1       7.985   8.939  17.757  0.00  0.00    +0.000 C 
BRANCH   7   8
ATOM      8  C   UNL     1       8.062   7.505  18.320  0.00  0.00    +0.000 C 
BRANCH   8  12
ATOM      9  N   UNL     1       5.005   5.668  18.614  0.00  0.00    +0.000 N 
ATOM     10  C   UNL     1       6.260   5.217  19.237  0.00  0.00    +0.000 C 
ATOM     11  C   UNL     1       7.419   5.176  18.213  0.00  0.00    +0.000 C 
ATOM     12  N   UNL     1       7.600   6.427  17.426  0.00  0.00    +0.000 NA
ATOM     13  C   UNL     1       6.302   6.726  16.775  0.00  0.00    +0.000 C 
ATOM     14  C   UNL     1       5.097   6.851  17.739  0.00  0.00    +0.000 C 
BRANCH   9  19
ATOM     15  F   UNL     1       0.469   2.514  18.408  0.00  0.00    +0.000 F 
ATOM     16  C   UNL     1       1.566   3.274  18.462  0.00  0.00    +0.000 A 
ATOM     17  C   UNL     1       2.469   3.242  17.417  0.00  0.00    +0.000 A 
ATOM     18  C   UNL     1       3.618   4.041  17.480  0.00  0.00    +0.000 A 
ATOM     19  C   UNL     1       3.872   4.875  18.581  0.00  0.00    +0.000 A 
ATOM     20  C   UNL     1       2.930   4.877  19.619  0.00  0.00    +0.000 A 
ATOM     21  C   UNL     1       1.784   4.082  19.563  0.00  0.00    +0.000 A 
ENDBRANCH   9  19
ENDBRANCH   8  12
ENDBRANCH   7   8
ENDBRANCH   1   7
BRANCH   4  22
ATOM     22  C   UNL     1      11.358  13.096  20.109  0.00  0.00    +0.000 C 
BRANCH  22  23
ATOM     23  O   UNL     1      10.857  14.341  19.631  0.00  0.00    +0.000 OA
BRANCH  23  24
ATOM     24  C   UNL     1       9.536  14.557  19.934  0.00  0.00    +0.000 A 
ATOM     25  C   UNL     1       9.028  14.743  21.217  0.00  0.00    +0.000 A 
ATOM     26  C   UNL     1       7.658  14.963  21.401  0.00  0.00    +0.000 A 
ATOM     27  C   UNL     1       6.771  14.996  20.308  0.00  0.00    +0.000 A 
ATOM     28  C   UNL     1       7.288  14.827  19.023  0.00  0.00    +0.000 A 
ATOM     29  C   UNL     1       8.672  14.631  18.847  0.00  0.00    +0.000 A 
ATOM     30  C   UNL     1       6.432  14.915  17.798  0.00  0.00    +0.000 C 
ATOM     31  C   UNL     1       4.930  14.786  18.007  0.00  0.00    +0.000 C 
ATOM     32  C   UNL     1       4.363  15.161  19.369  0.00  0.00    +0.000 C 
ATOM     33  C   UNL     1       5.318  15.270  20.557  0.00  0.00    +0.000 C 
ENDBRANCH  23  24
ENDBRANCH  22  23
ENDBRANCH   4  22
TORSDOF 7
ENDMDL
MODEL 3
REMARK VINA RESULT:      -8.6      4.247     10.125
REMARK  Name = 
REMARK  7 active torsions:
REMARK  status: ('A' for Active; 'I' for Inactive)
REMARK    1  A    between atoms: C_5  and  N_6
REMARK    2  A    between atoms: N_9  and  C_10
REMARK    3  A    between atoms: C_10  and  C_11
REMARK    4  A    between atoms: C_11  and  C_12
REMARK    5  A    between atoms: C_15  and  C_16
REMARK    6  A    between atoms: C_16  and  O_17
REMARK    7  A    between atoms: O_17  and  C_18
REMARK                            x       y       z     vdW  Elec       q    Type
REMARK                         _______ _______ _______ _____ _____    ______ ____
ROOT
ATOM      1  C   UNL     1       8.245   7.863  18.466  0.00  0.00    +0.000 A 
ATOM      2  C   UNL     1       8.188   6.601  19.070  0.00  0.00    +0.000 A 
ATOM      3  C   UNL     1       7.601   5.519  18.416  0.00  0.00    +0.000 A 
ATOM      4  C   UNL     1       7.061   5.667  17.134  0.00  0.00    +0.000 A 
ATOM      5  C   UNL     1       7.051   6.940  16.552  0.00  0.00    +0.000 A 
ATOM      6  C   UNL     1       7.641   8.026  17.211  0.00  0.00    +0.000 A 
ENDROOT
BRANCH   1   7
ATOM      7  C   UNL     1       8.967   9.050  19.085  0.00  0.00    +0.000 C 
BRANCH   7   8
ATOM      8  C   UNL     1       8.812  10.374  18.308  0.00  0.00    +0.000 C 
BRANCH   8  12
ATOM      9  N   UNL     1       9.724  13.364  20.050  0.00  0.00    +0.000 N 
ATOM     10  C   UNL     1       8.977  13.386  18.782  0.00  0.00    +0.000 C 
ATOM     11  C   UNL     1       9.683  12.544  17.692  0.00  0.00    +0.000 C 
ATOM     12  N   UNL     1      10.044  11.161  18.108  0.00  0.00    +0.000 NA
ATOM     13  C   UNL     1      10.867  11.275  19.336  0.00  0.00    +0.000 C 
ATOM     14  C   UNL     1      10.205  12.046  20.503  0.00  0.00    +0.000 C 
BRANCH   9  19
ATOM     15  F   UNL     1      11.665  17.973  22.406  0.00  0.00    +0.000 F 
ATOM     16  C   UNL     1      11.200  16.859  21.835  0.00  0.00    +0.000 A 
ATOM     17  C   UNL     1      10.534  15.926  22.606  0.00  0.00    +0.000 A 
ATOM     18  C   UNL     1      10.050  14.758  22.001  0.00  0.00    +0.000 A 
ATOM     19  C   UNL     1      10.225  14.516  20.629  0.00  0.00    +0.000 A 
ATOM     20  C   UNL     1      10.907  15.489  19.885  0.00  0.00    +0.000 A 
ATOM     21  C   UNL     1      11.394  16.653  20.481  0.00  0.00    +0.000 A 
ENDBRANCH   9  19
ENDBRANCH   8  12
ENDBRANCH   7   8
ENDBRANCH   1   7
BRANCH   4  22
ATOM     22  C   UNL     1       6.560   4.450  16.395  0.00  0.00    +0.000 C 
BRANCH  22  23
ATOM     23  O   UNL     1       5.222   4.647  15.948  0.00  0.00    +0.000 OA
BRANCH  23  24
ATOM     24  C   UNL     1       4.308   4.747  16.966  0.00  0.00    +0.000 A 
ATOM     25  C   UNL     1       3.735   5.933  17.416  0.00  0.00    +0.000 A 
ATOM     26  C   UNL     1       2.806   5.908  18.462  0.00  0.00    +0.000 A 
ATOM     27  C   UNL     1       2.436   4.698  19.080  0.00  0.00    +0.000 A 
ATOM     28  C   UNL     1       2.999   3.510  18.614  0.00  0.00    +0.000 A 
ATOM     29  C   UNL     1       3.915   3.544  17.544  0.00  0.00    +0.000 A 
ATOM     30  C   UNL     1       2.614   2.172  19.164  0.00  0.00    +0.000 C 
ATOM     31  C   UNL     1       1.907   2.168  20.511  0.00  0.00    +0.000 C 
ATOM     32  C   UNL     1       1.135   3.416  20.916  0.00  0.00    +0.000 C 
ATOM     33  C   UNL     1       1.409   4.723  20.174  0.00  0.00    +0.000 C 
ENDBRANCH  23  24
ENDBRANCH  22  23
ENDBRANCH   4  22
TORSDOF 7
ENDMDL
MODEL 4
REMARK VINA RESULT:      -8.5      3.818      6.376
REMARK  Name = 
REMARK  7 active torsions:
REMARK  status: ('A' for Active; 'I' for Inactive)
REMARK    1  A    between atoms: C_5  and  N_6
REMARK    2  A    between atoms: N_9  and  C_10
REMARK    3  A    between atoms: C_10  and  C_11
REMARK    4  A    between atoms: C_11  and  C_12
REMARK    5  A    between atoms: C_15  and  C_16
REMARK    6  A    between atoms: C_16  and  O_17
REMARK    7  A    between atoms: O_17  and  C_18
REMARK                            x       y       z     vdW  Elec       q    Type
REMARK                         _______ _______ _______ _____ _____    ______ ____
ROOT
ATOM      1  C   UNL     1       8.728  10.002  18.280  0.00  0.00    +0.000 A 
ATOM      2  C   UNL     1       9.126   9.844  19.613  0.00  0.00    +0.000 A 
ATOM      3  C   UNL     1       9.427  10.950  20.407  0.00  0.00    +0.000 A 
ATOM      4  C   UNL     1       9.328  12.246  19.893  0.00  0.00    +0.000 A 
ATOM      5  C   UNL     1       8.999  12.410  18.542  0.00  0.00    +0.000 A 
ATOM      6  C   UNL     1       8.697  11.298  17.746  0.00  0.00    +0.000 A 
ENDROOT
BRANCH   1   7
ATOM      7  C   UNL     1       8.286   8.843  17.401  0.00  0.00    +0.000 C 
BRANCH   7   8
ATOM      8  C   UNL     1       7.751   7.618  18.173  0.00  0.00    +0.000 C 
BRANCH   8  12
ATOM      9  N   UNL     1       4.812   5.606  18.518  0.00  0.00    +0.000 N 
ATOM     10  C   UNL     1       6.066   5.298  19.223  0.00  0.00    +0.000 C 
ATOM     11  C   UNL     1       7.268   5.250  18.249  0.00  0.00    +0.000 C 
ATOM     12  N   UNL     1       7.399   6.438  17.361  0.00  0.00    +0.000 NA
ATOM     13  C   UNL     1       6.112   6.589  16.641  0.00  0.00    +0.000 C 
ATOM     14  C   UNL     1       4.863   6.713  17.546  0.00  0.00    +0.000 C 
BRANCH   9  19
ATOM     15  F   UNL     1       0.523   2.118  18.430  0.00  0.00    +0.000 F 
ATOM     16  C   UNL     1       1.559   2.961  18.455  0.00  0.00    +0.000 A 
ATOM     17  C   UNL     1       2.707   2.651  17.752  0.00  0.00    +0.000 A 
ATOM     18  C   UNL     1       3.790   3.538  17.784  0.00  0.00    +0.000 A 
ATOM     19  C   UNL     1       3.736   4.736  18.515  0.00  0.00    +0.000 A 
ATOM     20  C   UNL     1       2.552   5.011  19.214  0.00  0.00    +0.000 A 
ATOM     21  C   UNL     1       1.470   4.131  19.188  0.00  0.00    +0.000 A 
ENDBRANCH   9  19
ENDBRANCH   8  12
ENDBRANCH   7   8
ENDBRANCH   1   7
BRANCH   4  22
ATOM     22  C   UNL     1       9.522  13.427  20.813  0.00  0.00    +0.000 C 
BRANCH  22  23
ATOM     23  O   UNL     1       8.274  13.872  21.335  0.00  0.00    +0.000 OA
BRANCH  23  24
ATOM     24  C   UNL     1       8.178  13.770  22.699  0.00  0.00    +0.000 A 
ATOM     25  C   UNL     1       8.815  14.605  23.613  0.00  0.00    +0.000 A 
ATOM     26  C   UNL     1       8.635  14.406  24.987  0.00  0.00    +0.000 A 
ATOM     27  C   UNL     1       7.819  13.366  25.472  0.00  0.00    +0.000 A 
ATOM     28  C   UNL     1       7.169  12.543  24.552  0.00  0.00    +0.000 A 
ATOM     29  C   UNL     1       7.337  12.767  23.172  0.00  0.00    +0.000 A 
ATOM     30  C   UNL     1       6.229  11.457  24.976  0.00  0.00    +0.000 C 
ATOM     31  C   UNL     1       6.317  11.009  26.427  0.00  0.00    +0.000 C 
ATOM     32  C   UNL     1       6.856  11.998  27.449  0.00  0.00    +0.000 C 
ATOM     33  C   UNL     1       7.632  13.218  26.953  0.00  0.00    +0.000 C 
ENDBRANCH  23  24
ENDBRANCH  22  23
ENDBRANCH   4  22
TORSDOF 7
ENDMDL
MODEL 5
REMARK VINA RESULT:      -8.4      0.868      1.239
REMARK  Name = 
REMARK  7 active torsions:
REMARK  status: ('A' for Active; 'I' for Inactive)
REMARK    1  A    between atoms: C_5  and  N_6
REMARK    2  A    between atoms: N_9  and  C_10
REMARK    3  A    between atoms: C_10  and  C_11
REMARK    4  A    between atoms: C_11  and  C_12
REMARK    5  A    between atoms: C_15  and  C_16
REMARK    6  A    between atoms: C_16  and  O_17
REMARK    7  A    between atoms: O_17  and  C_18
REMARK                            x       y       z     vdW  Elec       q    Type
REMARK                         _______ _______ _______ _____ _____    ______ ____
ROOT
ATOM      1  C   UNL     1       5.853   5.380  17.654  0.00  0.00    +0.000 A 
ATOM      2  C   UNL     1       6.832   5.138  18.625  0.00  0.00    +0.000 A 
ATOM      3  C   UNL     1       7.801   6.096  18.921  0.00  0.00    +0.000 A 
ATOM      4  C   UNL     1       7.812   7.327  18.260  0.00  0.00    +0.000 A 
ATOM      5  C   UNL     1       6.882   7.551  17.239  0.00  0.00    +0.000 A 
ATOM      6  C   UNL     1       5.909   6.587  16.943  0.00  0.00    +0.000 A 
ENDROOT
BRANCH   1   7
ATOM      7  C   UNL     1       4.711   4.419  17.366  0.00  0.00    +0.000 C 
BRANCH   7   8
ATOM      8  C   UNL     1       3.815   4.102  18.582  0.00  0.00    +0.000 C 
BRANCH   8  12
ATOM      9  N   UNL     1       2.192   7.016  19.878  0.00  0.00    +0.000 N 
ATOM     10  C   UNL     1       2.276   5.757  20.636  0.00  0.00    +0.000 C 
ATOM     11  C   UNL     1       1.774   4.557  19.798  0.00  0.00    +0.000 C 
ATOM     12  N   UNL     1       2.386   4.441  18.445  0.00  0.00    +0.000 NA
ATOM     13  C   UNL     1       2.157   5.730  17.751  0.00  0.00    +0.000 C 
ATOM     14  C   UNL     1       2.690   6.980  18.492  0.00  0.00    +0.000 C 
BRANCH   9  19
ATOM     15  F   UNL     1      -0.952  11.224  21.602  0.00  0.00    +0.000 F 
ATOM     16  C   UNL     1      -0.189  10.210  21.185  0.00  0.00    +0.000 A 
ATOM     17  C   UNL     1      -0.052   9.090  21.981  0.00  0.00    +0.000 A 
ATOM     18  C   UNL     1       0.751   8.030  21.538  0.00  0.00    +0.000 A 
ATOM     19  C   UNL     1       1.418   8.081  20.303  0.00  0.00    +0.000 A 
ATOM     20  C   UNL     1       1.251   9.238  19.528  0.00  0.00    +0.000 A 
ATOM     21  C   UNL     1       0.454  10.297  19.964  0.00  0.00    +0.000 A 
ENDBRANCH   9  19
ENDBRANCH   8  12
ENDBRANCH   7   8
ENDBRANCH   1   7
BRANCH   4  22
ATOM     22  C   UNL     1       8.784   8.396  18.699  0.00  0.00    +0.000 C 
BRANCH  22  23
ATOM     23  O   UNL     1       8.465   9.647  18.096  0.00  0.00    +0.000 OA
BRANCH  23  24
ATOM     24  C   UNL     1       9.109  10.715  18.667  0.00  0.00    +0.000 A 
ATOM     25  C   UNL     1       9.986  10.639  19.745  0.00  0.00    +0.000 A 
ATOM     26  C   UNL     1      10.590  11.802  20.238  0.00  0.00    +0.000 A 
ATOM     27  C   UNL     1      10.325  13.061  19.665  0.00  0.00    +0.000 A 
ATOM     28  C   UNL     1       9.460  13.129  18.574  0.00  0.00    +0.000 A 
ATOM     29  C   UNL     1       8.876  11.950  18.070  0.00  0.00    +0.000 A 
ATOM     30  C   UNL     1       9.173  14.412  17.859  0.00  0.00    +0.000 C 
ATOM     31  C   UNL     1       9.522  15.695  18.598  0.00  0.00    +0.000 C 
ATOM     32  C   UNL     1      10.611  15.635  19.660  0.00  0.00    +0.000 C 
ATOM     33  C   UNL     1      11.026  14.270  20.209  0.00  0.00    +0.000 C 
ENDBRANCH  23  24
ENDBRANCH  22  23
ENDBRANCH   4  22
TORSDOF 7
ENDMDL
MODEL 6
REMARK VINA RESULT:      -8.4      3.367      5.837
REMARK  Name = 
REMARK  7 active torsions:
REMARK  status: ('A' for Active; 'I' for Inactive)
REMARK    1  A    between atoms: C_5  and  N_6
REMARK    2  A    between atoms: N_9  and  C_10
REMARK    3  A    between atoms: C_10  and  C_11
REMARK    4  A    between atoms: C_11  and  C_12
REMARK    5  A    between atoms: C_15  and  C_16
REMARK    6  A    between atoms: C_16  and  O_17
REMARK    7  A    between atoms: O_17  and  C_18
REMARK                            x       y       z     vdW  Elec       q    Type
REMARK                         _______ _______ _______ _____ _____    ______ ____
ROOT
ATOM      1  C   UNL     1       8.314   9.849  18.064  0.00  0.00    +0.000 A 
ATOM      2  C   UNL     1       8.237  11.151  17.553  0.00  0.00    +0.000 A 
ATOM      3  C   UNL     1       9.022  12.175  18.080  0.00  0.00    +0.000 A 
ATOM      4  C   UNL     1       9.913  11.926  19.128  0.00  0.00    +0.000 A 
ATOM      5  C   UNL     1       9.946  10.644  19.691  0.00  0.00    +0.000 A 
ATOM      6  C   UNL     1       9.156   9.616  19.160  0.00  0.00    +0.000 A 
ENDROOT
BRANCH   1   7
ATOM      7  C   UNL     1       7.564   8.673  17.459  0.00  0.00    +0.000 C 
BRANCH   7   8
ATOM      8  C   UNL     1       7.873   7.310  18.112  0.00  0.00    +0.000 C 
BRANCH   8  12
ATOM      9  N   UNL     1       4.825   5.477  18.513  0.00  0.00    +0.000 N 
ATOM     10  C   UNL     1       6.054   5.134  19.246  0.00  0.00    +0.000 C 
ATOM     11  C   UNL     1       7.261   4.976  18.289  0.00  0.00    +0.000 C 
ATOM     12  N   UNL     1       7.464   6.114  17.350  0.00  0.00    +0.000 NA
ATOM     13  C   UNL     1       6.195   6.302  16.609  0.00  0.00    +0.000 C 
ATOM     14  C   UNL     1       4.945   6.534  17.492  0.00  0.00    +0.000 C 
BRANCH   9  19
ATOM     15  F   UNL     1       0.340   2.244  18.529  0.00  0.00    +0.000 F 
ATOM     16  C   UNL     1       1.425   3.024  18.529  0.00  0.00    +0.000 A 
ATOM     17  C   UNL     1       2.404   2.828  17.576  0.00  0.00    +0.000 A 
ATOM     18  C   UNL     1       3.540   3.649  17.582  0.00  0.00    +0.000 A 
ATOM     19  C   UNL     1       3.704   4.667  18.536  0.00  0.00    +0.000 A 
ATOM     20  C   UNL     1       2.685   4.831  19.485  0.00  0.00    +0.000 A 
ATOM     21  C   UNL     1       1.553   4.015  19.485  0.00  0.00    +0.000 A 
ENDBRANCH   9  19
ENDBRANCH   8  12
ENDBRANCH   7   8
ENDBRANCH   1   7
BRANCH   4  22
ATOM     22  C   UNL     1      10.849  13.019  19.583  0.00  0.00    +0.000 C 
BRANCH  22  23
ATOM     23  O   UNL     1      10.817  13.153  21.001  0.00  0.00    +0.000 OA
BRANCH  23  24
ATOM     24  C   UNL     1       9.675  13.750  21.472  0.00  0.00    +0.000 A 
ATOM     25  C   UNL     1       9.147  14.951  21.007  0.00  0.00    +0.000 A 
ATOM     26  C   UNL     1       7.968  15.460  21.564  0.00  0.00    +0.000 A 
ATOM     27  C   UNL     1       7.298  14.779  22.599  0.00  0.00    +0.000 A 
ATOM     28  C   UNL     1       7.821  13.568  23.049  0.00  0.00    +0.000 A 
ATOM     29  C   UNL     1       8.995  13.052  22.465  0.00  0.00    +0.000 A 
ATOM     30  C   UNL     1       7.140  12.742  24.096  0.00  0.00    +0.000 C 
ATOM     31  C   UNL     1       6.091  13.448  24.943  0.00  0.00    +0.000 C 
ATOM     32  C   UNL     1       5.394  14.664  24.350  0.00  0.00    +0.000 C 
ATOM     33  C   UNL     1       6.019  15.350  23.136  0.00  0.00    +0.000 C 
ENDBRANCH  23  24
ENDBRANCH  22  23
ENDBRANCH   4  22
TORSDOF 7
ENDMDL
MODEL 7
REMARK VINA RESULT:      -8.3      4.081      6.922
REMARK  Name = 
REMARK  7 active torsions:
REMARK  status: ('A' for Active; 'I' for Inactive)
REMARK    1  A    between atoms: C_5  and  N_6
REMARK    2  A    between atoms: N_9  and  C_10
REMARK    3  A    between atoms: C_10  and  C_11
REMARK    4  A    between atoms: C_11  and  C_12
REMARK    5  A    between atoms: C_15  and  C_16
REMARK    6  A    between atoms: C_16  and  O_17
REMARK    7  A    between atoms: O_17  and  C_18
REMARK                            x       y       z     vdW  Elec       q    Type
REMARK                         _______ _______ _______ _____ _____    ______ ____
ROOT
ATOM      1  C   UNL     1       1.848   6.255  20.279  0.00  0.00    +0.000 A 
ATOM      2  C   UNL     1       1.812   4.935  20.745  0.00  0.00    +0.000 A 
ATOM      3  C   UNL     1       1.909   3.860  19.862  0.00  0.00    +0.000 A 
ATOM      4  C   UNL     1       2.055   4.075  18.489  0.00  0.00    +0.000 A 
ATOM      5  C   UNL     1       2.022   5.389  18.007  0.00  0.00    +0.000 A 
ATOM      6  C   UNL     1       1.924   6.468  18.895  0.00  0.00    +0.000 A 
ENDROOT
BRANCH   1   7
ATOM      7  C   UNL     1       1.855   7.463  21.201  0.00  0.00    +0.000 C 
BRANCH   7   8
ATOM      8  C   UNL     1       1.298   8.757  20.571  0.00  0.00    +0.000 C 
BRANCH   8  12
ATOM      9  N   UNL     1      -0.519  11.302  22.311  0.00  0.00    +0.000 N 
ATOM     10  C   UNL     1      -0.207   9.999  22.919  0.00  0.00    +0.000 C 
ATOM     11  C   UNL     1      -0.646   8.827  22.008  0.00  0.00    +0.000 C 
ATOM     12  N   UNL     1      -0.167   8.919  20.601  0.00  0.00    +0.000 NA
ATOM     13  C   UNL     1      -0.619  10.228  20.070  0.00  0.00    +0.000 C 
ATOM     14  C   UNL     1      -0.165  11.461  20.889  0.00  0.00    +0.000 C 
BRANCH   9  19
ATOM     15  F   UNL     1      -3.849  14.970  24.764  0.00  0.00    +0.000 F 
ATOM     16  C   UNL     1      -3.048  14.083  24.168  0.00  0.00    +0.000 A 
ATOM     17  C   UNL     1      -1.783  14.469  23.768  0.00  0.00    +0.000 A 
ATOM     18  C   UNL     1      -0.948  13.534  23.143  0.00  0.00    +0.000 A 
ATOM     19  C   UNL     1      -1.367  12.213  22.915  0.00  0.00    +0.000 A 
ATOM     20  C   UNL     1      -2.658  11.865  23.337  0.00  0.00    +0.000 A 
ATOM     21  C   UNL     1      -3.495  12.792  23.959  0.00  0.00    +0.000 A 
ENDBRANCH   9  19
ENDBRANCH   8  12
ENDBRANCH   7   8
ENDBRANCH   1   7
BRANCH   4  22
ATOM     22  C   UNL     1       2.299   2.898  17.575  0.00  0.00    +0.000 C 
BRANCH  22  23
ATOM     23  O   UNL     1       3.684   2.565  17.539  0.00  0.00    +0.000 OA
BRANCH  23  24
ATOM     24  C   UNL     1       4.504   3.641  17.309  0.00  0.00    +0.000 A 
ATOM     25  C   UNL     1       4.579   4.350  16.113  0.00  0.00    +0.000 A 
ATOM     26  C   UNL     1       5.453   5.438  16.000  0.00  0.00    +0.000 A 
ATOM     27  C   UNL     1       6.269   5.833  17.077  0.00  0.00    +0.000 A 
ATOM     28  C   UNL     1       6.177   5.130  18.278  0.00  0.00    +0.000 A 
ATOM     29  C   UNL     1       5.277   4.052  18.389  0.00  0.00    +0.000 A 
ATOM     30  C   UNL     1       6.955   5.521  19.495  0.00  0.00    +0.000 C 
ATOM     31  C   UNL     1       8.146   6.442  19.275  0.00  0.00    +0.000 C 
ATOM     32  C   UNL     1       8.135   7.344  18.049  0.00  0.00    +0.000 C 
ATOM     33  C   UNL     1       7.162   7.027  16.913  0.00  0.00    +0.000 C 
ENDBRANCH  23  24
ENDBRANCH  22  23
ENDBRANCH   4  22
TORSDOF 7
ENDMDL
MODEL 8
REMARK VINA RESULT:      -8.3      1.080      1.401
REMARK  Name = 
REMARK  7 active torsions:
REMARK  status: ('A' for Active; 'I' for Inactive)
REMARK    1  A    between atoms: C_5  and  N_6
REMARK    2  A    between atoms: N_9  and  C_10
REMARK    3  A    between atoms: C_10  and  C_11
REMARK    4  A    between atoms: C_11  and  C_12
REMARK    5  A    between atoms: C_15  and  C_16
REMARK    6  A    between atoms: C_16  and  O_17
REMARK    7  A    between atoms: O_17  and  C_18
REMARK                            x       y       z     vdW  Elec       q    Type
REMARK                         _______ _______ _______ _____ _____    ______ ____
ROOT
ATOM      1  C   UNL     1       6.206   5.644  17.900  0.00  0.00    +0.000 A 
ATOM      2  C   UNL     1       7.246   5.579  18.836  0.00  0.00    +0.000 A 
ATOM      3  C   UNL     1       8.132   6.643  18.999  0.00  0.00    +0.000 A 
ATOM      4  C   UNL     1       7.998   7.807  18.237  0.00  0.00    +0.000 A 
ATOM      5  C   UNL     1       7.005   7.854  17.251  0.00  0.00    +0.000 A 
ATOM      6  C   UNL     1       6.116   6.784  17.089  0.00  0.00    +0.000 A 
ENDROOT
BRANCH   1   7
ATOM      7  C   UNL     1       5.149   4.562  17.755  0.00  0.00    +0.000 C 
BRANCH   7   8
ATOM      8  C   UNL     1       4.106   4.526  18.891  0.00  0.00    +0.000 C 
BRANCH   8  12
ATOM      9  N   UNL     1       2.157   7.315  19.999  0.00  0.00    +0.000 N 
ATOM     10  C   UNL     1       2.152   6.021  20.700  0.00  0.00    +0.000 C 
ATOM     11  C   UNL     1       1.860   4.852  19.729  0.00  0.00    +0.000 C 
ATOM     12  N   UNL     1       2.713   4.827  18.509  0.00  0.00    +0.000 NA
ATOM     13  C   UNL     1       2.564   6.144  17.844  0.00  0.00    +0.000 C 
ATOM     14  C   UNL     1       2.902   7.368  18.729  0.00  0.00    +0.000 C 
BRANCH   9  19
ATOM     15  F   UNL     1      -1.315  11.428  21.263  0.00  0.00    +0.000 F 
ATOM     16  C   UNL     1      -0.479  10.431  20.959  0.00  0.00    +0.000 A 
ATOM     17  C   UNL     1       0.157  10.427  19.733  0.00  0.00    +0.000 A 
ATOM     18  C   UNL     1       1.031   9.378  19.419  0.00  0.00    +0.000 A 
ATOM     19  C   UNL     1       1.277   8.332  20.323  0.00  0.00    +0.000 A 
ATOM     20  C   UNL     1       0.610   8.376  21.556  0.00  0.00    +0.000 A 
ATOM     21  C   UNL     1      -0.264   9.417  21.873  0.00  0.00    +0.000 A 
ENDBRANCH   9  19
ENDBRANCH   8  12
ENDBRANCH   7   8
ENDBRANCH   1   7
BRANCH   4  22
ATOM     22  C   UNL     1       8.882   8.995  18.533  0.00  0.00    +0.000 C 
BRANCH  22  23
ATOM     23  O   UNL     1       8.265  10.204  18.102  0.00  0.00    +0.000 OA
BRANCH  23  24
ATOM     24  C   UNL     1       9.136  11.256  17.984  0.00  0.00    +0.000 A 
ATOM     25  C   UNL     1      10.517  11.142  17.841  0.00  0.00    +0.000 A 
ATOM     26  C   UNL     1      11.305  12.293  17.722  0.00  0.00    +0.000 A 
ATOM     27  C   UNL     1      10.728  13.577  17.747  0.00  0.00    +0.000 A 
ATOM     28  C   UNL     1       9.344  13.686  17.872  0.00  0.00    +0.000 A 
ATOM     29  C   UNL     1       8.557  12.521  17.966  0.00  0.00    +0.000 A 
ATOM     30  C   UNL     1       8.638  15.006  17.839  0.00  0.00    +0.000 C 
ATOM     31  C   UNL     1       9.494  16.241  18.077  0.00  0.00    +0.000 C 
ATOM     32  C   UNL     1      10.979  16.156  17.752  0.00  0.00    +0.000 C 
ATOM     33  C   UNL     1      11.614  14.776  17.580  0.00  0.00    +0.000 C 
ENDBRANCH  23  24
ENDBRANCH  22  23
ENDBRANCH   4  22
TORSDOF 7
ENDMDL
MODEL 9
REMARK VINA RESULT:      -8.3      3.785      6.103
REMARK  Name = 
REMARK  7 active torsions:
REMARK  status: ('A' for Active; 'I' for Inactive)
REMARK    1  A    between atoms: C_5  and  N_6
REMARK    2  A    between atoms: N_9  and  C_10
REMARK    3  A    between atoms: C_10  and  C_11
REMARK    4  A    between atoms: C_11  and  C_12
REMARK    5  A    between atoms: C_15  and  C_16
REMARK    6  A    between atoms: C_16  and  O_17
REMARK    7  A    between atoms: O_17  and  C_18
REMARK                            x       y       z     vdW  Elec       q    Type
REMARK                         _______ _______ _______ _____ _____    ______ ____
ROOT
ATOM      1  C   UNL     1       8.932   9.725  18.789  0.00  0.00    +0.000 A 
ATOM      2  C   UNL     1       8.903  10.618  17.710  0.00  0.00    +0.000 A 
ATOM      3  C   UNL     1       9.391  11.917  17.841  0.00  0.00    +0.000 A 
ATOM      4  C   UNL     1       9.932  12.358  19.052  0.00  0.00    +0.000 A 
ATOM      5  C   UNL     1       9.901  11.497  20.155  0.00  0.00    +0.000 A 
ATOM      6  C   UNL     1       9.410  10.192  20.022  0.00  0.00    +0.000 A 
ENDROOT
BRANCH   1   7
ATOM      7  C   UNL     1       8.514   8.269  18.674  0.00  0.00    +0.000 C 
BRANCH   7   8
ATOM      8  C   UNL     1       7.487   7.980  17.560  0.00  0.00    +0.000 C 
BRANCH   8  12
ATOM      9  N   UNL     1       4.795   5.670  18.033  0.00  0.00    +0.000 N 
ATOM     10  C   UNL     1       5.929   5.762  18.966  0.00  0.00    +0.000 C 
ATOM     11  C   UNL     1       7.284   5.663  18.224  0.00  0.00    +0.000 C 
ATOM     12  N   UNL     1       7.430   6.590  17.068  0.00  0.00    +0.000 NA
ATOM     13  C   UNL     1       6.286   6.339  16.160  0.00  0.00    +0.000 C 
ATOM     14  C   UNL     1       4.888   6.484  16.808  0.00  0.00    +0.000 C 
BRANCH   9  19
ATOM     15  F   UNL     1       0.972   1.695  18.421  0.00  0.00    +0.000 F 
ATOM     16  C   UNL     1       1.897   2.653  18.324  0.00  0.00    +0.000 A 
ATOM     17  C   UNL     1       1.505   3.960  18.108  0.00  0.00    +0.000 A 
ATOM     18  C   UNL     1       2.481   4.960  18.006  0.00  0.00    +0.000 A 
ATOM     19  C   UNL     1       3.849   4.664  18.120  0.00  0.00    +0.000 A 
ATOM     20  C   UNL     1       4.203   3.325  18.338  0.00  0.00    +0.000 A 
ATOM     21  C   UNL     1       3.236   2.324  18.439  0.00  0.00    +0.000 A 
ENDBRANCH   9  19
ENDBRANCH   8  12
ENDBRANCH   7   8
ENDBRANCH   1   7
BRANCH   4  22
ATOM     22  C   UNL     1      10.580  13.720  19.124  0.00  0.00    +0.000 C 
BRANCH  22  23
ATOM     23  O   UNL     1       9.950  14.527  20.114  0.00  0.00    +0.000 OA
BRANCH  23  24
ATOM     24  C   UNL     1       8.687  14.937  19.770  0.00  0.00    +0.000 A 
ATOM     25  C   UNL     1       8.345  15.559  18.572  0.00  0.00    +0.000 A 
ATOM     26  C   UNL     1       7.016  15.927  18.330  0.00  0.00    +0.000 A 
ATOM     27  C   UNL     1       6.007  15.685  19.282  0.00  0.00    +0.000 A 
ATOM     28  C   UNL     1       6.353  15.046  20.473  0.00  0.00    +0.000 A 
ATOM     29  C   UNL     1       7.688  14.657  20.696  0.00  0.00    +0.000 A 
ATOM     30  C   UNL     1       5.336  14.686  21.512  0.00  0.00    +0.000 C 
ATOM     31  C   UNL     1       3.993  15.395  21.423  0.00  0.00    +0.000 C 
ATOM     32  C   UNL     1       3.550  15.920  20.065  0.00  0.00    +0.000 C 
ATOM     33  C   UNL     1       4.594  16.068  18.959  0.00  0.00    +0.000 C 
ENDBRANCH  23  24
ENDBRANCH  22  23
ENDBRANCH   4  22
TORSDOF 7
ENDMDL
