MODEL 1
REMARK VINA RESULT:      -7.7      0.000      0.000
REMARK  Name = 
REMARK  6 active torsions:
REMARK  status: ('A' for Active; 'I' for Inactive)
REMARK    1  A    between atoms: C_1  and  N_2
REMARK    2  A    between atoms: N_2  and  C_3
REMARK    3  A    between atoms: C_3  and  C_4
REMARK    4  A    between atoms: N_6  and  C_7
REMARK    5  A    between atoms: C_12  and  C_13
REMARK    6  A    between atoms: C_17  and  C_19
REMARK                            x       y       z     vdW  Elec       q    Type
REMARK                         _______ _______ _______ _____ _____    ______ ____
ROOT
ATOM      1  C   UNL     1       5.460   4.439  19.153  0.00  0.00    +0.000 C 
ATOM      2  O   UNL     1       5.170   5.460  19.773  0.00  0.00    +0.000 OA
ATOM      3  N   UNL     1       4.670   3.294  19.109  0.00  0.00    +0.000 N 
ATOM      4  H   UNL     1       5.187   2.427  19.005  0.00  0.00    +0.000 HD
ENDROOT
BRANCH   3   5
ATOM      5  C   UNL     1       3.386   3.216  19.705  0.00  0.00    +0.000 A 
ATOM      6  C   UNL     1       3.250   2.719  21.008  0.00  0.00    +0.000 A 
ATOM      7  C   UNL     1       1.995   2.627  21.617  0.00  0.00    +0.000 A 
ATOM      8  C   UNL     1       0.858   3.027  20.925  0.00  0.00    +0.000 A 
ATOM      9  C   UNL     1       0.985   3.546  19.634  0.00  0.00    +0.000 A 
ATOM     10  C   UNL     1       2.246   3.662  19.015  0.00  0.00    +0.000 A 
BRANCH  10  11
ATOM     11  C   UNL     1       2.282   4.177  17.597  0.00  0.00    +0.000 C 
ATOM     12  F   UNL     1       3.077   5.278  17.428  0.00  0.00    +0.000 F 
ATOM     13  F   UNL     1       2.750   3.247  16.720  0.00  0.00    +0.000 F 
ATOM     14  F   UNL     1       1.057   4.540  17.142  0.00  0.00    +0.000 F 
ENDBRANCH  10  11
ENDBRANCH   3   5
BRANCH   1  15
ATOM     15  C   UNL     1       6.791   4.312  18.400  0.00  0.00    +0.000 C 
BRANCH  15  17
ATOM     16  C   UNL     1       7.712   6.622  18.149  0.00  0.00    +0.000 C 
ATOM     17  N   UNL     1       7.087   5.459  17.540  0.00  0.00    +0.000 N 
ATOM     18  C   UNL     1       7.109   5.410  16.141  0.00  0.00    +0.000 C 
ATOM     19  O   UNL     1       7.579   6.327  15.470  0.00  0.00    +0.000 OA
BRANCH  18  20
ATOM     20  C   UNL     1       6.577   4.197  15.448  0.00  0.00    +0.000 C 
ATOM     21  C   UNL     1       5.211   4.249  14.793  0.00  0.00    +0.000 C 
ATOM     22  C   UNL     1       6.443   4.193  13.940  0.00  0.00    +0.000 C 
ENDBRANCH  18  20
ENDBRANCH  15  17
ENDBRANCH   1  15
TORSDOF 5
ENDMDL
MODEL 2
REMARK VINA RESULT:      -7.4      2.077      2.623
REMARK  Name = 
REMARK  6 active torsions:
REMARK  status: ('A' for Active; 'I' for Inactive)
REMARK    1  A    between atoms: C_1  and  N_2
REMARK    2  A    between atoms: N_2  and  C_3
REMARK    3  A    between atoms: C_3  and  C_4
REMARK    4  A    between atoms: N_6  and  C_7
REMARK    5  A    between atoms: C_12  and  C_13
REMARK    6  A    between atoms: C_17  and  C_19
REMARK                            x       y       z     vdW  Elec       q    Type
REMARK                         _______ _______ _______ _____ _____    ______ ____
ROOT
ATOM      1  C   UNL     1       4.998   4.119  17.652  0.00  0.00    +0.000 C 
ATOM      2  O   UNL     1       5.605   4.046  18.719  0.00  0.00    +0.000 OA
ATOM      3  N   UNL     1       3.685   4.562  17.523  0.00  0.00    +0.000 N 
ATOM      4  H   UNL     1       3.171   4.142  16.754  0.00  0.00    +0.000 HD
ENDROOT
BRANCH   3   5
ATOM      5  C   UNL     1       2.929   5.070  18.608  0.00  0.00    +0.000 A 
ATOM      6  C   UNL     1       2.958   6.441  18.899  0.00  0.00    +0.000 A 
ATOM      7  C   UNL     1       2.225   6.967  19.967  0.00  0.00    +0.000 A 
ATOM      8  C   UNL     1       1.458   6.125  20.762  0.00  0.00    +0.000 A 
ATOM      9  C   UNL     1       1.403   4.760  20.466  0.00  0.00    +0.000 A 
ATOM     10  C   UNL     1       2.121   4.220  19.381  0.00  0.00    +0.000 A 
BRANCH  10  11
ATOM     11  C   UNL     1       2.051   2.727  19.173  0.00  0.00    +0.000 C 
ATOM     12  F   UNL     1       1.789   2.359  17.881  0.00  0.00    +0.000 F 
ATOM     13  F   UNL     1       3.214   2.102  19.505  0.00  0.00    +0.000 F 
ATOM     14  F   UNL     1       1.083   2.140  19.920  0.00  0.00    +0.000 F 
ENDBRANCH  10  11
ENDBRANCH   3   5
BRANCH   1  15
ATOM     15  C   UNL     1       5.637   3.656  16.336  0.00  0.00    +0.000 C 
BRANCH  15  17
ATOM     16  C   UNL     1       6.885   5.820  16.379  0.00  0.00    +0.000 C 
ATOM     17  N   UNL     1       6.316   4.728  15.607  0.00  0.00    +0.000 N 
ATOM     18  C   UNL     1       6.734   4.633  14.275  0.00  0.00    +0.000 C 
ATOM     19  O   UNL     1       7.494   5.461  13.775  0.00  0.00    +0.000 OA
BRANCH  18  20
ATOM     20  C   UNL     1       6.271   3.476  13.449  0.00  0.00    +0.000 C 
ATOM     21  C   UNL     1       5.146   3.672  12.452  0.00  0.00    +0.000 C 
ATOM     22  C   UNL     1       6.546   3.460  11.960  0.00  0.00    +0.000 C 
ENDBRANCH  18  20
ENDBRANCH  15  17
ENDBRANCH   1  15
TORSDOF 5
ENDMDL
MODEL 3
REMARK VINA RESULT:      -7.4      0.755      2.272
REMARK  Name = 
REMARK  6 active torsions:
REMARK  status: ('A' for Active; 'I' for Inactive)
REMARK    1  A    between atoms: C_1  and  N_2
REMARK    2  A    between atoms: N_2  and  C_3
REMARK    3  A    between atoms: C_3  and  C_4
REMARK    4  A    between atoms: N_6  and  C_7
REMARK    5  A    between atoms: C_12  and  C_13
REMARK    6  A    between atoms: C_17  and  C_19
REMARK                            x       y       z     vdW  Elec       q    Type
REMARK                         _______ _______ _______ _____ _____    ______ ____
ROOT
ATOM      1  C   UNL     1       5.484   4.365  19.004  0.00  0.00    +0.000 C 
ATOM      2  O   UNL     1       5.322   5.295  19.793  0.00  0.00    +0.000 OA
ATOM      3  N   UNL     1       4.623   3.279  18.882  0.00  0.00    +0.000 N 
ATOM      4  H   UNL     1       5.073   2.413  18.599  0.00  0.00    +0.000 HD
ENDROOT
BRANCH   3   5
ATOM      5  C   UNL     1       3.404   3.173  19.595  0.00  0.00    +0.000 A 
ATOM      6  C   UNL     1       3.394   2.624  20.886  0.00  0.00    +0.000 A 
ATOM      7  C   UNL     1       2.204   2.504  21.609  0.00  0.00    +0.000 A 
ATOM      8  C   UNL     1       1.006   2.927  21.046  0.00  0.00    +0.000 A 
ATOM      9  C   UNL     1       1.007   3.496  19.770  0.00  0.00    +0.000 A 
ATOM     10  C   UNL     1       2.202   3.641  19.038  0.00  0.00    +0.000 A 
BRANCH  10  11
ATOM     11  C   UNL     1       2.101   4.211  17.644  0.00  0.00    +0.000 C 
ATOM     12  F   UNL     1       0.827   4.553  17.278  0.00  0.00    +0.000 F 
ATOM     13  F   UNL     1       2.844   5.342  17.491  0.00  0.00    +0.000 F 
ATOM     14  F   UNL     1       2.532   3.347  16.693  0.00  0.00    +0.000 F 
ENDBRANCH  10  11
ENDBRANCH   3   5
BRANCH   1  15
ATOM     15  C   UNL     1       6.722   4.290  18.102  0.00  0.00    +0.000 C 
BRANCH  15  17
ATOM     16  C   UNL     1       6.105   3.965  15.702  0.00  0.00    +0.000 C 
ATOM     17  N   UNL     1       6.512   4.862  16.771  0.00  0.00    +0.000 N 
ATOM     18  C   UNL     1       6.364   6.230  16.516  0.00  0.00    +0.000 C 
ATOM     19  O   UNL     1       5.968   6.646  15.428  0.00  0.00    +0.000 OA
BRANCH  18  20
ATOM     20  C   UNL     1       6.667   7.209  17.604  0.00  0.00    +0.000 C 
ATOM     21  C   UNL     1       8.022   7.179  18.283  0.00  0.00    +0.000 C 
ATOM     22  C   UNL     1       7.677   8.311  17.363  0.00  0.00    +0.000 C 
ENDBRANCH  18  20
ENDBRANCH  15  17
ENDBRANCH   1  15
TORSDOF 5
ENDMDL
MODEL 4
REMARK VINA RESULT:      -7.3      1.814      2.281
REMARK  Name = 
REMARK  6 active torsions:
REMARK  status: ('A' for Active; 'I' for Inactive)
REMARK    1  A    between atoms: C_1  and  N_2
REMARK    2  A    between atoms: N_2  and  C_3
REMARK    3  A    between atoms: C_3  and  C_4
REMARK    4  A    between atoms: N_6  and  C_7
REMARK    5  A    between atoms: C_12  and  C_13
REMARK    6  A    between atoms: C_17  and  C_19
REMARK                            x       y       z     vdW  Elec       q    Type
REMARK                         _______ _______ _______ _____ _____    ______ ____
ROOT
ATOM      1  C   UNL     1       4.530   6.686  17.713  0.00  0.00    +0.000 C 
ATOM      2  O   UNL     1       3.515   7.145  17.193  0.00  0.00    +0.000 OA
ATOM      3  N   UNL     1       4.530   5.736  18.731  0.00  0.00    +0.000 N 
ATOM      4  H   UNL     1       5.317   5.802  19.370  0.00  0.00    +0.000 HD
ENDROOT
BRANCH   3   5
ATOM      5  C   UNL     1       3.350   5.120  19.216  0.00  0.00    +0.000 A 
ATOM      6  C   UNL     1       2.595   5.749  20.217  0.00  0.00    +0.000 A 
ATOM      7  C   UNL     1       1.429   5.161  20.716  0.00  0.00    +0.000 A 
ATOM      8  C   UNL     1       1.008   3.931  20.224  0.00  0.00    +0.000 A 
ATOM      9  C   UNL     1       1.740   3.308  19.210  0.00  0.00    +0.000 A 
ATOM     10  C   UNL     1       2.906   3.898  18.684  0.00  0.00    +0.000 A 
BRANCH  10  11
ATOM     11  C   UNL     1       3.666   3.125  17.635  0.00  0.00    +0.000 C 
ATOM     12  F   UNL     1       3.237   1.835  17.479  0.00  0.00    +0.000 F 
ATOM     13  F   UNL     1       3.573   3.695  16.402  0.00  0.00    +0.000 F 
ATOM     14  F   UNL     1       4.991   3.036  17.908  0.00  0.00    +0.000 F 
ENDBRANCH  10  11
ENDBRANCH   3   5
BRANCH   1  15
ATOM     15  C   UNL     1       5.926   7.182  17.317  0.00  0.00    +0.000 C 
BRANCH  15  17
ATOM     16  C   UNL     1       7.664   6.049  18.710  0.00  0.00    +0.000 C 
ATOM     17  N   UNL     1       6.966   6.159  17.440  0.00  0.00    +0.000 N 
ATOM     18  C   UNL     1       7.125   5.086  16.556  0.00  0.00    +0.000 C 
ATOM     19  O   UNL     1       7.859   4.134  16.819  0.00  0.00    +0.000 OA
BRANCH  18  20
ATOM     20  C   UNL     1       6.357   5.081  15.273  0.00  0.00    +0.000 C 
ATOM     21  C   UNL     1       7.095   4.922  13.959  0.00  0.00    +0.000 C 
ATOM     22  C   UNL     1       6.241   3.801  14.473  0.00  0.00    +0.000 C 
ENDBRANCH  18  20
ENDBRANCH  15  17
ENDBRANCH   1  15
TORSDOF 5
ENDMDL
MODEL 5
REMARK VINA RESULT:      -7.1      0.560      1.088
REMARK  Name = 
REMARK  6 active torsions:
REMARK  status: ('A' for Active; 'I' for Inactive)
REMARK    1  A    between atoms: C_1  and  N_2
REMARK    2  A    between atoms: N_2  and  C_3
REMARK    3  A    between atoms: C_3  and  C_4
REMARK    4  A    between atoms: N_6  and  C_7
REMARK    5  A    between atoms: C_12  and  C_13
REMARK    6  A    between atoms: C_17  and  C_19
REMARK                            x       y       z     vdW  Elec       q    Type
REMARK                         _______ _______ _______ _____ _____    ______ ____
ROOT
ATOM      1  C   UNL     1       5.315   4.433  19.163  0.00  0.00    +0.000 C 
ATOM      2  O   UNL     1       5.020   5.435  19.813  0.00  0.00    +0.000 OA
ATOM      3  N   UNL     1       4.535   3.282  19.097  0.00  0.00    +0.000 N 
ATOM      4  H   UNL     1       5.061   2.423  18.966  0.00  0.00    +0.000 HD
ENDROOT
BRANCH   3   5
ATOM      5  C   UNL     1       3.258   3.175  19.703  0.00  0.00    +0.000 A 
ATOM      6  C   UNL     1       3.141   2.651  20.998  0.00  0.00    +0.000 A 
ATOM      7  C   UNL     1       1.893   2.531  21.616  0.00  0.00    +0.000 A 
ATOM      8  C   UNL     1       0.745   2.928  20.941  0.00  0.00    +0.000 A 
ATOM      9  C   UNL     1       0.853   3.473  19.659  0.00  0.00    +0.000 A 
ATOM     10  C   UNL     1       2.106   3.618  19.032  0.00  0.00    +0.000 A 
BRANCH  10  11
ATOM     11  C   UNL     1       2.122   4.160  17.624  0.00  0.00    +0.000 C 
ATOM     12  F   UNL     1       2.665   3.301  16.707  0.00  0.00    +0.000 F 
ATOM     13  F   UNL     1       0.874   4.448  17.165  0.00  0.00    +0.000 F 
ATOM     14  F   UNL     1       2.837   5.307  17.513  0.00  0.00    +0.000 F 
ENDBRANCH  10  11
ENDBRANCH   3   5
BRANCH   1  15
ATOM     15  C   UNL     1       6.639   4.340  18.396  0.00  0.00    +0.000 C 
BRANCH  15  17
ATOM     16  C   UNL     1       8.123   6.290  18.885  0.00  0.00    +0.000 C 
ATOM     17  N   UNL     1       7.175   5.641  17.994  0.00  0.00    +0.000 N 
ATOM     18  C   UNL     1       7.096   6.160  16.697  0.00  0.00    +0.000 C 
ATOM     19  O   UNL     1       7.750   7.144  16.353  0.00  0.00    +0.000 OA
BRANCH  18  20
ATOM     20  C   UNL     1       6.218   5.481  15.695  0.00  0.00    +0.000 C 
ATOM     21  C   UNL     1       6.833   4.890  14.442  0.00  0.00    +0.000 C 
ATOM     22  C   UNL     1       6.309   3.981  15.514  0.00  0.00    +0.000 C 
ENDBRANCH  18  20
ENDBRANCH  15  17
ENDBRANCH   1  15
TORSDOF 5
ENDMDL
MODEL 6
REMARK VINA RESULT:      -7.1      1.843      2.202
REMARK  Name = 
REMARK  6 active torsions:
REMARK  status: ('A' for Active; 'I' for Inactive)
REMARK    1  A    between atoms: C_1  and  N_2
REMARK    2  A    between atoms: N_2  and  C_3
REMARK    3  A    between atoms: C_3  and  C_4
REMARK    4  A    between atoms: N_6  and  C_7
REMARK    5  A    between atoms: C_12  and  C_13
REMARK    6  A    between atoms: C_17  and  C_19
REMARK                            x       y       z     vdW  Elec       q    Type
REMARK                         _______ _______ _______ _____ _____    ______ ____
ROOT
ATOM      1  C   UNL     1       4.697   4.539  17.283  0.00  0.00    +0.000 C 
ATOM      2  O   UNL     1       4.043   5.432  16.748  0.00  0.00    +0.000 OA
ATOM      3  N   UNL     1       4.380   3.958  18.507  0.00  0.00    +0.000 N 
ATOM      4  H   UNL     1       5.180   3.630  19.040  0.00  0.00    +0.000 HD
ENDROOT
BRANCH   3   5
ATOM      5  C   UNL     1       3.203   4.272  19.232  0.00  0.00    +0.000 A 
ATOM      6  C   UNL     1       3.142   5.453  19.986  0.00  0.00    +0.000 A 
ATOM      7  C   UNL     1       1.995   5.784  20.714  0.00  0.00    +0.000 A 
ATOM      8  C   UNL     1       0.897   4.933  20.701  0.00  0.00    +0.000 A 
ATOM      9  C   UNL     1       0.939   3.766  19.935  0.00  0.00    +0.000 A 
ATOM     10  C   UNL     1       2.081   3.429  19.181  0.00  0.00    +0.000 A 
BRANCH  10  11
ATOM     11  C   UNL     1       2.060   2.120  18.432  0.00  0.00    +0.000 C 
ATOM     12  F   UNL     1       2.334   2.242  17.096  0.00  0.00    +0.000 F 
ATOM     13  F   UNL     1       2.972   1.232  18.914  0.00  0.00    +0.000 F 
ATOM     14  F   UNL     1       0.858   1.497  18.499  0.00  0.00    +0.000 F 
ENDBRANCH  10  11
ENDBRANCH   3   5
BRANCH   1  15
ATOM     15  C   UNL     1       5.995   4.013  16.656  0.00  0.00    +0.000 C 
BRANCH  15  17
ATOM     16  C   UNL     1       7.382   6.086  16.506  0.00  0.00    +0.000 C 
ATOM     17  N   UNL     1       6.687   5.004  15.829  0.00  0.00    +0.000 N 
ATOM     18  C   UNL     1       6.997   4.823  14.477  0.00  0.00    +0.000 C 
ATOM     19  O   UNL     1       7.770   5.574  13.885  0.00  0.00    +0.000 OA
BRANCH  18  20
ATOM     20  C   UNL     1       6.398   3.667  13.742  0.00  0.00    +0.000 C 
ATOM     21  C   UNL     1       5.202   3.893  12.840  0.00  0.00    +0.000 C 
ATOM     22  C   UNL     1       6.539   3.581  12.237  0.00  0.00    +0.000 C 
ENDBRANCH  18  20
ENDBRANCH  15  17
ENDBRANCH   1  15
TORSDOF 5
ENDMDL
MODEL 7
REMARK VINA RESULT:      -7.1      1.543      1.780
REMARK  Name = 
REMARK  6 active torsions:
REMARK  status: ('A' for Active; 'I' for Inactive)
REMARK    1  A    between atoms: C_1  and  N_2
REMARK    2  A    between atoms: N_2  and  C_3
REMARK    3  A    between atoms: C_3  and  C_4
REMARK    4  A    between atoms: N_6  and  C_7
REMARK    5  A    between atoms: C_12  and  C_13
REMARK    6  A    between atoms: C_17  and  C_19
REMARK                            x       y       z     vdW  Elec       q    Type
REMARK                         _______ _______ _______ _____ _____    ______ ____
ROOT
ATOM      1  C   UNL     1       4.434   5.884  18.497  0.00  0.00    +0.000 C 
ATOM      2  O   UNL     1       5.308   5.389  19.206  0.00  0.00    +0.000 OA
ATOM      3  N   UNL     1       3.102   5.480  18.493  0.00  0.00    +0.000 N 
ATOM      4  H   UNL     1       2.629   5.591  17.601  0.00  0.00    +0.000 HD
ENDROOT
BRANCH   3   5
ATOM      5  C   UNL     1       2.585   4.508  19.385  0.00  0.00    +0.000 A 
ATOM      6  C   UNL     1       2.206   4.881  20.683  0.00  0.00    +0.000 A 
ATOM      7  C   UNL     1       1.697   3.941  21.583  0.00  0.00    +0.000 A 
ATOM      8  C   UNL     1       1.569   2.612  21.198  0.00  0.00    +0.000 A 
ATOM      9  C   UNL     1       1.922   2.234  19.901  0.00  0.00    +0.000 A 
ATOM     10  C   UNL     1       2.417   3.175  18.976  0.00  0.00    +0.000 A 
BRANCH  10  11
ATOM     11  C   UNL     1       2.831   2.666  17.617  0.00  0.00    +0.000 C 
ATOM     12  F   UNL     1       4.185   2.545  17.460  0.00  0.00    +0.000 F 
ATOM     13  F   UNL     1       2.317   1.434  17.347  0.00  0.00    +0.000 F 
ATOM     14  F   UNL     1       2.419   3.474  16.609  0.00  0.00    +0.000 F 
ENDBRANCH  10  11
ENDBRANCH   3   5
BRANCH   1  15
ATOM     15  C   UNL     1       4.760   6.982  17.477  0.00  0.00    +0.000 C 
BRANCH  15  17
ATOM     16  C   UNL     1       7.164   7.663  17.474  0.00  0.00    +0.000 C 
ATOM     17  N   UNL     1       6.098   6.862  16.896  0.00  0.00    +0.000 N 
ATOM     18  C   UNL     1       6.500   5.822  16.050  0.00  0.00    +0.000 C 
ATOM     19  O   UNL     1       7.683   5.637  15.769  0.00  0.00    +0.000 OA
BRANCH  18  20
ATOM     20  C   UNL     1       5.466   4.893  15.499  0.00  0.00    +0.000 C 
ATOM     21  C   UNL     1       5.446   4.593  14.013  0.00  0.00    +0.000 C 
ATOM     22  C   UNL     1       5.881   3.532  14.980  0.00  0.00    +0.000 C 
ENDBRANCH  18  20
ENDBRANCH  15  17
ENDBRANCH   1  15
TORSDOF 5
ENDMDL
MODEL 8
REMARK VINA RESULT:      -7.0      0.848      1.343
REMARK  Name = 
REMARK  6 active torsions:
REMARK  status: ('A' for Active; 'I' for Inactive)
REMARK    1  A    between atoms: C_1  and  N_2
REMARK    2  A    between atoms: N_2  and  C_3
REMARK    3  A    between atoms: C_3  and  C_4
REMARK    4  A    between atoms: N_6  and  C_7
REMARK    5  A    between atoms: C_12  and  C_13
REMARK    6  A    between atoms: C_17  and  C_19
REMARK                            x       y       z     vdW  Elec       q    Type
REMARK                         _______ _______ _______ _____ _____    ______ ____
ROOT
ATOM      1  C   UNL     1       5.287   4.675  19.149  0.00  0.00    +0.000 C 
ATOM      2  O   UNL     1       4.612   5.698  19.049  0.00  0.00    +0.000 OA
ATOM      3  N   UNL     1       4.809   3.463  19.639  0.00  0.00    +0.000 N 
ATOM      4  H   UNL     1       5.506   2.892  20.109  0.00  0.00    +0.000 HD
ENDROOT
BRANCH   3   5
ATOM      5  C   UNL     1       3.452   3.250  19.989  0.00  0.00    +0.000 A 
ATOM      6  C   UNL     1       3.034   3.443  21.313  0.00  0.00    +0.000 A 
ATOM      7  C   UNL     1       1.703   3.236  21.686  0.00  0.00    +0.000 A 
ATOM      8  C   UNL     1       0.774   2.825  20.737  0.00  0.00    +0.000 A 
ATOM      9  C   UNL     1       1.176   2.651  19.410  0.00  0.00    +0.000 A 
ATOM     10  C   UNL     1       2.510   2.876  19.017  0.00  0.00    +0.000 A 
BRANCH  10  11
ATOM     11  C   UNL     1       2.867   2.605  17.576  0.00  0.00    +0.000 C 
ATOM     12  F   UNL     1       2.046   1.696  16.964  0.00  0.00    +0.000 F 
ATOM     13  F   UNL     1       2.809   3.728  16.808  0.00  0.00    +0.000 F 
ATOM     14  F   UNL     1       4.123   2.115  17.431  0.00  0.00    +0.000 F 
ENDBRANCH  10  11
ENDBRANCH   3   5
BRANCH   1  15
ATOM     15  C   UNL     1       6.779   4.663  18.792  0.00  0.00    +0.000 C 
BRANCH  15  17
ATOM     16  C   UNL     1       7.854   6.865  18.303  0.00  0.00    +0.000 C 
ATOM     17  N   UNL     1       7.154   5.688  17.816  0.00  0.00    +0.000 N 
ATOM     18  C   UNL     1       7.176   5.488  16.431  0.00  0.00    +0.000 C 
ATOM     19  O   UNL     1       7.708   6.294  15.670  0.00  0.00    +0.000 OA
BRANCH  18  20
ATOM     20  C   UNL     1       6.565   4.246  15.867  0.00  0.00    +0.000 C 
ATOM     21  C   UNL     1       5.235   4.328  15.144  0.00  0.00    +0.000 C 
ATOM     22  C   UNL     1       6.489   4.063  14.366  0.00  0.00    +0.000 C 
ENDBRANCH  18  20
ENDBRANCH  15  17
ENDBRANCH   1  15
TORSDOF 5
ENDMDL
MODEL 9
REMARK VINA RESULT:      -6.9      2.175      6.019
REMARK  Name = 
REMARK  6 active torsions:
REMARK  status: ('A' for Active; 'I' for Inactive)
REMARK    1  A    between atoms: C_1  and  N_2
REMARK    2  A    between atoms: N_2  and  C_3
REMARK    3  A    between atoms: C_3  and  C_4
REMARK    4  A    between atoms: N_6  and  C_7
REMARK    5  A    between atoms: C_12  and  C_13
REMARK    6  A    between atoms: C_17  and  C_19
REMARK                            x       y       z     vdW  Elec       q    Type
REMARK                         _______ _______ _______ _____ _____    ______ ____
ROOT
ATOM      1  C   UNL     1       4.524   4.267  19.356  0.00  0.00    +0.000 C 
ATOM      2  O   UNL     1       3.982   5.282  19.790  0.00  0.00    +0.000 OA
ATOM      3  N   UNL     1       5.696   4.262  18.604  0.00  0.00    +0.000 N 
ATOM      4  H   UNL     1       5.766   3.501  17.935  0.00  0.00    +0.000 HD
ENDROOT
BRANCH   3   5
ATOM      5  C   UNL     1       6.449   5.432  18.335  0.00  0.00    +0.000 A 
ATOM      6  C   UNL     1       7.536   5.767  19.155  0.00  0.00    +0.000 A 
ATOM      7  C   UNL     1       8.292   6.918  18.914  0.00  0.00    +0.000 A 
ATOM      8  C   UNL     1       7.964   7.753  17.853  0.00  0.00    +0.000 A 
ATOM      9  C   UNL     1       6.897   7.417  17.016  0.00  0.00    +0.000 A 
ATOM     10  C   UNL     1       6.139   6.249  17.235  0.00  0.00    +0.000 A 
BRANCH  10  11
ATOM     11  C   UNL     1       4.967   5.997  16.319  0.00  0.00    +0.000 C 
ATOM     12  F   UNL     1       4.879   4.705  15.875  0.00  0.00    +0.000 F 
ATOM     13  F   UNL     1       3.773   6.262  16.917  0.00  0.00    +0.000 F 
ATOM     14  F   UNL     1       5.004   6.763  15.200  0.00  0.00    +0.000 F 
ENDBRANCH  10  11
ENDBRANCH   3   5
BRANCH   1  15
ATOM     15  C   UNL     1       3.903   2.879  19.558  0.00  0.00    +0.000 C 
BRANCH  15  17
ATOM     16  C   UNL     1       2.703   2.077  17.518  0.00  0.00    +0.000 C 
ATOM     17  N   UNL     1       2.645   2.691  18.835  0.00  0.00    +0.000 N 
ATOM     18  C   UNL     1       1.378   2.761  19.425  0.00  0.00    +0.000 C 
ATOM     19  O   UNL     1       0.368   2.378  18.836  0.00  0.00    +0.000 OA
BRANCH  18  20
ATOM     20  C   UNL     1       1.254   3.287  20.819  0.00  0.00    +0.000 C 
ATOM     21  C   UNL     1       1.070   2.318  21.970  0.00  0.00    +0.000 C 
ATOM     22  C   UNL     1       2.371   3.047  21.813  0.00  0.00    +0.000 C 
ENDBRANCH  18  20
ENDBRANCH  15  17
ENDBRANCH   1  15
TORSDOF 5
ENDMDL
