MODEL 1
REMARK VINA RESULT:      -7.3      0.000      0.000
REMARK  Name = 
REMARK  7 active torsions:
REMARK  status: ('A' for Active; 'I' for Inactive)
REMARK    1  A    between atoms: C_1  and  C_2
REMARK    2  A    between atoms: C_2  and  O_3
REMARK    3  A    between atoms: O_3  and  C_4
REMARK    4  A    between atoms: C_9  and  S_10
REMARK    5  A    between atoms: S_10  and  C_11
REMARK    6  A    between atoms: C_11  and  C_12
REMARK    7  A    between atoms: N_14  and  C_15
REMARK                            x       y       z     vdW  Elec       q    Type
REMARK                         _______ _______ _______ _____ _____    ______ ____
ROOT
ATOM      1  C   UNL     1       2.172   3.605  21.754  0.00  0.00    +0.000 C 
ENDROOT
BRANCH   1   2
ATOM      2  C   UNL     1       1.644   4.672  20.809  0.00  0.00    +0.000 C 
ATOM      3  O   UNL     1       0.608   4.478  20.177  0.00  0.00    +0.000 OA
ATOM      4  N   UNL     1       2.444   5.802  20.730  0.00  0.00    +0.000 N 
ATOM      5  H   UNL     1       3.375   5.717  21.140  0.00  0.00    +0.000 HD
BRANCH   4   6
ATOM      6  C   UNL     1       2.225   6.917  19.890  0.00  0.00    +0.000 A 
ATOM      7  C   UNL     1       2.727   6.989  18.576  0.00  0.00    +0.000 A 
ATOM      8  C   UNL     1       2.569   8.142  17.800  0.00  0.00    +0.000 A 
ATOM      9  C   UNL     1       1.905   9.205  18.362  0.00  0.00    +0.000 A 
ATOM     10  C   UNL     1       1.377   9.134  19.629  0.00  0.00    +0.000 A 
ATOM     11  C   UNL     1       1.501   8.001  20.409  0.00  0.00    +0.000 A 
ATOM     12  O   UNL     1       0.766  10.295  19.996  0.00  0.00    +0.000 OA
ATOM     13  C   UNL     1       1.051  11.124  18.848  0.00  0.00    +0.000 C 
ATOM     14  O   UNL     1       1.700  10.413  17.775  0.00  0.00    +0.000 OA
ENDBRANCH   4   6
ENDBRANCH   1   2
BRANCH   1  15
ATOM     15  S   UNL     1       2.624   2.105  20.835  0.00  0.00    +0.000 S 
BRANCH  15  21
ATOM     16  C   UNL     1       6.303   4.670  16.164  0.00  0.00    +0.000 A 
ATOM     17  C   UNL     1       6.826   5.224  17.329  0.00  0.00    +0.000 A 
ATOM     18  C   UNL     1       6.292   4.901  18.581  0.00  0.00    +0.000 A 
ATOM     19  C   UNL     1       5.209   4.010  18.668  0.00  0.00    +0.000 A 
ATOM     20  N   UNL     1       4.569   3.643  19.840  0.00  0.00    +0.000 NA
ATOM     21  C   UNL     1       3.619   2.780  19.564  0.00  0.00    +0.000 A 
ATOM     22  S   UNL     1       3.406   2.388  17.914  0.00  0.00    +0.000 S 
ATOM     23  C   UNL     1       4.700   3.448  17.497  0.00  0.00    +0.000 A 
ATOM     24  C   UNL     1       5.231   3.765  16.235  0.00  0.00    +0.000 A 
BRANCH  16  25
ATOM     25  O   UNL     1       6.754   4.929  14.895  0.00  0.00    +0.000 OA
BRANCH  25  27
ATOM     26  C   UNL     1       6.335   3.647  12.908  0.00  0.00    +0.000 C 
ATOM     27  C   UNL     1       5.815   4.727  13.837  0.00  0.00    +0.000 C 
ENDBRANCH  25  27
ENDBRANCH  16  25
ENDBRANCH  15  21
ENDBRANCH   1  15
TORSDOF 6
ENDMDL
MODEL 2
REMARK VINA RESULT:      -7.1      2.480      3.603
REMARK  Name = 
REMARK  7 active torsions:
REMARK  status: ('A' for Active; 'I' for Inactive)
REMARK    1  A    between atoms: C_1  and  C_2
REMARK    2  A    between atoms: C_2  and  O_3
REMARK    3  A    between atoms: O_3  and  C_4
REMARK    4  A    between atoms: C_9  and  S_10
REMARK    5  A    between atoms: S_10  and  C_11
REMARK    6  A    between atoms: C_11  and  C_12
REMARK    7  A    between atoms: N_14  and  C_15
REMARK                            x       y       z     vdW  Elec       q    Type
REMARK                         _______ _______ _______ _____ _____    ______ ____
ROOT
ATOM      1  C   UNL     1       2.847   2.925  18.780  0.00  0.00    +0.000 C 
ENDROOT
BRANCH   1   2
ATOM      2  C   UNL     1       2.192   4.291  18.655  0.00  0.00    +0.000 C 
ATOM      3  O   UNL     1       1.384   4.508  17.754  0.00  0.00    +0.000 OA
ATOM      4  N   UNL     1       2.619   5.210  19.602  0.00  0.00    +0.000 N 
ATOM      5  H   UNL     1       3.450   4.947  20.134  0.00  0.00    +0.000 HD
BRANCH   4   6
ATOM      6  C   UNL     1       2.224   6.564  19.683  0.00  0.00    +0.000 A 
ATOM      7  C   UNL     1       1.565   7.098  20.808  0.00  0.00    +0.000 A 
ATOM      8  C   UNL     1       1.107   8.419  20.823  0.00  0.00    +0.000 A 
ATOM      9  C   UNL     1       1.323   9.184  19.702  0.00  0.00    +0.000 A 
ATOM     10  C   UNL     1       1.999   8.687  18.613  0.00  0.00    +0.000 A 
ATOM     11  C   UNL     1       2.479   7.392  18.580  0.00  0.00    +0.000 A 
ATOM     12  O   UNL     1       2.101   9.603  17.610  0.00  0.00    +0.000 OA
ATOM     13  C   UNL     1       1.334  10.696  18.165  0.00  0.00    +0.000 C 
ATOM     14  O   UNL     1       0.911  10.466  19.523  0.00  0.00    +0.000 OA
ENDBRANCH   4   6
ENDBRANCH   1   2
BRANCH   1  15
ATOM     15  S   UNL     1       3.996   2.639  17.402  0.00  0.00    +0.000 S 
BRANCH  15  21
ATOM     16  C   UNL     1       7.779   7.869  17.923  0.00  0.00    +0.000 A 
ATOM     17  C   UNL     1       8.303   6.994  18.871  0.00  0.00    +0.000 A 
ATOM     18  C   UNL     1       7.749   5.723  19.060  0.00  0.00    +0.000 A 
ATOM     19  C   UNL     1       6.645   5.323  18.289  0.00  0.00    +0.000 A 
ATOM     20  N   UNL     1       5.985   4.111  18.409  0.00  0.00    +0.000 NA
ATOM     21  C   UNL     1       5.019   4.053  17.523  0.00  0.00    +0.000 A 
ATOM     22  S   UNL     1       4.813   5.432  16.534  0.00  0.00    +0.000 S 
ATOM     23  C   UNL     1       6.135   6.199  17.332  0.00  0.00    +0.000 A 
ATOM     24  C   UNL     1       6.685   7.477  17.134  0.00  0.00    +0.000 A 
BRANCH  16  25
ATOM     25  O   UNL     1       8.248   9.132  17.670  0.00  0.00    +0.000 OA
BRANCH  25  27
ATOM     26  C   UNL     1       9.675  10.981  18.232  0.00  0.00    +0.000 C 
ATOM     27  C   UNL     1       8.883   9.800  18.762  0.00  0.00    +0.000 C 
ENDBRANCH  25  27
ENDBRANCH  16  25
ENDBRANCH  15  21
ENDBRANCH   1  15
TORSDOF 6
ENDMDL
MODEL 3
REMARK VINA RESULT:      -6.9      5.889      7.261
REMARK  Name = 
REMARK  7 active torsions:
REMARK  status: ('A' for Active; 'I' for Inactive)
REMARK    1  A    between atoms: C_1  and  C_2
REMARK    2  A    between atoms: C_2  and  O_3
REMARK    3  A    between atoms: O_3  and  C_4
REMARK    4  A    between atoms: C_9  and  S_10
REMARK    5  A    between atoms: S_10  and  C_11
REMARK    6  A    between atoms: C_11  and  C_12
REMARK    7  A    between atoms: N_14  and  C_15
REMARK                            x       y       z     vdW  Elec       q    Type
REMARK                         _______ _______ _______ _____ _____    ______ ____
ROOT
ATOM      1  C   UNL     1       7.142   7.875  17.334  0.00  0.00    +0.000 C 
ENDROOT
BRANCH   1   2
ATOM      2  C   UNL     1       8.162   8.704  18.098  0.00  0.00    +0.000 C 
ATOM      3  O   UNL     1       8.793   8.204  19.027  0.00  0.00    +0.000 OA
ATOM      4  N   UNL     1       8.259  10.019  17.666  0.00  0.00    +0.000 N 
ATOM      5  H   UNL     1       7.516  10.337  17.042  0.00  0.00    +0.000 HD
BRANCH   4   6
ATOM      6  C   UNL     1       9.078  11.021  18.232  0.00  0.00    +0.000 A 
ATOM      7  C   UNL     1       9.961  10.768  19.300  0.00  0.00    +0.000 A 
ATOM      8  C   UNL     1      10.693  11.800  19.898  0.00  0.00    +0.000 A 
ATOM      9  C   UNL     1      10.525  13.071  19.406  0.00  0.00    +0.000 A 
ATOM     10  C   UNL     1       9.697  13.325  18.338  0.00  0.00    +0.000 A 
ATOM     11  C   UNL     1       8.978  12.322  17.717  0.00  0.00    +0.000 A 
ATOM     12  O   UNL     1       9.670  14.648  18.012  0.00  0.00    +0.000 OA
ATOM     13  C   UNL     1      10.507  15.198  19.054  0.00  0.00    +0.000 C 
ATOM     14  O   UNL     1      11.117  14.194  19.888  0.00  0.00    +0.000 OA
ENDBRANCH   4   6
ENDBRANCH   1   2
BRANCH   1  15
ATOM     15  S   UNL     1       7.295   6.118  17.767  0.00  0.00    +0.000 S 
BRANCH  15  21
ATOM     16  C   UNL     1       5.694   3.386  12.118  0.00  0.00    +0.000 A 
ATOM     17  C   UNL     1       6.863   4.081  11.822  0.00  0.00    +0.000 A 
ATOM     18  C   UNL     1       7.534   4.812  12.808  0.00  0.00    +0.000 A 
ATOM     19  C   UNL     1       7.022   4.851  14.116  0.00  0.00    +0.000 A 
ATOM     20  N   UNL     1       7.571   5.567  15.167  0.00  0.00    +0.000 NA
ATOM     21  C   UNL     1       6.858   5.363  16.250  0.00  0.00    +0.000 A 
ATOM     22  S   UNL     1       5.489   4.353  16.078  0.00  0.00    +0.000 S 
ATOM     23  C   UNL     1       5.858   4.140  14.409  0.00  0.00    +0.000 A 
ATOM     24  C   UNL     1       5.178   3.402  13.425  0.00  0.00    +0.000 A 
BRANCH  16  25
ATOM     25  O   UNL     1       4.964   2.650  11.221  0.00  0.00    +0.000 OA
BRANCH  25  27
ATOM     26  C   UNL     1       3.371   4.003  10.038  0.00  0.00    +0.000 C 
ATOM     27  C   UNL     1       3.573   2.966  11.126  0.00  0.00    +0.000 C 
ENDBRANCH  25  27
ENDBRANCH  16  25
ENDBRANCH  15  21
ENDBRANCH   1  15
TORSDOF 6
ENDMDL
MODEL 4
REMARK VINA RESULT:      -6.8      1.039      1.104
REMARK  Name = 
REMARK  7 active torsions:
REMARK  status: ('A' for Active; 'I' for Inactive)
REMARK    1  A    between atoms: C_1  and  C_2
REMARK    2  A    between atoms: C_2  and  O_3
REMARK    3  A    between atoms: O_3  and  C_4
REMARK    4  A    between atoms: C_9  and  S_10
REMARK    5  A    between atoms: S_10  and  C_11
REMARK    6  A    between atoms: C_11  and  C_12
REMARK    7  A    between atoms: N_14  and  C_15
REMARK                            x       y       z     vdW  Elec       q    Type
REMARK                         _______ _______ _______ _____ _____    ______ ____
ROOT
ATOM      1  C   UNL     1       2.367   4.130  21.465  0.00  0.00    +0.000 C 
ENDROOT
BRANCH   1   2
ATOM      2  C   UNL     1       1.604   5.237  20.756  0.00  0.00    +0.000 C 
ATOM      3  O   UNL     1       0.509   5.004  20.248  0.00  0.00    +0.000 OA
ATOM      4  N   UNL     1       2.271   6.453  20.727  0.00  0.00    +0.000 N 
ATOM      5  H   UNL     1       3.256   6.427  20.993  0.00  0.00    +0.000 HD
BRANCH   4   6
ATOM      6  C   UNL     1       1.823   7.631  20.086  0.00  0.00    +0.000 A 
ATOM      7  C   UNL     1       2.131   7.929  18.744  0.00  0.00    +0.000 A 
ATOM      8  C   UNL     1       1.749   9.143  18.164  0.00  0.00    +0.000 A 
ATOM      9  C   UNL     1       1.059  10.037  18.946  0.00  0.00    +0.000 A 
ATOM     10  C   UNL     1       0.718   9.741  20.245  0.00  0.00    +0.000 A 
ATOM     11  C   UNL     1       1.066   8.542  20.836  0.00  0.00    +0.000 A 
ATOM     12  O   UNL     1       0.043  10.762  20.844  0.00  0.00    +0.000 OA
ATOM     13  C   UNL     1       0.080  11.759  19.799  0.00  0.00    +0.000 C 
ATOM     14  O   UNL     1       0.649  11.275  18.566  0.00  0.00    +0.000 OA
ENDBRANCH   4   6
ENDBRANCH   1   2
BRANCH   1  15
ATOM     15  S   UNL     1       2.533   2.677  20.388  0.00  0.00    +0.000 S 
BRANCH  15  21
ATOM     16  C   UNL     1       5.922   5.220  15.491  0.00  0.00    +0.000 A 
ATOM     17  C   UNL     1       5.800   6.280  16.385  0.00  0.00    +0.000 A 
ATOM     18  C   UNL     1       5.122   6.122  17.598  0.00  0.00    +0.000 A 
ATOM     19  C   UNL     1       4.551   4.879  17.921  0.00  0.00    +0.000 A 
ATOM     20  N   UNL     1       3.824   4.609  19.069  0.00  0.00    +0.000 NA
ATOM     21  C   UNL     1       3.460   3.348  19.065  0.00  0.00    +0.000 A 
ATOM     22  S   UNL     1       3.918   2.431  17.697  0.00  0.00    +0.000 S 
ATOM     23  C   UNL     1       4.691   3.818  17.027  0.00  0.00    +0.000 A 
ATOM     24  C   UNL     1       5.371   3.967  15.806  0.00  0.00    +0.000 A 
BRANCH  16  25
ATOM     25  O   UNL     1       6.561   5.279  14.279  0.00  0.00    +0.000 OA
BRANCH  25  27
ATOM     26  C   UNL     1       6.583   4.145  12.162  0.00  0.00    +0.000 C 
ATOM     27  C   UNL     1       6.842   4.026  13.651  0.00  0.00    +0.000 C 
ENDBRANCH  25  27
ENDBRANCH  16  25
ENDBRANCH  15  21
ENDBRANCH   1  15
TORSDOF 6
ENDMDL
MODEL 5
REMARK VINA RESULT:      -6.8      6.204      7.986
REMARK  Name = 
REMARK  7 active torsions:
REMARK  status: ('A' for Active; 'I' for Inactive)
REMARK    1  A    between atoms: C_1  and  C_2
REMARK    2  A    between atoms: C_2  and  O_3
REMARK    3  A    between atoms: O_3  and  C_4
REMARK    4  A    between atoms: C_9  and  S_10
REMARK    5  A    between atoms: S_10  and  C_11
REMARK    6  A    between atoms: C_11  and  C_12
REMARK    7  A    between atoms: N_14  and  C_15
REMARK                            x       y       z     vdW  Elec       q    Type
REMARK                         _______ _______ _______ _____ _____    ______ ____
ROOT
ATOM      1  C   UNL     1       8.198   7.813  18.515  0.00  0.00    +0.000 C 
ENDROOT
BRANCH   1   2
ATOM      2  C   UNL     1       8.553   9.291  18.528  0.00  0.00    +0.000 C 
ATOM      3  O   UNL     1       8.129  10.035  17.647  0.00  0.00    +0.000 OA
ATOM      4  N   UNL     1       9.388   9.661  19.572  0.00  0.00    +0.000 N 
ATOM      5  H   UNL     1       9.828   8.895  20.082  0.00  0.00    +0.000 HD
BRANCH   4   6
ATOM      6  C   UNL     1       9.921  10.951  19.791  0.00  0.00    +0.000 A 
ATOM      7  C   UNL     1       9.606  11.721  20.928  0.00  0.00    +0.000 A 
ATOM      8  C   UNL     1      10.080  13.029  21.074  0.00  0.00    +0.000 A 
ATOM      9  C   UNL     1      10.867  13.540  20.071  0.00  0.00    +0.000 A 
ATOM     10  C   UNL     1      11.214  12.785  18.975  0.00  0.00    +0.000 A 
ATOM     11  C   UNL     1      10.777  11.485  18.816  0.00  0.00    +0.000 A 
ATOM     12  O   UNL     1      11.994  13.480  18.099  0.00  0.00    +0.000 OA
ATOM     13  C   UNL     1      12.018  14.779  18.733  0.00  0.00    +0.000 C 
ATOM     14  O   UNL     1      11.376  14.798  20.023  0.00  0.00    +0.000 OA
ENDBRANCH   4   6
ENDBRANCH   1   2
BRANCH   1  15
ATOM     15  S   UNL     1       7.462   7.347  16.921  0.00  0.00    +0.000 S 
BRANCH  15  21
ATOM     16  C   UNL     1       2.627   3.523  18.905  0.00  0.00    +0.000 A 
ATOM     17  C   UNL     1       1.975   4.683  18.493  0.00  0.00    +0.000 A 
ATOM     18  C   UNL     1       2.694   5.768  17.981  0.00  0.00    +0.000 A 
ATOM     19  C   UNL     1       4.094   5.693  17.884  0.00  0.00    +0.000 A 
ATOM     20  N   UNL     1       4.918   6.711  17.432  0.00  0.00    +0.000 NA
ATOM     21  C   UNL     1       6.164   6.299  17.447  0.00  0.00    +0.000 A 
ATOM     22  S   UNL     1       6.432   4.714  18.029  0.00  0.00    +0.000 S 
ATOM     23  C   UNL     1       4.738   4.523  18.284  0.00  0.00    +0.000 A 
ATOM     24  C   UNL     1       4.024   3.427  18.799  0.00  0.00    +0.000 A 
BRANCH  16  25
ATOM     25  O   UNL     1       2.011   2.414  19.424  0.00  0.00    +0.000 OA
BRANCH  25  27
ATOM     26  C   UNL     1       1.945   2.886  21.778  0.00  0.00    +0.000 C 
ATOM     27  C   UNL     1       1.128   2.638  20.525  0.00  0.00    +0.000 C 
ENDBRANCH  25  27
ENDBRANCH  16  25
ENDBRANCH  15  21
ENDBRANCH   1  15
TORSDOF 6
ENDMDL
MODEL 6
REMARK VINA RESULT:      -6.8      1.063      1.679
REMARK  Name = 
REMARK  7 active torsions:
REMARK  status: ('A' for Active; 'I' for Inactive)
REMARK    1  A    between atoms: C_1  and  C_2
REMARK    2  A    between atoms: C_2  and  O_3
REMARK    3  A    between atoms: O_3  and  C_4
REMARK    4  A    between atoms: C_9  and  S_10
REMARK    5  A    between atoms: S_10  and  C_11
REMARK    6  A    between atoms: C_11  and  C_12
REMARK    7  A    between atoms: N_14  and  C_15
REMARK                            x       y       z     vdW  Elec       q    Type
REMARK                         _______ _______ _______ _____ _____    ______ ____
ROOT
ATOM      1  C   UNL     1       2.417   3.897  21.285  0.00  0.00    +0.000 C 
ENDROOT
BRANCH   1   2
ATOM      2  C   UNL     1       1.517   5.043  20.853  0.00  0.00    +0.000 C 
ATOM      3  O   UNL     1       0.471   4.813  20.249  0.00  0.00    +0.000 OA
ATOM      4  N   UNL     1       2.010   6.300  21.174  0.00  0.00    +0.000 N 
ATOM      5  H   UNL     1       2.986   6.331  21.470  0.00  0.00    +0.000 HD
BRANCH   4   6
ATOM      6  C   UNL     1       1.413   7.536  20.841  0.00  0.00    +0.000 A 
ATOM      7  C   UNL     1       0.393   8.121  21.617  0.00  0.00    +0.000 A 
ATOM      8  C   UNL     1      -0.240   9.302  21.213  0.00  0.00    +0.000 A 
ATOM      9  C   UNL     1       0.169   9.877  20.035  0.00  0.00    +0.000 A 
ATOM     10  C   UNL     1       1.191   9.337  19.289  0.00  0.00    +0.000 A 
ATOM     11  C   UNL     1       1.845   8.183  19.674  0.00  0.00    +0.000 A 
ATOM     12  O   UNL     1       1.435  10.056  18.158  0.00  0.00    +0.000 OA
ATOM     13  C   UNL     1       0.392  11.052  18.241  0.00  0.00    +0.000 C 
ATOM     14  O   UNL     1      -0.359  10.993  19.470  0.00  0.00    +0.000 OA
ENDBRANCH   4   6
ENDBRANCH   1   2
BRANCH   1  15
ATOM     15  S   UNL     1       2.481   2.616  19.998  0.00  0.00    +0.000 S 
BRANCH  15  21
ATOM     16  C   UNL     1       6.941   5.155  16.049  0.00  0.00    +0.000 A 
ATOM     17  C   UNL     1       7.238   5.727  17.283  0.00  0.00    +0.000 A 
ATOM     18  C   UNL     1       6.484   5.414  18.420  0.00  0.00    +0.000 A 
ATOM     19  C   UNL     1       5.409   4.516  18.317  0.00  0.00    +0.000 A 
ATOM     20  N   UNL     1       4.567   4.158  19.357  0.00  0.00    +0.000 NA
ATOM     21  C   UNL     1       3.689   3.284  18.924  0.00  0.00    +0.000 A 
ATOM     22  S   UNL     1       3.785   2.871  17.268  0.00  0.00    +0.000 S 
ATOM     23  C   UNL     1       5.127   3.936  17.081  0.00  0.00    +0.000 A 
ATOM     24  C   UNL     1       5.879   4.243  15.934  0.00  0.00    +0.000 A 
BRANCH  16  25
ATOM     25  O   UNL     1       7.615   5.403  14.881  0.00  0.00    +0.000 OA
BRANCH  25  27
ATOM     26  C   UNL     1       7.820   5.327  12.489  0.00  0.00    +0.000 C 
ATOM     27  C   UNL     1       7.083   4.794  13.703  0.00  0.00    +0.000 C 
ENDBRANCH  25  27
ENDBRANCH  16  25
ENDBRANCH  15  21
ENDBRANCH   1  15
TORSDOF 6
ENDMDL
MODEL 7
REMARK VINA RESULT:      -6.7      3.067      5.423
REMARK  Name = 
REMARK  7 active torsions:
REMARK  status: ('A' for Active; 'I' for Inactive)
REMARK    1  A    between atoms: C_1  and  C_2
REMARK    2  A    between atoms: C_2  and  O_3
REMARK    3  A    between atoms: O_3  and  C_4
REMARK    4  A    between atoms: C_9  and  S_10
REMARK    5  A    between atoms: S_10  and  C_11
REMARK    6  A    between atoms: C_11  and  C_12
REMARK    7  A    between atoms: N_14  and  C_15
REMARK                            x       y       z     vdW  Elec       q    Type
REMARK                         _______ _______ _______ _____ _____    ______ ____
ROOT
ATOM      1  C   UNL     1       6.333   7.438  17.630  0.00  0.00    +0.000 C 
ENDROOT
BRANCH   1   2
ATOM      2  C   UNL     1       4.912   6.928  17.804  0.00  0.00    +0.000 C 
ATOM      3  O   UNL     1       3.983   7.478  17.217  0.00  0.00    +0.000 OA
ATOM      4  N   UNL     1       4.800   5.857  18.679  0.00  0.00    +0.000 N 
ATOM      5  H   UNL     1       5.622   5.664  19.252  0.00  0.00    +0.000 HD
BRANCH   4   6
ATOM      6  C   UNL     1       3.597   5.227  19.071  0.00  0.00    +0.000 A 
ATOM      7  C   UNL     1       2.915   5.563  20.257  0.00  0.00    +0.000 A 
ATOM      8  C   UNL     1       1.775   4.860  20.662  0.00  0.00    +0.000 A 
ATOM      9  C   UNL     1       1.339   3.832  19.863  0.00  0.00    +0.000 A 
ATOM     10  C   UNL     1       1.973   3.521  18.683  0.00  0.00    +0.000 A 
ATOM     11  C   UNL     1       3.088   4.211  18.250  0.00  0.00    +0.000 A 
ATOM     12  O   UNL     1       1.385   2.469  18.047  0.00  0.00    +0.000 OA
ATOM     13  C   UNL     1       0.369   2.106  19.009  0.00  0.00    +0.000 C 
ATOM     14  O   UNL     1       0.282   3.019  20.121  0.00  0.00    +0.000 OA
ENDBRANCH   4   6
ENDBRANCH   1   2
BRANCH   1  15
ATOM     15  S   UNL     1       7.505   6.052  17.561  0.00  0.00    +0.000 S 
BRANCH  15  21
ATOM     16  C   UNL     1       5.773   3.305  11.959  0.00  0.00    +0.000 A 
ATOM     17  C   UNL     1       6.888   4.066  11.616  0.00  0.00    +0.000 A 
ATOM     18  C   UNL     1       7.567   4.819  12.579  0.00  0.00    +0.000 A 
ATOM     19  C   UNL     1       7.119   4.815  13.910  0.00  0.00    +0.000 A 
ATOM     20  N   UNL     1       7.681   5.548  14.943  0.00  0.00    +0.000 NA
ATOM     21  C   UNL     1       7.035   5.293  16.057  0.00  0.00    +0.000 A 
ATOM     22  S   UNL     1       5.714   4.214  15.938  0.00  0.00    +0.000 S 
ATOM     23  C   UNL     1       6.011   4.040  14.249  0.00  0.00    +0.000 A 
ATOM     24  C   UNL     1       5.322   3.278  13.289  0.00  0.00    +0.000 A 
BRANCH  16  25
ATOM     25  O   UNL     1       5.040   2.542  11.087  0.00  0.00    +0.000 OA
BRANCH  25  27
ATOM     26  C   UNL     1       3.400   3.911   9.990  0.00  0.00    +0.000 C 
ATOM     27  C   UNL     1       3.641   2.826  11.021  0.00  0.00    +0.000 C 
ENDBRANCH  25  27
ENDBRANCH  16  25
ENDBRANCH  15  21
ENDBRANCH   1  15
TORSDOF 6
ENDMDL
MODEL 8
REMARK VINA RESULT:      -6.6      1.998      7.145
REMARK  Name = 
REMARK  7 active torsions:
REMARK  status: ('A' for Active; 'I' for Inactive)
REMARK    1  A    between atoms: C_1  and  C_2
REMARK    2  A    between atoms: C_2  and  O_3
REMARK    3  A    between atoms: O_3  and  C_4
REMARK    4  A    between atoms: C_9  and  S_10
REMARK    5  A    between atoms: S_10  and  C_11
REMARK    6  A    between atoms: C_11  and  C_12
REMARK    7  A    between atoms: N_14  and  C_15
REMARK                            x       y       z     vdW  Elec       q    Type
REMARK                         _______ _______ _______ _____ _____    ______ ____
ROOT
ATOM      1  C   UNL     1       2.200   3.643  19.563  0.00  0.00    +0.000 C 
ENDROOT
BRANCH   1   2
ATOM      2  C   UNL     1       3.562   3.638  18.887  0.00  0.00    +0.000 C 
ATOM      3  O   UNL     1       4.478   2.963  19.350  0.00  0.00    +0.000 OA
ATOM      4  N   UNL     1       3.643   4.465  17.776  0.00  0.00    +0.000 N 
ATOM      5  H   UNL     1       2.873   5.123  17.654  0.00  0.00    +0.000 HD
BRANCH   4   6
ATOM      6  C   UNL     1       4.799   4.698  16.997  0.00  0.00    +0.000 A 
ATOM      7  C   UNL     1       5.826   5.573  17.403  0.00  0.00    +0.000 A 
ATOM      8  C   UNL     1       6.915   5.851  16.570  0.00  0.00    +0.000 A 
ATOM      9  C   UNL     1       6.954   5.239  15.342  0.00  0.00    +0.000 A 
ATOM     10  C   UNL     1       5.979   4.353  14.950  0.00  0.00    +0.000 A 
ATOM     11  C   UNL     1       4.903   4.046  15.760  0.00  0.00    +0.000 A 
ATOM     12  O   UNL     1       6.202   3.864  13.697  0.00  0.00    +0.000 OA
ATOM     13  C   UNL     1       7.379   4.614  13.322  0.00  0.00    +0.000 C 
ATOM     14  O   UNL     1       7.906   5.424  14.391  0.00  0.00    +0.000 OA
ENDBRANCH   4   6
ENDBRANCH   1   2
BRANCH   1  15
ATOM     15  S   UNL     1       2.249   4.621  21.092  0.00  0.00    +0.000 S 
BRANCH  15  21
ATOM     16  C   UNL     1       1.230  10.577  18.763  0.00  0.00    +0.000 A 
ATOM     17  C   UNL     1       1.982   9.963  17.765  0.00  0.00    +0.000 A 
ATOM     18  C   UNL     1       2.403   8.635  17.896  0.00  0.00    +0.000 A 
ATOM     19  C   UNL     1       2.069   7.910  19.052  0.00  0.00    +0.000 A 
ATOM     20  N   UNL     1       2.458   6.607  19.316  0.00  0.00    +0.000 NA
ATOM     21  C   UNL     1       1.955   6.229  20.468  0.00  0.00    +0.000 A 
ATOM     22  S   UNL     1       1.035   7.396  21.314  0.00  0.00    +0.000 S 
ATOM     23  C   UNL     1       1.304   8.527  20.041  0.00  0.00    +0.000 A 
ATOM     24  C   UNL     1       0.876   9.860  19.918  0.00  0.00    +0.000 A 
BRANCH  16  25
ATOM     25  O   UNL     1       0.779  11.871  18.728  0.00  0.00    +0.000 OA
BRANCH  25  27
ATOM     26  C   UNL     1       0.667  14.103  19.608  0.00  0.00    +0.000 C 
ATOM     27  C   UNL     1       1.425  12.790  19.612  0.00  0.00    +0.000 C 
ENDBRANCH  25  27
ENDBRANCH  16  25
ENDBRANCH  15  21
ENDBRANCH   1  15
TORSDOF 6
ENDMDL
MODEL 9
REMARK VINA RESULT:      -6.4      5.436      7.455
REMARK  Name = 
REMARK  7 active torsions:
REMARK  status: ('A' for Active; 'I' for Inactive)
REMARK    1  A    between atoms: C_1  and  C_2
REMARK    2  A    between atoms: C_2  and  O_3
REMARK    3  A    between atoms: O_3  and  C_4
REMARK    4  A    between atoms: C_9  and  S_10
REMARK    5  A    between atoms: S_10  and  C_11
REMARK    6  A    between atoms: C_11  and  C_12
REMARK    7  A    between atoms: N_14  and  C_15
REMARK                            x       y       z     vdW  Elec       q    Type
REMARK                         _______ _______ _______ _____ _____    ______ ____
ROOT
ATOM      1  C   UNL     1       7.910   6.863  18.275  0.00  0.00    +0.000 C 
ENDROOT
BRANCH   1   2
ATOM      2  C   UNL     1       8.067   8.373  18.202  0.00  0.00    +0.000 C 
ATOM      3  O   UNL     1       7.444   9.019  17.362  0.00  0.00    +0.000 OA
ATOM      4  N   UNL     1       8.969   8.891  19.120  0.00  0.00    +0.000 N 
ATOM      5  H   UNL     1       9.565   8.210  19.591  0.00  0.00    +0.000 HD
BRANCH   4   6
ATOM      6  C   UNL     1       9.351  10.247  19.234  0.00  0.00    +0.000 A 
ATOM      7  C   UNL     1       9.258  10.964  20.443  0.00  0.00    +0.000 A 
ATOM      8  C   UNL     1       9.561  12.329  20.503  0.00  0.00    +0.000 A 
ATOM      9  C   UNL     1       9.957  12.948  19.343  0.00  0.00    +0.000 A 
ATOM     10  C   UNL     1      10.090  12.250  18.166  0.00  0.00    +0.000 A 
ATOM     11  C   UNL     1       9.817  10.899  18.083  0.00  0.00    +0.000 A 
ATOM     12  O   UNL     1      10.488  13.051  17.137  0.00  0.00    +0.000 OA
ATOM     13  C   UNL     1      10.501  14.340  17.789  0.00  0.00    +0.000 C 
ATOM     14  O   UNL     1      10.246  14.268  19.206  0.00  0.00    +0.000 OA
ENDBRANCH   4   6
ENDBRANCH   1   2
BRANCH   1  15
ATOM     15  S   UNL     1       7.044   6.240  16.804  0.00  0.00    +0.000 S 
BRANCH  15  21
ATOM     16  C   UNL     1       1.736   3.627  19.438  0.00  0.00    +0.000 A 
ATOM     17  C   UNL     1       1.747   3.107  18.147  0.00  0.00    +0.000 A 
ATOM     18  C   UNL     1       2.765   3.438  17.247  0.00  0.00    +0.000 A 
ATOM     19  C   UNL     1       3.791   4.311  17.646  0.00  0.00    +0.000 A 
ATOM     20  N   UNL     1       4.829   4.745  16.839  0.00  0.00    +0.000 NA
ATOM     21  C   UNL     1       5.620   5.530  17.532  0.00  0.00    +0.000 A 
ATOM     22  S   UNL     1       5.162   5.828  19.152  0.00  0.00    +0.000 S 
ATOM     23  C   UNL     1       3.782   4.817  18.946  0.00  0.00    +0.000 A 
ATOM     24  C   UNL     1       2.763   4.489  19.858  0.00  0.00    +0.000 A 
BRANCH  16  25
ATOM     25  O   UNL     1       0.780   3.367  20.386  0.00  0.00    +0.000 OA
BRANCH  25  27
ATOM     26  C   UNL     1       2.461   2.082  21.524  0.00  0.00    +0.000 C 
ATOM     27  C   UNL     1       1.259   2.994  21.680  0.00  0.00    +0.000 C 
ENDBRANCH  25  27
ENDBRANCH  16  25
ENDBRANCH  15  21
ENDBRANCH   1  15
TORSDOF 6
ENDMDL
