MODEL 1
REMARK VINA RESULT:      -8.2      0.000      0.000
REMARK  Name = 
REMARK  9 active torsions:
REMARK  status: ('A' for Active; 'I' for Inactive)
REMARK    1  A    between atoms: C_1  and  O_2
REMARK    2  A    between atoms: O_2  and  C_3
REMARK    3  A    between atoms: C_6  and  C_7
REMARK    4  A    between atoms: C_7  and  C_8
REMARK    5  A    between atoms: C_18  and  C_19
REMARK    6  A    between atoms: C_19  and  C_20
REMARK    7  A    between atoms: C_19  and  C_21
REMARK    8  A    between atoms: C_25  and  O_26
REMARK    9  A    between atoms: O_26  and  C_27
REMARK                            x       y       z     vdW  Elec       q    Type
REMARK                         _______ _______ _______ _____ _____    ______ ____
ROOT
ATOM      1  C   UNL     1       2.570   4.471  18.188  0.00  0.00    +0.000 C 
ATOM      2  N   UNL     1       2.930   3.727  19.468  0.00  0.00    +0.000 NA
ATOM      3  C   UNL     1       2.071   4.001  20.618  0.00  0.00    +0.000 C 
ATOM      4  C   UNL     1       2.274   5.423  21.103  0.00  0.00    +0.000 C 
ATOM      5  C   UNL     1       2.116   6.335  19.955  0.00  0.00    +0.000 A 
ATOM      6  C   UNL     1       2.428   5.978  18.633  0.00  0.00    +0.000 A 
ATOM      7  N   UNL     1       2.286   7.180  17.934  0.00  0.00    +0.000 N 
ATOM      8  C   UNL     1       1.827   8.216  18.790  0.00  0.00    +0.000 A 
ATOM      9  C   UNL     1       1.597   9.598  18.639  0.00  0.00    +0.000 A 
ATOM     10  C   UNL     1       1.041  10.340  19.740  0.00  0.00    +0.000 A 
ATOM     11  C   UNL     1       0.647   9.744  20.949  0.00  0.00    +0.000 A 
ATOM     12  C   UNL     1       0.944   8.378  21.060  0.00  0.00    +0.000 A 
ATOM     13  C   UNL     1       1.575   7.637  20.020  0.00  0.00    +0.000 A 
ATOM     14  H   UNL     1       3.876   4.034  19.711  0.00  0.00    +0.000 HD
ATOM     15  H   UNL     1       2.444   7.310  16.943  0.00  0.00    +0.000 HD
ENDROOT
BRANCH  11  16
ATOM     16  C   UNL     1       0.094  10.501  22.176  0.00  0.00    +0.000 C 
ATOM     17  C   UNL     1      -0.999  11.550  21.909  0.00  0.00    +0.000 C 
ATOM     18  C   UNL     1      -0.430   9.605  23.324  0.00  0.00    +0.000 C 
ENDBRANCH  11  16
BRANCH   1  19
ATOM     19  C   UNL     1       3.660   3.795  17.244  0.00  0.00    +0.000 C 
BRANCH  19  23
ATOM     20  C   UNL     1       7.048   5.085  14.705  0.00  0.00    +0.000 A 
ATOM     21  C   UNL     1       6.104   4.155  14.275  0.00  0.00    +0.000 A 
ATOM     22  C   UNL     1       5.038   3.778  15.127  0.00  0.00    +0.000 A 
ATOM     23  C   UNL     1       4.881   4.319  16.446  0.00  0.00    +0.000 A 
ATOM     24  C   UNL     1       5.839   5.258  16.874  0.00  0.00    +0.000 A 
ATOM     25  C   UNL     1       6.913   5.615  16.017  0.00  0.00    +0.000 A 
BRANCH  20  27
ATOM     26  C   UNL     1       8.023   5.427  12.521  0.00  0.00    +0.000 C 
ATOM     27  O   UNL     1       8.128   5.443  13.947  0.00  0.00    +0.000 OA
ENDBRANCH  20  27
BRANCH  25  28
ATOM     28  O   UNL     1       7.736   6.538  16.625  0.00  0.00    +0.000 OA
ATOM     29  C   UNL     1       7.163   7.530  17.482  0.00  0.00    +0.000 C 
ENDBRANCH  25  28
ENDBRANCH  19  23
ENDBRANCH   1  19
TORSDOF 5
ENDMDL
MODEL 2
REMARK VINA RESULT:      -8.0      3.092      8.352
REMARK  Name = 
REMARK  9 active torsions:
REMARK  status: ('A' for Active; 'I' for Inactive)
REMARK    1  A    between atoms: C_1  and  O_2
REMARK    2  A    between atoms: O_2  and  C_3
REMARK    3  A    between atoms: C_6  and  C_7
REMARK    4  A    between atoms: C_7  and  C_8
REMARK    5  A    between atoms: C_18  and  C_19
REMARK    6  A    between atoms: C_19  and  C_20
REMARK    7  A    between atoms: C_19  and  C_21
REMARK    8  A    between atoms: C_25  and  O_26
REMARK    9  A    between atoms: O_26  and  C_27
REMARK                            x       y       z     vdW  Elec       q    Type
REMARK                         _______ _______ _______ _____ _____    ______ ____
ROOT
ATOM      1  C   UNL     1       2.634   5.136  19.918  0.00  0.00    +0.000 C 
ATOM      2  N   UNL     1       1.417   4.343  19.457  0.00  0.00    +0.000 NA
ATOM      3  C   UNL     1       1.702   3.201  18.590  0.00  0.00    +0.000 C 
ATOM      4  C   UNL     1       2.204   3.674  17.240  0.00  0.00    +0.000 C 
ATOM      5  C   UNL     1       3.326   4.605  17.460  0.00  0.00    +0.000 A 
ATOM      6  C   UNL     1       3.442   5.425  18.595  0.00  0.00    +0.000 A 
ATOM      7  N   UNL     1       4.540   6.236  18.293  0.00  0.00    +0.000 N 
ATOM      8  C   UNL     1       5.120   5.868  17.050  0.00  0.00    +0.000 A 
ATOM      9  C   UNL     1       6.160   6.382  16.251  0.00  0.00    +0.000 A 
ATOM     10  C   UNL     1       6.532   5.680  15.049  0.00  0.00    +0.000 A 
ATOM     11  C   UNL     1       5.955   4.461  14.660  0.00  0.00    +0.000 A 
ATOM     12  C   UNL     1       4.894   4.024  15.466  0.00  0.00    +0.000 A 
ATOM     13  C   UNL     1       4.446   4.744  16.612  0.00  0.00    +0.000 A 
ATOM     14  H   UNL     1       0.845   5.001  18.921  0.00  0.00    +0.000 HD
ATOM     15  H   UNL     1       4.915   6.967  18.884  0.00  0.00    +0.000 HD
ENDROOT
BRANCH  11  16
ATOM     16  C   UNL     1       6.282   3.696  13.358  0.00  0.00    +0.000 C 
ATOM     17  C   UNL     1       5.095   3.334  12.449  0.00  0.00    +0.000 C 
ATOM     18  C   UNL     1       7.342   4.363  12.450  0.00  0.00    +0.000 C 
ENDBRANCH  11  16
BRANCH   1  19
ATOM     19  C   UNL     1       1.867   6.152  20.875  0.00  0.00    +0.000 C 
BRANCH  19  23
ATOM     20  C   UNL     1       0.824  10.410  20.271  0.00  0.00    +0.000 A 
ATOM     21  C   UNL     1       1.229   9.584  19.224  0.00  0.00    +0.000 A 
ATOM     22  C   UNL     1       1.550   8.228  19.472  0.00  0.00    +0.000 A 
ATOM     23  C   UNL     1       1.479   7.649  20.783  0.00  0.00    +0.000 A 
ATOM     24  C   UNL     1       1.069   8.489  21.835  0.00  0.00    +0.000 A 
ATOM     25  C   UNL     1       0.767   9.853  21.577  0.00  0.00    +0.000 A 
BRANCH  20  27
ATOM     26  C   UNL     1      -0.699  12.138  19.543  0.00  0.00    +0.000 C 
ATOM     27  O   UNL     1       0.557  11.740  20.099  0.00  0.00    +0.000 OA
ENDBRANCH  20  27
BRANCH  25  28
ATOM     28  O   UNL     1       0.394  10.497  22.736  0.00  0.00    +0.000 OA
ATOM     29  C   UNL     1      -0.996  10.684  23.018  0.00  0.00    +0.000 C 
ENDBRANCH  25  28
ENDBRANCH  19  23
ENDBRANCH   1  19
TORSDOF 5
ENDMDL
MODEL 3
REMARK VINA RESULT:      -7.8      1.721      3.754
REMARK  Name = 
REMARK  9 active torsions:
REMARK  status: ('A' for Active; 'I' for Inactive)
REMARK    1  A    between atoms: C_1  and  O_2
REMARK    2  A    between atoms: O_2  and  C_3
REMARK    3  A    between atoms: C_6  and  C_7
REMARK    4  A    between atoms: C_7  and  C_8
REMARK    5  A    between atoms: C_18  and  C_19
REMARK    6  A    between atoms: C_19  and  C_20
REMARK    7  A    between atoms: C_19  and  C_21
REMARK    8  A    between atoms: C_25  and  O_26
REMARK    9  A    between atoms: O_26  and  C_27
REMARK                            x       y       z     vdW  Elec       q    Type
REMARK                         _______ _______ _______ _____ _____    ______ ____
ROOT
ATOM      1  C   UNL     1       2.253   8.141  19.261  0.00  0.00    +0.000 C 
ATOM      2  N   UNL     1       1.781   8.485  17.854  0.00  0.00    +0.000 NA
ATOM      3  C   UNL     1       1.381   9.876  17.647  0.00  0.00    +0.000 C 
ATOM      4  C   UNL     1       0.105  10.177  18.408  0.00  0.00    +0.000 C 
ATOM      5  C   UNL     1       0.290   9.768  19.812  0.00  0.00    +0.000 A 
ATOM      6  C   UNL     1       1.126   8.710  20.207  0.00  0.00    +0.000 A 
ATOM      7  N   UNL     1       0.858   8.583  21.573  0.00  0.00    +0.000 N 
ATOM      8  C   UNL     1      -0.052   9.582  22.009  0.00  0.00    +0.000 A 
ATOM      9  C   UNL     1      -0.706   9.864  23.225  0.00  0.00    +0.000 A 
ATOM     10  C   UNL     1      -1.527  11.044  23.321  0.00  0.00    +0.000 A 
ATOM     11  C   UNL     1      -1.659  11.976  22.280  0.00  0.00    +0.000 A 
ATOM     12  C   UNL     1      -1.026  11.619  21.081  0.00  0.00    +0.000 A 
ATOM     13  C   UNL     1      -0.280  10.414  20.929  0.00  0.00    +0.000 A 
ATOM     14  H   UNL     1       0.958   7.900  17.687  0.00  0.00    +0.000 HD
ATOM     15  H   UNL     1       1.276   7.904  22.196  0.00  0.00    +0.000 HD
ENDROOT
BRANCH  11  16
ATOM     16  C   UNL     1      -2.564  13.228  22.315  0.00  0.00    +0.000 C 
ATOM     17  C   UNL     1      -2.657  14.053  21.021  0.00  0.00    +0.000 C 
ATOM     18  C   UNL     1      -4.018  12.978  22.781  0.00  0.00    +0.000 C 
ENDBRANCH  11  16
BRANCH   1  19
ATOM     19  C   UNL     1       2.663   6.628  18.977  0.00  0.00    +0.000 C 
BRANCH  19  23
ATOM     20  C   UNL     1       5.363   4.377  16.288  0.00  0.00    +0.000 A 
ATOM     21  C   UNL     1       4.169   3.842  16.766  0.00  0.00    +0.000 A 
ATOM     22  C   UNL     1       3.341   4.606  17.623  0.00  0.00    +0.000 A 
ATOM     23  C   UNL     1       3.682   5.937  18.036  0.00  0.00    +0.000 A 
ATOM     24  C   UNL     1       4.890   6.471  17.549  0.00  0.00    +0.000 A 
ATOM     25  C   UNL     1       5.721   5.689  16.704  0.00  0.00    +0.000 A 
BRANCH  20  27
ATOM     26  C   UNL     1       6.234   3.879  14.090  0.00  0.00    +0.000 C 
ATOM     27  O   UNL     1       6.228   3.665  15.505  0.00  0.00    +0.000 OA
ENDBRANCH  20  27
BRANCH  25  28
ATOM     28  O   UNL     1       6.851   6.390  16.346  0.00  0.00    +0.000 OA
ATOM     29  C   UNL     1       7.541   7.160  17.336  0.00  0.00    +0.000 C 
ENDBRANCH  25  28
ENDBRANCH  19  23
ENDBRANCH   1  19
TORSDOF 5
ENDMDL
MODEL 4
REMARK VINA RESULT:      -7.7      0.990      1.196
REMARK  Name = 
REMARK  9 active torsions:
REMARK  status: ('A' for Active; 'I' for Inactive)
REMARK    1  A    between atoms: C_1  and  O_2
REMARK    2  A    between atoms: O_2  and  C_3
REMARK    3  A    between atoms: C_6  and  C_7
REMARK    4  A    between atoms: C_7  and  C_8
REMARK    5  A    between atoms: C_18  and  C_19
REMARK    6  A    between atoms: C_19  and  C_20
REMARK    7  A    between atoms: C_19  and  C_21
REMARK    8  A    between atoms: C_25  and  O_26
REMARK    9  A    between atoms: O_26  and  C_27
REMARK                            x       y       z     vdW  Elec       q    Type
REMARK                         _______ _______ _______ _____ _____    ______ ____
ROOT
ATOM      1  C   UNL     1       2.470   5.233  18.251  0.00  0.00    +0.000 C 
ATOM      2  N   UNL     1       2.568   4.622  19.644  0.00  0.00    +0.000 NA
ATOM      3  C   UNL     1       1.572   5.089  20.607  0.00  0.00    +0.000 C 
ATOM      4  C   UNL     1       1.824   6.541  20.965  0.00  0.00    +0.000 C 
ATOM      5  C   UNL     1       1.921   7.320  19.717  0.00  0.00    +0.000 A 
ATOM      6  C   UNL     1       2.396   6.788  18.506  0.00  0.00    +0.000 A 
ATOM      7  N   UNL     1       2.467   7.906  17.671  0.00  0.00    +0.000 N 
ATOM      8  C   UNL     1       1.977   9.066  18.328  0.00  0.00    +0.000 A 
ATOM      9  C   UNL     1       1.895  10.433  17.997  0.00  0.00    +0.000 A 
ATOM     10  C   UNL     1       1.247  11.337  18.912  0.00  0.00    +0.000 A 
ATOM     11  C   UNL     1       0.625  10.918  20.098  0.00  0.00    +0.000 A 
ATOM     12  C   UNL     1       0.781   9.557  20.399  0.00  0.00    +0.000 A 
ATOM     13  C   UNL     1       1.493   8.655  19.556  0.00  0.00    +0.000 A 
ATOM     14  H   UNL     1       3.489   4.889  20.000  0.00  0.00    +0.000 HD
ATOM     15  H   UNL     1       2.783   7.907  16.710  0.00  0.00    +0.000 HD
ENDROOT
BRANCH  11  16
ATOM     16  C   UNL     1      -0.038  11.851  21.135  0.00  0.00    +0.000 C 
ATOM     17  C   UNL     1       0.554  13.264  21.274  0.00  0.00    +0.000 C 
ATOM     18  C   UNL     1      -1.567  12.030  20.979  0.00  0.00    +0.000 C 
ENDBRANCH  11  16
BRANCH   1  19
ATOM     19  C   UNL     1       3.627   4.376  17.569  0.00  0.00    +0.000 C 
BRANCH  19  23
ATOM     20  C   UNL     1       7.022   5.106  14.827  0.00  0.00    +0.000 A 
ATOM     21  C   UNL     1       6.030   4.166  14.554  0.00  0.00    +0.000 A 
ATOM     22  C   UNL     1       4.965   3.973  15.465  0.00  0.00    +0.000 A 
ATOM     23  C   UNL     1       4.855   4.715  16.688  0.00  0.00    +0.000 A 
ATOM     24  C   UNL     1       5.861   5.662  16.957  0.00  0.00    +0.000 A 
ATOM     25  C   UNL     1       6.934   5.835  16.044  0.00  0.00    +0.000 A 
BRANCH  20  27
ATOM     26  C   UNL     1       7.921   5.303  12.593  0.00  0.00    +0.000 C 
ATOM     27  O   UNL     1       8.104   5.294  14.012  0.00  0.00    +0.000 OA
ENDBRANCH  20  27
BRANCH  25  28
ATOM     28  O   UNL     1       7.808   6.801  16.495  0.00  0.00    +0.000 OA
ATOM     29  C   UNL     1       7.412   7.655  17.572  0.00  0.00    +0.000 C 
ENDBRANCH  25  28
ENDBRANCH  19  23
ENDBRANCH   1  19
TORSDOF 5
ENDMDL
MODEL 5
REMARK VINA RESULT:      -7.5      2.161      3.611
REMARK  Name = 
REMARK  9 active torsions:
REMARK  status: ('A' for Active; 'I' for Inactive)
REMARK    1  A    between atoms: C_1  and  O_2
REMARK    2  A    between atoms: O_2  and  C_3
REMARK    3  A    between atoms: C_6  and  C_7
REMARK    4  A    between atoms: C_7  and  C_8
REMARK    5  A    between atoms: C_18  and  C_19
REMARK    6  A    between atoms: C_19  and  C_20
REMARK    7  A    between atoms: C_19  and  C_21
REMARK    8  A    between atoms: C_25  and  O_26
REMARK    9  A    between atoms: O_26  and  C_27
REMARK                            x       y       z     vdW  Elec       q    Type
REMARK                         _______ _______ _______ _____ _____    ______ ____
ROOT
ATOM      1  C   UNL     1       1.965   8.068  18.618  0.00  0.00    +0.000 C 
ATOM      2  N   UNL     1       2.408   7.496  19.959  0.00  0.00    +0.000 NA
ATOM      3  C   UNL     1       1.379   7.455  20.997  0.00  0.00    +0.000 C 
ATOM      4  C   UNL     1       1.023   8.861  21.442  0.00  0.00    +0.000 C 
ATOM      5  C   UNL     1       0.696   9.661  20.248  0.00  0.00    +0.000 A 
ATOM      6  C   UNL     1       1.263   9.433  18.983  0.00  0.00    +0.000 A 
ATOM      7  N   UNL     1       0.799  10.512  18.225  0.00  0.00    +0.000 N 
ATOM      8  C   UNL     1      -0.085  11.325  18.983  0.00  0.00    +0.000 A 
ATOM      9  C   UNL     1      -0.757  12.542  18.752  0.00  0.00    +0.000 A 
ATOM     10  C   UNL     1      -1.658  13.046  19.755  0.00  0.00    +0.000 A 
ATOM     11  C   UNL     1      -1.961  12.351  20.937  0.00  0.00    +0.000 A 
ATOM     12  C   UNL     1      -1.227  11.172  21.135  0.00  0.00    +0.000 A 
ATOM     13  C   UNL     1      -0.263  10.695  20.200  0.00  0.00    +0.000 A 
ATOM     14  H   UNL     1       3.155   8.112  20.290  0.00  0.00    +0.000 HD
ATOM     15  H   UNL     1       1.017  10.688  17.253  0.00  0.00    +0.000 HD
ENDROOT
BRANCH  11  16
ATOM     16  C   UNL     1      -2.880  12.870  22.065  0.00  0.00    +0.000 C 
ATOM     17  C   UNL     1      -4.366  13.056  21.718  0.00  0.00    +0.000 C 
ATOM     18  C   UNL     1      -2.835  12.056  23.380  0.00  0.00    +0.000 C 
ENDBRANCH  11  16
BRANCH   1  19
ATOM     19  C   UNL     1       3.323   7.812  17.826  0.00  0.00    +0.000 C 
BRANCH  19  23
ATOM     20  C   UNL     1       5.384   4.485  15.760  0.00  0.00    +0.000 A 
ATOM     21  C   UNL     1       5.599   5.820  15.424  0.00  0.00    +0.000 A 
ATOM     22  C   UNL     1       4.915   6.847  16.119  0.00  0.00    +0.000 A 
ATOM     23  C   UNL     1       3.985   6.571  17.176  0.00  0.00    +0.000 A 
ATOM     24  C   UNL     1       3.773   5.220  17.509  0.00  0.00    +0.000 A 
ATOM     25  C   UNL     1       4.453   4.199  16.794  0.00  0.00    +0.000 A 
BRANCH  20  27
ATOM     26  C   UNL     1       6.319   3.617  13.708  0.00  0.00    +0.000 C 
ATOM     27  O   UNL     1       5.974   3.452  15.087  0.00  0.00    +0.000 OA
ENDBRANCH  20  27
BRANCH  25  28
ATOM     28  O   UNL     1       4.102   2.954  17.271  0.00  0.00    +0.000 OA
ATOM     29  C   UNL     1       3.332   2.855  18.473  0.00  0.00    +0.000 C 
ENDBRANCH  25  28
ENDBRANCH  19  23
ENDBRANCH   1  19
TORSDOF 5
ENDMDL
MODEL 6
REMARK VINA RESULT:      -7.5      2.986      4.864
REMARK  Name = 
REMARK  9 active torsions:
REMARK  status: ('A' for Active; 'I' for Inactive)
REMARK    1  A    between atoms: C_1  and  O_2
REMARK    2  A    between atoms: O_2  and  C_3
REMARK    3  A    between atoms: C_6  and  C_7
REMARK    4  A    between atoms: C_7  and  C_8
REMARK    5  A    between atoms: C_18  and  C_19
REMARK    6  A    between atoms: C_19  and  C_20
REMARK    7  A    between atoms: C_19  and  C_21
REMARK    8  A    between atoms: C_25  and  O_26
REMARK    9  A    between atoms: O_26  and  C_27
REMARK                            x       y       z     vdW  Elec       q    Type
REMARK                         _______ _______ _______ _____ _____    ______ ____
ROOT
ATOM      1  C   UNL     1       2.333   8.986  18.642  0.00  0.00    +0.000 C 
ATOM      2  N   UNL     1       2.124   9.954  17.484  0.00  0.00    +0.000 NA
ATOM      3  C   UNL     1       2.029  11.365  17.853  0.00  0.00    +0.000 C 
ATOM      4  C   UNL     1       0.745  11.626  18.617  0.00  0.00    +0.000 C 
ATOM      5  C   UNL     1       0.663  10.666  19.733  0.00  0.00    +0.000 A 
ATOM      6  C   UNL     1       1.221   9.378  19.690  0.00  0.00    +0.000 A 
ATOM      7  N   UNL     1       0.757   8.788  20.869  0.00  0.00    +0.000 N 
ATOM      8  C   UNL     1       0.006   9.713  21.641  0.00  0.00    +0.000 A 
ATOM      9  C   UNL     1      -0.737   9.636  22.836  0.00  0.00    +0.000 A 
ATOM     10  C   UNL     1      -1.322  10.835  23.376  0.00  0.00    +0.000 A 
ATOM     11  C   UNL     1      -1.135  12.106  22.809  0.00  0.00    +0.000 A 
ATOM     12  C   UNL     1      -0.429  12.115  21.597  0.00  0.00    +0.000 A 
ATOM     13  C   UNL     1       0.085  10.932  20.993  0.00  0.00    +0.000 A 
ATOM     14  H   UNL     1       1.234   9.687  17.056  0.00  0.00    +0.000 HD
ATOM     15  H   UNL     1       0.951   7.843  21.173  0.00  0.00    +0.000 HD
ENDROOT
BRANCH  11  16
ATOM     16  C   UNL     1      -1.780  13.413  23.320  0.00  0.00    +0.000 C 
ATOM     17  C   UNL     1      -1.810  14.600  22.343  0.00  0.00    +0.000 C 
ATOM     18  C   UNL     1      -3.217  13.267  23.876  0.00  0.00    +0.000 C 
ENDBRANCH  11  16
BRANCH   1  19
ATOM     19  C   UNL     1       2.480   7.657  17.775  0.00  0.00    +0.000 C 
BRANCH  19  23
ATOM     20  C   UNL     1       3.741   3.483  18.528  0.00  0.00    +0.000 A 
ATOM     21  C   UNL     1       2.413   3.831  18.296  0.00  0.00    +0.000 A 
ATOM     22  C   UNL     1       2.063   5.182  18.059  0.00  0.00    +0.000 A 
ATOM     23  C   UNL     1       3.036   6.237  18.049  0.00  0.00    +0.000 A 
ATOM     24  C   UNL     1       4.376   5.877  18.283  0.00  0.00    +0.000 A 
ATOM     25  C   UNL     1       4.712   4.521  18.537  0.00  0.00    +0.000 A 
BRANCH  20  27
ATOM     26  C   UNL     1       4.455   1.857  20.167  0.00  0.00    +0.000 C 
ATOM     27  O   UNL     1       4.128   2.204  18.818  0.00  0.00    +0.000 OA
ENDBRANCH  20  27
BRANCH  25  28
ATOM     28  O   UNL     1       6.067   4.386  18.746  0.00  0.00    +0.000 OA
ATOM     29  C   UNL     1       6.811   5.494  19.260  0.00  0.00    +0.000 C 
ENDBRANCH  25  28
ENDBRANCH  19  23
ENDBRANCH   1  19
TORSDOF 5
ENDMDL
MODEL 7
REMARK VINA RESULT:      -7.5      3.437      5.377
REMARK  Name = 
REMARK  9 active torsions:
REMARK  status: ('A' for Active; 'I' for Inactive)
REMARK    1  A    between atoms: C_1  and  O_2
REMARK    2  A    between atoms: O_2  and  C_3
REMARK    3  A    between atoms: C_6  and  C_7
REMARK    4  A    between atoms: C_7  and  C_8
REMARK    5  A    between atoms: C_18  and  C_19
REMARK    6  A    between atoms: C_19  and  C_20
REMARK    7  A    between atoms: C_19  and  C_21
REMARK    8  A    between atoms: C_25  and  O_26
REMARK    9  A    between atoms: O_26  and  C_27
REMARK                            x       y       z     vdW  Elec       q    Type
REMARK                         _______ _______ _______ _____ _____    ______ ____
ROOT
ATOM      1  C   UNL     1       2.278   9.006  18.668  0.00  0.00    +0.000 C 
ATOM      2  N   UNL     1       2.118   9.994  17.519  0.00  0.00    +0.000 NA
ATOM      3  C   UNL     1       2.073  11.404  17.903  0.00  0.00    +0.000 C 
ATOM      4  C   UNL     1       0.792  11.704  18.658  0.00  0.00    +0.000 C 
ATOM      5  C   UNL     1       0.662  10.736  19.762  0.00  0.00    +0.000 A 
ATOM      6  C   UNL     1       1.172   9.428  19.710  0.00  0.00    +0.000 A 
ATOM      7  N   UNL     1       0.673   8.844  20.877  0.00  0.00    +0.000 N 
ATOM      8  C   UNL     1      -0.050   9.789  21.653  0.00  0.00    +0.000 A 
ATOM      9  C   UNL     1      -0.807   9.726  22.839  0.00  0.00    +0.000 A 
ATOM     10  C   UNL     1      -1.351  10.941  23.388  0.00  0.00    +0.000 A 
ATOM     11  C   UNL     1      -1.111  12.210  22.837  0.00  0.00    +0.000 A 
ATOM     12  C   UNL     1      -0.393  12.206  21.632  0.00  0.00    +0.000 A 
ATOM     13  C   UNL     1       0.082  11.010  21.019  0.00  0.00    +0.000 A 
ATOM     14  H   UNL     1       1.222   9.766  17.080  0.00  0.00    +0.000 HD
ATOM     15  H   UNL     1       0.829   7.889  21.173  0.00  0.00    +0.000 HD
ENDROOT
BRANCH  11  16
ATOM     16  C   UNL     1      -1.711  13.535  23.356  0.00  0.00    +0.000 C 
ATOM     17  C   UNL     1      -0.840  14.795  23.212  0.00  0.00    +0.000 C 
ATOM     18  C   UNL     1      -3.104  13.897  22.787  0.00  0.00    +0.000 C 
ENDBRANCH  11  16
BRANCH   1  19
ATOM     19  C   UNL     1       2.383   7.683  17.788  0.00  0.00    +0.000 C 
BRANCH  19  23
ATOM     20  C   UNL     1       3.793   3.597  18.738  0.00  0.00    +0.000 A 
ATOM     21  C   UNL     1       4.577   4.727  18.957  0.00  0.00    +0.000 A 
ATOM     22  C   UNL     1       4.077   6.012  18.637  0.00  0.00    +0.000 A 
ATOM     23  C   UNL     1       2.770   6.211  18.080  0.00  0.00    +0.000 A 
ATOM     24  C   UNL     1       1.984   5.064  17.861  0.00  0.00    +0.000 A 
ATOM     25  C   UNL     1       2.503   3.779  18.170  0.00  0.00    +0.000 A 
BRANCH  20  27
ATOM     26  C   UNL     1       4.499   1.913  20.320  0.00  0.00    +0.000 C 
ATOM     27  O   UNL     1       4.246   2.329  18.975  0.00  0.00    +0.000 OA
ENDBRANCH  20  27
BRANCH  25  28
ATOM     28  O   UNL     1       1.582   2.797  17.877  0.00  0.00    +0.000 OA
ATOM     29  C   UNL     1       0.689   2.345  18.900  0.00  0.00    +0.000 C 
ENDBRANCH  25  28
ENDBRANCH  19  23
ENDBRANCH   1  19
TORSDOF 5
ENDMDL
MODEL 8
REMARK VINA RESULT:      -7.5      2.170      4.348
REMARK  Name = 
REMARK  9 active torsions:
REMARK  status: ('A' for Active; 'I' for Inactive)
REMARK    1  A    between atoms: C_1  and  O_2
REMARK    2  A    between atoms: O_2  and  C_3
REMARK    3  A    between atoms: C_6  and  C_7
REMARK    4  A    between atoms: C_7  and  C_8
REMARK    5  A    between atoms: C_18  and  C_19
REMARK    6  A    between atoms: C_19  and  C_20
REMARK    7  A    between atoms: C_19  and  C_21
REMARK    8  A    between atoms: C_25  and  O_26
REMARK    9  A    between atoms: O_26  and  C_27
REMARK                            x       y       z     vdW  Elec       q    Type
REMARK                         _______ _______ _______ _____ _____    ______ ____
ROOT
ATOM      1  C   UNL     1       2.158   7.993  19.644  0.00  0.00    +0.000 C 
ATOM      2  N   UNL     1       1.796   8.217  18.181  0.00  0.00    +0.000 NA
ATOM      3  C   UNL     1       1.505   9.601  17.809  0.00  0.00    +0.000 C 
ATOM      4  C   UNL     1       0.208  10.058  18.448  0.00  0.00    +0.000 C 
ATOM      5  C   UNL     1       0.280   9.786  19.896  0.00  0.00    +0.000 A 
ATOM      6  C   UNL     1       1.017   8.726  20.450  0.00  0.00    +0.000 A 
ATOM      7  N   UNL     1       0.658   8.759  21.800  0.00  0.00    +0.000 N 
ATOM      8  C   UNL     1      -0.206   9.852  22.073  0.00  0.00    +0.000 A 
ATOM      9  C   UNL     1      -0.913  10.299  23.207  0.00  0.00    +0.000 A 
ATOM     10  C   UNL     1      -1.656  11.530  23.129  0.00  0.00    +0.000 A 
ATOM     11  C   UNL     1      -1.661  12.355  21.993  0.00  0.00    +0.000 A 
ATOM     12  C   UNL     1      -0.982  11.837  20.881  0.00  0.00    +0.000 A 
ATOM     13  C   UNL     1      -0.312  10.579  20.902  0.00  0.00    +0.000 A 
ATOM     14  H   UNL     1       0.947   7.669  18.018  0.00  0.00    +0.000 HD
ATOM     15  H   UNL     1       0.990   8.125  22.516  0.00  0.00    +0.000 HD
ENDROOT
BRANCH  11  16
ATOM     16  C   UNL     1      -2.479  13.657  21.842  0.00  0.00    +0.000 C 
ATOM     17  C   UNL     1      -3.719  13.595  20.933  0.00  0.00    +0.000 C 
ATOM     18  C   UNL     1      -2.941  14.304  23.169  0.00  0.00    +0.000 C 
ENDBRANCH  11  16
BRANCH   1  19
ATOM     19  C   UNL     1       2.481   6.437  19.541  0.00  0.00    +0.000 C 
BRANCH  19  23
ATOM     20  C   UNL     1       5.070   4.232  16.708  0.00  0.00    +0.000 A 
ATOM     21  C   UNL     1       5.199   5.602  16.927  0.00  0.00    +0.000 A 
ATOM     22  C   UNL     1       4.346   6.259  17.846  0.00  0.00    +0.000 A 
ATOM     23  C   UNL     1       3.326   5.564  18.579  0.00  0.00    +0.000 A 
ATOM     24  C   UNL     1       3.201   4.181  18.352  0.00  0.00    +0.000 A 
ATOM     25  C   UNL     1       4.052   3.536  17.415  0.00  0.00    +0.000 A 
BRANCH  20  27
ATOM     26  C   UNL     1       6.236   4.220  14.592  0.00  0.00    +0.000 C 
ATOM     27  O   UNL     1       5.828   3.557  15.792  0.00  0.00    +0.000 OA
ENDBRANCH  20  27
BRANCH  25  28
ATOM     28  O   UNL     1       3.763   2.191  17.340  0.00  0.00    +0.000 OA
ATOM     29  C   UNL     1       3.560   1.449  18.546  0.00  0.00    +0.000 C 
ENDBRANCH  25  28
ENDBRANCH  19  23
ENDBRANCH   1  19
TORSDOF 5
ENDMDL
MODEL 9
REMARK VINA RESULT:      -7.5      2.756      8.283
REMARK  Name = 
REMARK  9 active torsions:
REMARK  status: ('A' for Active; 'I' for Inactive)
REMARK    1  A    between atoms: C_1  and  O_2
REMARK    2  A    between atoms: O_2  and  C_3
REMARK    3  A    between atoms: C_6  and  C_7
REMARK    4  A    between atoms: C_7  and  C_8
REMARK    5  A    between atoms: C_18  and  C_19
REMARK    6  A    between atoms: C_19  and  C_20
REMARK    7  A    between atoms: C_19  and  C_21
REMARK    8  A    between atoms: C_25  and  O_26
REMARK    9  A    between atoms: O_26  and  C_27
REMARK                            x       y       z     vdW  Elec       q    Type
REMARK                         _______ _______ _______ _____ _____    ______ ____
ROOT
ATOM      1  C   UNL     1       2.652   5.245  19.919  0.00  0.00    +0.000 C 
ATOM      2  N   UNL     1       1.448   4.402  19.518  0.00  0.00    +0.000 NA
ATOM      3  C   UNL     1       1.745   3.233  18.692  0.00  0.00    +0.000 C 
ATOM      4  C   UNL     1       2.206   3.664  17.313  0.00  0.00    +0.000 C 
ATOM      5  C   UNL     1       3.305   4.634  17.469  0.00  0.00    +0.000 A 
ATOM      6  C   UNL     1       3.423   5.502  18.567  0.00  0.00    +0.000 A 
ATOM      7  N   UNL     1       4.491   6.329  18.208  0.00  0.00    +0.000 N 
ATOM      8  C   UNL     1       5.054   5.927  16.969  0.00  0.00    +0.000 A 
ATOM      9  C   UNL     1       6.062   6.435  16.126  0.00  0.00    +0.000 A 
ATOM     10  C   UNL     1       6.428   5.695  14.946  0.00  0.00    +0.000 A 
ATOM     11  C   UNL     1       5.876   4.446  14.619  0.00  0.00    +0.000 A 
ATOM     12  C   UNL     1       4.846   4.014  15.466  0.00  0.00    +0.000 A 
ATOM     13  C   UNL     1       4.402   4.767  16.591  0.00  0.00    +0.000 A 
ATOM     14  H   UNL     1       0.846   5.021  18.969  0.00  0.00    +0.000 HD
ATOM     15  H   UNL     1       4.858   7.093  18.761  0.00  0.00    +0.000 HD
ENDROOT
BRANCH  11  16
ATOM     16  C   UNL     1       6.197   3.637  13.342  0.00  0.00    +0.000 C 
ATOM     17  C   UNL     1       5.016   3.312  12.413  0.00  0.00    +0.000 C 
ATOM     18  C   UNL     1       7.309   4.233  12.446  0.00  0.00    +0.000 C 
ENDBRANCH  11  16
BRANCH   1  19
ATOM     19  C   UNL     1       1.877   6.279  20.851  0.00  0.00    +0.000 C 
BRANCH  19  23
ATOM     20  C   UNL     1       0.476  10.475  20.743  0.00  0.00    +0.000 A 
ATOM     21  C   UNL     1       0.383   9.686  21.887  0.00  0.00    +0.000 A 
ATOM     22  C   UNL     1       0.848   8.349  21.869  0.00  0.00    +0.000 A 
ATOM     23  C   UNL     1       1.422   7.752  20.697  0.00  0.00    +0.000 A 
ATOM     24  C   UNL     1       1.513   8.555  19.545  0.00  0.00    +0.000 A 
ATOM     25  C   UNL     1       1.027   9.889  19.571  0.00  0.00    +0.000 A 
BRANCH  20  27
ATOM     26  C   UNL     1      -1.368  11.973  20.303  0.00  0.00    +0.000 C 
ATOM     27  O   UNL     1      -0.008  11.753  20.687  0.00  0.00    +0.000 OA
ENDBRANCH  20  27
BRANCH  25  28
ATOM     28  O   UNL     1       1.204  10.497  18.347  0.00  0.00    +0.000 OA
ATOM     29  C   UNL     1       2.222  11.492  18.199  0.00  0.00    +0.000 C 
ENDBRANCH  25  28
ENDBRANCH  19  23
ENDBRANCH   1  19
TORSDOF 5
ENDMDL
