MODEL 1
REMARK VINA RESULT:      -8.4      0.000      0.000
REMARK  Name = 
REMARK  6 active torsions:
REMARK  status: ('A' for Active; 'I' for Inactive)
REMARK    1  A    between atoms: C_1  and  C_2
REMARK    2  A    between atoms: C_5  and  C_6
REMARK    3  A    between atoms: C_9  and  C_10
REMARK    4  A    between atoms: C_13  and  N_14
REMARK    5  A    between atoms: C_19  and  C_20
REMARK    6  A    between atoms: C_21  and  N_22
REMARK                            x       y       z     vdW  Elec       q    Type
REMARK                         _______ _______ _______ _____ _____    ______ ____
ROOT
ATOM      1  C   UNL     1       1.525   7.506  20.633  0.00  0.00    +0.000 A 
ATOM      2  C   UNL     1       2.316   7.651  19.497  0.00  0.00    +0.000 A 
ATOM      3  C   UNL     1       2.877   6.519  18.865  0.00  0.00    +0.000 A 
ATOM      4  C   UNL     1       2.742   5.189  19.354  0.00  0.00    +0.000 A 
ATOM      5  C   UNL     1       1.908   5.076  20.500  0.00  0.00    +0.000 A 
ATOM      6  C   UNL     1       1.324   6.215  21.123  0.00  0.00    +0.000 A 
ENDROOT
BRANCH   4   7
ATOM      7  N   UNL     1       3.457   4.166  18.725  0.00  0.00    +0.000 N 
ATOM      8  C   UNL     1       4.526   3.433  19.413  0.00  0.00    +0.000 C 
ATOM      9  C   UNL     1       4.195   1.943  19.437  0.00  0.00    +0.000 C 
ATOM     10  C   UNL     1       3.965   1.378  18.037  0.00  0.00    +0.000 C 
ATOM     11  C   UNL     1       2.868   2.177  17.339  0.00  0.00    +0.000 C 
ATOM     12  C   UNL     1       3.174   3.699  17.336  0.00  0.00    +0.000 C 
ATOM     13  C   UNL     1       4.373   3.957  16.413  0.00  0.00    +0.000 C 
ENDBRANCH   4   7
BRANCH   1  17
ATOM     14  C   UNL     1      -0.230  10.309  21.899  0.00  0.00    +0.000 A 
ATOM     15  N   UNL     1       0.660  10.147  22.892  0.00  0.00    +0.000 NA
ATOM     16  O   UNL     1       1.381   9.021  22.509  0.00  0.00    +0.000 OA
ATOM     17  C   UNL     1       0.879   8.626  21.304  0.00  0.00    +0.000 A 
ATOM     18  N   UNL     1      -0.111   9.381  20.887  0.00  0.00    +0.000 NA
BRANCH  14  23
ATOM     19  C   UNL     1      -4.319  14.383  21.768  0.00  0.00    +0.000 C 
ATOM     20  C   UNL     1      -3.238  13.342  21.793  0.00  0.00    +0.000 A 
ATOM     21  C   UNL     1      -2.522  13.016  20.636  0.00  0.00    +0.000 A 
ATOM     22  C   UNL     1      -1.528  12.035  20.668  0.00  0.00    +0.000 A 
ATOM     23  C   UNL     1      -1.238  11.358  21.858  0.00  0.00    +0.000 A 
ATOM     24  C   UNL     1      -1.947  11.693  23.018  0.00  0.00    +0.000 A 
ATOM     25  C   UNL     1      -2.937  12.678  22.986  0.00  0.00    +0.000 A 
ENDBRANCH  14  23
ENDBRANCH   1  17
BRANCH   5  26
ATOM     26  N   UNL     1       1.556   3.818  21.188  0.00  0.00    +0.000 N 
ATOM     27  O   UNL     1       2.213   3.493  22.204  0.00  0.00    +0.000 OA
ATOM     28  O   UNL     1       0.677   3.130  20.683  0.00  0.00    +0.000 OA
ENDBRANCH   5  26
TORSDOF 4
ENDMDL
MODEL 2
REMARK VINA RESULT:      -8.4      2.080      9.652
REMARK  Name = 
REMARK  6 active torsions:
REMARK  status: ('A' for Active; 'I' for Inactive)
REMARK    1  A    between atoms: C_1  and  C_2
REMARK    2  A    between atoms: C_5  and  C_6
REMARK    3  A    between atoms: C_9  and  C_10
REMARK    4  A    between atoms: C_13  and  N_14
REMARK    5  A    between atoms: C_19  and  C_20
REMARK    6  A    between atoms: C_21  and  N_22
REMARK                            x       y       z     vdW  Elec       q    Type
REMARK                         _______ _______ _______ _____ _____    ______ ____
ROOT
ATOM      1  C   UNL     1       1.274   9.106  19.885  0.00  0.00    +0.000 A 
ATOM      2  C   UNL     1       1.041  10.209  19.069  0.00  0.00    +0.000 A 
ATOM      3  C   UNL     1       0.355  11.338  19.570  0.00  0.00    +0.000 A 
ATOM      4  C   UNL     1      -0.192  11.417  20.881  0.00  0.00    +0.000 A 
ATOM      5  C   UNL     1       0.086  10.284  21.693  0.00  0.00    +0.000 A 
ATOM      6  C   UNL     1       0.797   9.155  21.195  0.00  0.00    +0.000 A 
ENDROOT
BRANCH   4   7
ATOM      7  N   UNL     1      -0.970  12.528  21.218  0.00  0.00    +0.000 N 
ATOM      8  C   UNL     1      -2.357  12.670  20.759  0.00  0.00    +0.000 C 
ATOM      9  C   UNL     1      -3.287  12.798  21.961  0.00  0.00    +0.000 C 
ATOM     10  C   UNL     1      -2.898  13.959  22.875  0.00  0.00    +0.000 C 
ATOM     11  C   UNL     1      -1.445  13.797  23.314  0.00  0.00    +0.000 C 
ATOM     12  C   UNL     1      -0.490  13.631  22.101  0.00  0.00    +0.000 C 
ATOM     13  C   UNL     1      -0.430  14.962  21.338  0.00  0.00    +0.000 C 
ENDBRANCH   4   7
BRANCH   1  17
ATOM     14  C   UNL     1       3.107   6.439  18.447  0.00  0.00    +0.000 A 
ATOM     15  N   UNL     1       2.650   5.816  19.545  0.00  0.00    +0.000 NA
ATOM     16  O   UNL     1       1.943   6.808  20.217  0.00  0.00    +0.000 OA
ATOM     17  C   UNL     1       2.014   7.930  19.445  0.00  0.00    +0.000 A 
ATOM     18  N   UNL     1       2.717   7.757  18.350  0.00  0.00    +0.000 NA
BRANCH  14  23
ATOM     19  C   UNL     1       6.315   4.004  14.310  0.00  0.00    +0.000 C 
ATOM     20  C   UNL     1       5.495   4.624  15.404  0.00  0.00    +0.000 A 
ATOM     21  C   UNL     1       4.772   3.831  16.300  0.00  0.00    +0.000 A 
ATOM     22  C   UNL     1       4.000   4.418  17.306  0.00  0.00    +0.000 A 
ATOM     23  C   UNL     1       3.934   5.811  17.427  0.00  0.00    +0.000 A 
ATOM     24  C   UNL     1       4.668   6.604  16.536  0.00  0.00    +0.000 A 
ATOM     25  C   UNL     1       5.443   6.015  15.534  0.00  0.00    +0.000 A 
ENDBRANCH  14  23
ENDBRANCH   1  17
BRANCH   5  26
ATOM     26  N   UNL     1      -0.318  10.115  23.104  0.00  0.00    +0.000 N 
ATOM     27  O   UNL     1       0.520   9.651  23.909  0.00  0.00    +0.000 OA
ATOM     28  O   UNL     1      -1.478  10.384  23.389  0.00  0.00    +0.000 OA
ENDBRANCH   5  26
TORSDOF 4
ENDMDL
MODEL 3
REMARK VINA RESULT:      -8.3      0.059      1.085
REMARK  Name = 
REMARK  6 active torsions:
REMARK  status: ('A' for Active; 'I' for Inactive)
REMARK    1  A    between atoms: C_1  and  C_2
REMARK    2  A    between atoms: C_5  and  C_6
REMARK    3  A    between atoms: C_9  and  C_10
REMARK    4  A    between atoms: C_13  and  N_14
REMARK    5  A    between atoms: C_19  and  C_20
REMARK    6  A    between atoms: C_21  and  N_22
REMARK                            x       y       z     vdW  Elec       q    Type
REMARK                         _______ _______ _______ _____ _____    ______ ____
ROOT
ATOM      1  C   UNL     1       1.534   7.496  20.628  0.00  0.00    +0.000 A 
ATOM      2  C   UNL     1       2.310   7.641  19.482  0.00  0.00    +0.000 A 
ATOM      3  C   UNL     1       2.872   6.510  18.849  0.00  0.00    +0.000 A 
ATOM      4  C   UNL     1       2.752   5.182  19.345  0.00  0.00    +0.000 A 
ATOM      5  C   UNL     1       1.933   5.068  20.502  0.00  0.00    +0.000 A 
ATOM      6  C   UNL     1       1.348   6.206  21.126  0.00  0.00    +0.000 A 
ENDROOT
BRANCH   4   7
ATOM      7  N   UNL     1       3.468   4.162  18.712  0.00  0.00    +0.000 N 
ATOM      8  C   UNL     1       4.542   3.431  19.395  0.00  0.00    +0.000 C 
ATOM      9  C   UNL     1       4.216   1.941  19.420  0.00  0.00    +0.000 C 
ATOM     10  C   UNL     1       3.981   1.375  18.021  0.00  0.00    +0.000 C 
ATOM     11  C   UNL     1       2.878   2.170  17.329  0.00  0.00    +0.000 C 
ATOM     12  C   UNL     1       3.179   3.693  17.325  0.00  0.00    +0.000 C 
ATOM     13  C   UNL     1       4.372   3.955  16.395  0.00  0.00    +0.000 C 
ENDBRANCH   4   7
BRANCH   1  17
ATOM     14  C   UNL     1      -0.224  10.293  21.901  0.00  0.00    +0.000 A 
ATOM     15  N   UNL     1       0.672  10.136  22.889  0.00  0.00    +0.000 NA
ATOM     16  O   UNL     1       1.396   9.013  22.503  0.00  0.00    +0.000 OA
ATOM     17  C   UNL     1       0.888   8.615  21.302  0.00  0.00    +0.000 A 
ATOM     18  N   UNL     1      -0.107   9.365  20.890  0.00  0.00    +0.000 NA
BRANCH  14  23
ATOM     19  C   UNL     1      -4.145  14.528  21.724  0.00  0.00    +0.000 C 
ATOM     20  C   UNL     1      -3.145  13.410  21.778  0.00  0.00    +0.000 A 
ATOM     21  C   UNL     1      -2.888  12.730  22.974  0.00  0.00    +0.000 A 
ATOM     22  C   UNL     1      -1.943  11.701  23.017  0.00  0.00    +0.000 A 
ATOM     23  C   UNL     1      -1.236  11.339  21.865  0.00  0.00    +0.000 A 
ATOM     24  C   UNL     1      -1.503  12.013  20.666  0.00  0.00    +0.000 A 
ATOM     25  C   UNL     1      -2.450  13.039  20.623  0.00  0.00    +0.000 A 
ENDBRANCH  14  23
ENDBRANCH   1  17
BRANCH   5  26
ATOM     26  N   UNL     1       1.599   3.810  21.200  0.00  0.00    +0.000 N 
ATOM     27  O   UNL     1       0.664   3.111  20.747  0.00  0.00    +0.000 OA
ATOM     28  O   UNL     1       2.221   3.556  22.224  0.00  0.00    +0.000 OA
ENDBRANCH   5  26
TORSDOF 4
ENDMDL
MODEL 4
REMARK VINA RESULT:      -8.3      2.317      9.799
REMARK  Name = 
REMARK  6 active torsions:
REMARK  status: ('A' for Active; 'I' for Inactive)
REMARK    1  A    between atoms: C_1  and  C_2
REMARK    2  A    between atoms: C_5  and  C_6
REMARK    3  A    between atoms: C_9  and  C_10
REMARK    4  A    between atoms: C_13  and  N_14
REMARK    5  A    between atoms: C_19  and  C_20
REMARK    6  A    between atoms: C_21  and  N_22
REMARK                            x       y       z     vdW  Elec       q    Type
REMARK                         _______ _______ _______ _____ _____    ______ ____
ROOT
ATOM      1  C   UNL     1       0.574   9.062  20.982  0.00  0.00    +0.000 A 
ATOM      2  C   UNL     1       0.292   9.178  22.339  0.00  0.00    +0.000 A 
ATOM      3  C   UNL     1      -0.524  10.229  22.814  0.00  0.00    +0.000 A 
ATOM      4  C   UNL     1      -1.056  11.256  21.986  0.00  0.00    +0.000 A 
ATOM      5  C   UNL     1      -0.769  11.092  20.604  0.00  0.00    +0.000 A 
ATOM      6  C   UNL     1       0.035  10.020  20.123  0.00  0.00    +0.000 A 
ENDROOT
BRANCH   4   7
ATOM      7  N   UNL     1      -1.734  12.320  22.588  0.00  0.00    +0.000 N 
ATOM      8  C   UNL     1      -1.019  13.461  23.173  0.00  0.00    +0.000 C 
ATOM      9  C   UNL     1      -1.469  14.752  22.497  0.00  0.00    +0.000 C 
ATOM     10  C   UNL     1      -2.980  14.958  22.584  0.00  0.00    +0.000 C 
ATOM     11  C   UNL     1      -3.694  13.745  21.992  0.00  0.00    +0.000 C 
ATOM     12  C   UNL     1      -3.222  12.420  22.648  0.00  0.00    +0.000 C 
ATOM     13  C   UNL     1      -3.719  12.386  24.100  0.00  0.00    +0.000 C 
ENDBRANCH   4   7
BRANCH   1  17
ATOM     14  C   UNL     1       2.532   6.656  19.274  0.00  0.00    +0.000 A 
ATOM     15  N   UNL     1       2.112   5.899  20.301  0.00  0.00    +0.000 NA
ATOM     16  O   UNL     1       1.359   6.779  21.072  0.00  0.00    +0.000 OA
ATOM     17  C   UNL     1       1.370   7.977  20.422  0.00  0.00    +0.000 A 
ATOM     18  N   UNL     1       2.076   7.955  19.315  0.00  0.00    +0.000 NA
BRANCH  14  23
ATOM     19  C   UNL     1       5.989   4.705  15.082  0.00  0.00    +0.000 C 
ATOM     20  C   UNL     1       5.077   5.226  16.153  0.00  0.00    +0.000 A 
ATOM     21  C   UNL     1       4.971   6.598  16.405  0.00  0.00    +0.000 A 
ATOM     22  C   UNL     1       4.130   7.072  17.415  0.00  0.00    +0.000 A 
ATOM     23  C   UNL     1       3.385   6.180  18.195  0.00  0.00    +0.000 A 
ATOM     24  C   UNL     1       3.483   4.807  17.933  0.00  0.00    +0.000 A 
ATOM     25  C   UNL     1       4.321   4.335  16.920  0.00  0.00    +0.000 A 
ENDBRANCH  14  23
ENDBRANCH   1  17
BRANCH   5  26
ATOM     26  N   UNL     1      -1.231  11.979  19.517  0.00  0.00    +0.000 N 
ATOM     27  O   UNL     1      -0.525  12.969  19.219  0.00  0.00    +0.000 OA
ATOM     28  O   UNL     1      -2.317  11.725  19.010  0.00  0.00    +0.000 OA
ENDBRANCH   5  26
TORSDOF 4
ENDMDL
MODEL 5
REMARK VINA RESULT:      -8.3      2.095      9.651
REMARK  Name = 
REMARK  6 active torsions:
REMARK  status: ('A' for Active; 'I' for Inactive)
REMARK    1  A    between atoms: C_1  and  C_2
REMARK    2  A    between atoms: C_5  and  C_6
REMARK    3  A    between atoms: C_9  and  C_10
REMARK    4  A    between atoms: C_13  and  N_14
REMARK    5  A    between atoms: C_19  and  C_20
REMARK    6  A    between atoms: C_21  and  N_22
REMARK                            x       y       z     vdW  Elec       q    Type
REMARK                         _______ _______ _______ _____ _____    ______ ____
ROOT
ATOM      1  C   UNL     1       1.317   9.119  19.876  0.00  0.00    +0.000 A 
ATOM      2  C   UNL     1       1.116  10.249  19.090  0.00  0.00    +0.000 A 
ATOM      3  C   UNL     1       0.437  11.373  19.610  0.00  0.00    +0.000 A 
ATOM      4  C   UNL     1      -0.135  11.421  20.912  0.00  0.00    +0.000 A 
ATOM      5  C   UNL     1       0.111  10.260  21.695  0.00  0.00    +0.000 A 
ATOM      6  C   UNL     1       0.815   9.136  21.178  0.00  0.00    +0.000 A 
ENDROOT
BRANCH   4   7
ATOM      7  N   UNL     1      -0.904  12.533  21.267  0.00  0.00    +0.000 N 
ATOM      8  C   UNL     1      -2.282  12.703  20.795  0.00  0.00    +0.000 C 
ATOM      9  C   UNL     1      -3.226  12.814  21.989  0.00  0.00    +0.000 C 
ATOM     10  C   UNL     1      -2.834  13.946  22.935  0.00  0.00    +0.000 C 
ATOM     11  C   UNL     1      -1.389  13.756  23.388  0.00  0.00    +0.000 C 
ATOM     12  C   UNL     1      -0.421  13.608  22.183  0.00  0.00    +0.000 C 
ATOM     13  C   UNL     1      -0.335  14.956  21.454  0.00  0.00    +0.000 C 
ENDBRANCH   4   7
BRANCH   1  17
ATOM     14  C   UNL     1       3.120   6.459  18.388  0.00  0.00    +0.000 A 
ATOM     15  N   UNL     1       2.692   5.833  19.496  0.00  0.00    +0.000 NA
ATOM     16  O   UNL     1       2.000   6.822  20.187  0.00  0.00    +0.000 OA
ATOM     17  C   UNL     1       2.049   7.945  19.416  0.00  0.00    +0.000 A 
ATOM     18  N   UNL     1       2.725   7.776  18.304  0.00  0.00    +0.000 NA
BRANCH  14  23
ATOM     19  C   UNL     1       6.382   3.927  14.352  0.00  0.00    +0.000 C 
ATOM     20  C   UNL     1       5.520   4.598  15.382  0.00  0.00    +0.000 A 
ATOM     21  C   UNL     1       5.468   5.993  15.481  0.00  0.00    +0.000 A 
ATOM     22  C   UNL     1       4.674   6.607  16.453  0.00  0.00    +0.000 A 
ATOM     23  C   UNL     1       3.924   5.835  17.347  0.00  0.00    +0.000 A 
ATOM     24  C   UNL     1       3.969   4.439  17.240  0.00  0.00    +0.000 A 
ATOM     25  C   UNL     1       4.759   3.826  16.265  0.00  0.00    +0.000 A 
ENDBRANCH  14  23
ENDBRANCH   1  17
BRANCH   5  26
ATOM     26  N   UNL     1      -0.324  10.056  23.092  0.00  0.00    +0.000 N 
ATOM     27  O   UNL     1      -1.500  10.355  23.397  0.00  0.00    +0.000 OA
ATOM     28  O   UNL     1       0.520   9.662  23.889  0.00  0.00    +0.000 OA
ENDBRANCH   5  26
TORSDOF 4
ENDMDL
MODEL 6
REMARK VINA RESULT:      -8.2      2.343      9.811
REMARK  Name = 
REMARK  6 active torsions:
REMARK  status: ('A' for Active; 'I' for Inactive)
REMARK    1  A    between atoms: C_1  and  C_2
REMARK    2  A    between atoms: C_5  and  C_6
REMARK    3  A    between atoms: C_9  and  C_10
REMARK    4  A    between atoms: C_13  and  N_14
REMARK    5  A    between atoms: C_19  and  C_20
REMARK    6  A    between atoms: C_21  and  N_22
REMARK                            x       y       z     vdW  Elec       q    Type
REMARK                         _______ _______ _______ _____ _____    ______ ____
ROOT
ATOM      1  C   UNL     1       0.819   8.957  20.722  0.00  0.00    +0.000 A 
ATOM      2  C   UNL     1       0.459   9.063  22.061  0.00  0.00    +0.000 A 
ATOM      3  C   UNL     1      -0.347  10.136  22.505  0.00  0.00    +0.000 A 
ATOM      4  C   UNL     1      -0.789  11.195  21.664  0.00  0.00    +0.000 A 
ATOM      5  C   UNL     1      -0.423  11.042  20.299  0.00  0.00    +0.000 A 
ATOM      6  C   UNL     1       0.369   9.949  19.849  0.00  0.00    +0.000 A 
ENDROOT
BRANCH   4   7
ATOM      7  N   UNL     1      -1.463  12.275  22.243  0.00  0.00    +0.000 N 
ATOM      8  C   UNL     1      -0.748  13.454  22.745  0.00  0.00    +0.000 C 
ATOM      9  C   UNL     1      -1.250  14.704  22.028  0.00  0.00    +0.000 C 
ATOM     10  C   UNL     1      -2.760  14.886  22.166  0.00  0.00    +0.000 C 
ATOM     11  C   UNL     1      -3.473  13.635  21.661  0.00  0.00    +0.000 C 
ATOM     12  C   UNL     1      -2.949  12.350  22.358  0.00  0.00    +0.000 C 
ATOM     13  C   UNL     1      -3.388  12.376  23.829  0.00  0.00    +0.000 C 
ENDBRANCH   4   7
BRANCH   1  17
ATOM     14  C   UNL     1       2.759   6.492  19.080  0.00  0.00    +0.000 A 
ATOM     15  N   UNL     1       2.340   5.769  20.131  0.00  0.00    +0.000 NA
ATOM     16  O   UNL     1       1.595   6.675  20.879  0.00  0.00    +0.000 OA
ATOM     17  C   UNL     1       1.608   7.853  20.192  0.00  0.00    +0.000 A 
ATOM     18  N   UNL     1       2.309   7.794  19.084  0.00  0.00    +0.000 NA
BRANCH  14  23
ATOM     19  C   UNL     1       6.045   4.527  14.758  0.00  0.00    +0.000 C 
ATOM     20  C   UNL     1       5.205   5.022  15.899  0.00  0.00    +0.000 A 
ATOM     21  C   UNL     1       4.465   4.135  16.688  0.00  0.00    +0.000 A 
ATOM     22  C   UNL     1       3.674   4.609  17.739  0.00  0.00    +0.000 A 
ATOM     23  C   UNL     1       3.606   5.979  18.012  0.00  0.00    +0.000 A 
ATOM     24  C   UNL     1       4.356   6.865  17.228  0.00  0.00    +0.000 A 
ATOM     25  C   UNL     1       5.149   6.391  16.181  0.00  0.00    +0.000 A 
ENDBRANCH  14  23
ENDBRANCH   1  17
BRANCH   5  26
ATOM     26  N   UNL     1      -0.785  11.963  19.202  0.00  0.00    +0.000 N 
ATOM     27  O   UNL     1      -1.893  11.810  18.640  0.00  0.00    +0.000 OA
ATOM     28  O   UNL     1       0.055  12.788  18.864  0.00  0.00    +0.000 OA
ENDBRANCH   5  26
TORSDOF 4
ENDMDL
MODEL 7
REMARK VINA RESULT:      -8.2      2.488      9.820
REMARK  Name = 
REMARK  6 active torsions:
REMARK  status: ('A' for Active; 'I' for Inactive)
REMARK    1  A    between atoms: C_1  and  C_2
REMARK    2  A    between atoms: C_5  and  C_6
REMARK    3  A    between atoms: C_9  and  C_10
REMARK    4  A    between atoms: C_13  and  N_14
REMARK    5  A    between atoms: C_19  and  C_20
REMARK    6  A    between atoms: C_21  and  N_22
REMARK                            x       y       z     vdW  Elec       q    Type
REMARK                         _______ _______ _______ _____ _____    ______ ____
ROOT
ATOM      1  C   UNL     1       0.696   9.194  20.596  0.00  0.00    +0.000 A 
ATOM      2  C   UNL     1       0.521   9.493  21.944  0.00  0.00    +0.000 A 
ATOM      3  C   UNL     1      -0.311  10.565  22.338  0.00  0.00    +0.000 A 
ATOM      4  C   UNL     1      -0.965  11.438  21.425  0.00  0.00    +0.000 A 
ATOM      5  C   UNL     1      -0.784  11.089  20.059  0.00  0.00    +0.000 A 
ATOM      6  C   UNL     1       0.037   9.995  19.663  0.00  0.00    +0.000 A 
ENDROOT
BRANCH   4   7
ATOM      7  N   UNL     1      -1.649  12.548  21.930  0.00  0.00    +0.000 N 
ATOM      8  C   UNL     1      -3.089  12.507  22.211  0.00  0.00    +0.000 C 
ATOM      9  C   UNL     1      -3.336  12.832  23.681  0.00  0.00    +0.000 C 
ATOM     10  C   UNL     1      -2.743  14.179  24.086  0.00  0.00    +0.000 C 
ATOM     11  C   UNL     1      -1.253  14.199  23.759  0.00  0.00    +0.000 C 
ATOM     12  C   UNL     1      -0.983  13.838  22.273  0.00  0.00    +0.000 C 
ATOM     13  C   UNL     1      -1.503  14.980  21.388  0.00  0.00    +0.000 C 
ENDBRANCH   4   7
BRANCH   1  17
ATOM     14  C   UNL     1       2.675   6.676  19.085  0.00  0.00    +0.000 A 
ATOM     15  N   UNL     1       2.267   6.003  20.173  0.00  0.00    +0.000 NA
ATOM     16  O   UNL     1       1.507   6.935  20.872  0.00  0.00    +0.000 OA
ATOM     17  C   UNL     1       1.503   8.076  20.125  0.00  0.00    +0.000 A 
ATOM     18  N   UNL     1       2.205   7.970  19.021  0.00  0.00    +0.000 NA
BRANCH  14  23
ATOM     19  C   UNL     1       5.999   4.546  14.872  0.00  0.00    +0.000 C 
ATOM     20  C   UNL     1       5.148   5.084  15.985  0.00  0.00    +0.000 A 
ATOM     21  C   UNL     1       4.371   4.232  16.777  0.00  0.00    +0.000 A 
ATOM     22  C   UNL     1       3.571   4.745  17.801  0.00  0.00    +0.000 A 
ATOM     23  C   UNL     1       3.531   6.122  18.046  0.00  0.00    +0.000 A 
ATOM     24  C   UNL     1       4.318   6.974  17.260  0.00  0.00    +0.000 A 
ATOM     25  C   UNL     1       5.121   6.459  16.239  0.00  0.00    +0.000 A 
ENDBRANCH  14  23
ENDBRANCH   1  17
BRANCH   5  26
ATOM     26  N   UNL     1      -1.381  11.789  18.904  0.00  0.00    +0.000 N 
ATOM     27  O   UNL     1      -0.725  12.707  18.362  0.00  0.00    +0.000 OA
ATOM     28  O   UNL     1      -2.520  11.469  18.583  0.00  0.00    +0.000 OA
ENDBRANCH   5  26
TORSDOF 4
ENDMDL
MODEL 8
REMARK VINA RESULT:      -8.1      1.956      2.894
REMARK  Name = 
REMARK  6 active torsions:
REMARK  status: ('A' for Active; 'I' for Inactive)
REMARK    1  A    between atoms: C_1  and  C_2
REMARK    2  A    between atoms: C_5  and  C_6
REMARK    3  A    between atoms: C_9  and  C_10
REMARK    4  A    between atoms: C_13  and  N_14
REMARK    5  A    between atoms: C_19  and  C_20
REMARK    6  A    between atoms: C_21  and  N_22
REMARK                            x       y       z     vdW  Elec       q    Type
REMARK                         _______ _______ _______ _____ _____    ______ ____
ROOT
ATOM      1  C   UNL     1       2.470   7.328  19.244  0.00  0.00    +0.000 A 
ATOM      2  C   UNL     1       2.999   7.807  18.049  0.00  0.00    +0.000 A 
ATOM      3  C   UNL     1       3.887   7.014  17.289  0.00  0.00    +0.000 A 
ATOM      4  C   UNL     1       4.350   5.731  17.696  0.00  0.00    +0.000 A 
ATOM      5  C   UNL     1       3.770   5.264  18.907  0.00  0.00    +0.000 A 
ATOM      6  C   UNL     1       2.858   6.055  19.661  0.00  0.00    +0.000 A 
ENDROOT
BRANCH   4   7
ATOM      7  N   UNL     1       5.335   5.100  16.930  0.00  0.00    +0.000 N 
ATOM      8  C   UNL     1       5.022   3.972  16.045  0.00  0.00    +0.000 C 
ATOM      9  C   UNL     1       5.421   4.316  14.613  0.00  0.00    +0.000 C 
ATOM     10  C   UNL     1       6.894   4.702  14.498  0.00  0.00    +0.000 C 
ATOM     11  C   UNL     1       7.193   5.858  15.448  0.00  0.00    +0.000 C 
ATOM     12  C   UNL     1       6.762   5.536  16.904  0.00  0.00    +0.000 C 
ATOM     13  C   UNL     1       7.683   4.441  17.459  0.00  0.00    +0.000 C 
ENDBRANCH   4   7
BRANCH   1  17
ATOM     14  C   UNL     1       0.248   9.477  20.972  0.00  0.00    +0.000 A 
ATOM     15  N   UNL     1       0.263   8.448  21.833  0.00  0.00    +0.000 NA
ATOM     16  O   UNL     1       1.085   7.511  21.215  0.00  0.00    +0.000 OA
ATOM     17  C   UNL     1       1.514   8.076  20.051  0.00  0.00    +0.000 A 
ATOM     18  N   UNL     1       1.029   9.280  19.854  0.00  0.00    +0.000 NA
BRANCH  14  23
ATOM     19  C   UNL     1      -2.838  14.284  21.812  0.00  0.00    +0.000 C 
ATOM     20  C   UNL     1      -2.017  13.049  21.580  0.00  0.00    +0.000 A 
ATOM     21  C   UNL     1      -1.711  12.619  20.284  0.00  0.00    +0.000 A 
ATOM     22  C   UNL     1      -0.959  11.459  20.080  0.00  0.00    +0.000 A 
ATOM     23  C   UNL     1      -0.506  10.707  21.169  0.00  0.00    +0.000 A 
ATOM     24  C   UNL     1      -0.804  11.145  22.466  0.00  0.00    +0.000 A 
ATOM     25  C   UNL     1      -1.552  12.306  22.669  0.00  0.00    +0.000 A 
ENDBRANCH  14  23
ENDBRANCH   1  17
BRANCH   5  26
ATOM     26  N   UNL     1       4.032   3.954  19.537  0.00  0.00    +0.000 N 
ATOM     27  O   UNL     1       3.053   3.262  19.896  0.00  0.00    +0.000 OA
ATOM     28  O   UNL     1       5.203   3.649  19.730  0.00  0.00    +0.000 OA
ENDBRANCH   5  26
TORSDOF 4
ENDMDL
MODEL 9
REMARK VINA RESULT:      -8.1      1.912      2.931
REMARK  Name = 
REMARK  6 active torsions:
REMARK  status: ('A' for Active; 'I' for Inactive)
REMARK    1  A    between atoms: C_1  and  C_2
REMARK    2  A    between atoms: C_5  and  C_6
REMARK    3  A    between atoms: C_9  and  C_10
REMARK    4  A    between atoms: C_13  and  N_14
REMARK    5  A    between atoms: C_19  and  C_20
REMARK    6  A    between atoms: C_21  and  N_22
REMARK                            x       y       z     vdW  Elec       q    Type
REMARK                         _______ _______ _______ _____ _____    ______ ____
ROOT
ATOM      1  C   UNL     1       2.409   7.353  19.322  0.00  0.00    +0.000 A 
ATOM      2  C   UNL     1       2.980   7.854  18.156  0.00  0.00    +0.000 A 
ATOM      3  C   UNL     1       3.867   7.061  17.394  0.00  0.00    +0.000 A 
ATOM      4  C   UNL     1       4.287   5.755  17.772  0.00  0.00    +0.000 A 
ATOM      5  C   UNL     1       3.665   5.267  18.954  0.00  0.00    +0.000 A 
ATOM      6  C   UNL     1       2.754   6.058  19.709  0.00  0.00    +0.000 A 
ENDROOT
BRANCH   4   7
ATOM      7  N   UNL     1       5.275   5.122  17.013  0.00  0.00    +0.000 N 
ATOM      8  C   UNL     1       4.966   3.992  16.129  0.00  0.00    +0.000 C 
ATOM      9  C   UNL     1       5.371   4.332  14.698  0.00  0.00    +0.000 C 
ATOM     10  C   UNL     1       6.844   4.718  14.588  0.00  0.00    +0.000 C 
ATOM     11  C   UNL     1       7.140   5.877  15.536  0.00  0.00    +0.000 C 
ATOM     12  C   UNL     1       6.702   5.558  16.991  0.00  0.00    +0.000 C 
ATOM     13  C   UNL     1       7.621   4.464  17.552  0.00  0.00    +0.000 C 
ENDBRANCH   4   7
BRANCH   1  17
ATOM     14  C   UNL     1       0.185   9.502  21.047  0.00  0.00    +0.000 A 
ATOM     15  N   UNL     1       0.199   8.473  21.909  0.00  0.00    +0.000 NA
ATOM     16  O   UNL     1       1.022   7.537  21.292  0.00  0.00    +0.000 OA
ATOM     17  C   UNL     1       1.453   8.101  20.128  0.00  0.00    +0.000 A 
ATOM     18  N   UNL     1       0.967   9.305  19.930  0.00  0.00    +0.000 NA
BRANCH  14  23
ATOM     19  C   UNL     1      -2.711  14.445  21.768  0.00  0.00    +0.000 C 
ATOM     20  C   UNL     1      -1.978  13.147  21.594  0.00  0.00    +0.000 A 
ATOM     21  C   UNL     1      -1.583  12.387  22.700  0.00  0.00    +0.000 A 
ATOM     22  C   UNL     1      -0.887  11.188  22.527  0.00  0.00    +0.000 A 
ATOM     23  C   UNL     1      -0.570  10.731  21.243  0.00  0.00    +0.000 A 
ATOM     24  C   UNL     1      -0.976  11.487  20.135  0.00  0.00    +0.000 A 
ATOM     25  C   UNL     1      -1.675  12.684  20.309  0.00  0.00    +0.000 A 
ENDBRANCH  14  23
ENDBRANCH   1  17
BRANCH   5  26
ATOM     26  N   UNL     1       3.877   3.932  19.550  0.00  0.00    +0.000 N 
ATOM     27  O   UNL     1       5.051   3.570  19.791  0.00  0.00    +0.000 OA
ATOM     28  O   UNL     1       2.888   3.229  19.716  0.00  0.00    +0.000 OA
ENDBRANCH   5  26
TORSDOF 4
ENDMDL
