MODEL 1
REMARK VINA RESULT:      -7.5      0.000      0.000
REMARK  Name = 
REMARK  8 active torsions:
REMARK  status: ('A' for Active; 'I' for Inactive)
REMARK    1  A    between atoms: C_1  and  C_2
REMARK    2  A    between atoms: C_2  and  C_3
REMARK    3  A    between atoms: C_2  and  C_4
REMARK    4  A    between atoms: C_2  and  C_5
REMARK    5  A    between atoms: C_8  and  O_9
REMARK    6  A    between atoms: O_9  and  C_10
REMARK    7  A    between atoms: C_10  and  C_11
REMARK    8  A    between atoms: C_11  and  N_12
REMARK                            x       y       z     vdW  Elec       q    Type
REMARK                         _______ _______ _______ _____ _____    ______ ____
ROOT
ATOM      1  C   UNL     1       1.967   5.862  20.278  0.00  0.00    +0.000 C 
ENDROOT
BRANCH   1   2
ATOM      2  O   UNL     1       2.461   7.216  20.195  0.00  0.00    +0.000 OA
BRANCH   2   6
ATOM      3  C   UNL     1      -0.087  10.486  19.075  0.00  0.00    +0.000 A 
ATOM      4  C   UNL     1      -0.053   9.889  20.346  0.00  0.00    +0.000 A 
ATOM      5  C   UNL     1       0.801   8.801  20.653  0.00  0.00    +0.000 A 
ATOM      6  C   UNL     1       1.644   8.225  19.708  0.00  0.00    +0.000 A 
ATOM      7  C   UNL     1       1.619   8.774  18.427  0.00  0.00    +0.000 A 
ATOM      8  C   UNL     1       0.766   9.881  18.123  0.00  0.00    +0.000 A 
BRANCH   3  10
ATOM      9  C   UNL     1      -1.920  12.080  19.979  0.00  0.00    +0.000 C 
ATOM     10  C   UNL     1      -1.031  11.692  18.768  0.00  0.00    +0.000 C 
ATOM     11  C   UNL     1      -1.980  11.347  17.605  0.00  0.00    +0.000 C 
ATOM     12  C   UNL     1      -0.275  12.984  18.367  0.00  0.00    +0.000 C 
ENDBRANCH   3  10
ENDBRANCH   2   6
ENDBRANCH   1   2
BRANCH   1  13
ATOM     13  C   UNL     1       2.259   4.986  18.971  0.00  0.00    +0.000 C 
BRANCH  13  14
ATOM     14  N   UNL     1       3.658   4.604  18.765  0.00  0.00    +0.000 N 
ATOM     15  C   UNL     1       4.166   3.289  18.808  0.00  0.00    +0.000 A 
ATOM     16  S   UNL     1       3.387   1.860  18.491  0.00  0.00    +0.000 S 
ATOM     17  N   UNL     1       5.562   3.377  18.932  0.00  0.00    +0.000 N 
ATOM     18  C   UNL     1       5.896   4.650  18.456  0.00  0.00    +0.000 A 
ATOM     19  C   UNL     1       7.168   5.047  18.072  0.00  0.00    +0.000 A 
ATOM     20  C   UNL     1       7.260   6.207  17.318  0.00  0.00    +0.000 A 
ATOM     21  C   UNL     1       6.096   6.943  17.028  0.00  0.00    +0.000 A 
ATOM     22  C   UNL     1       4.818   6.566  17.527  0.00  0.00    +0.000 A 
ATOM     23  C   UNL     1       4.730   5.395  18.252  0.00  0.00    +0.000 A 
ATOM     24  H   UNL     1       5.858   3.275  19.899  0.00  0.00    +0.000 HD
ENDBRANCH  13  14
ENDBRANCH   1  13
TORSDOF 5
ENDMDL
MODEL 2
REMARK VINA RESULT:      -7.4      4.009      8.120
REMARK  Name = 
REMARK  8 active torsions:
REMARK  status: ('A' for Active; 'I' for Inactive)
REMARK    1  A    between atoms: C_1  and  C_2
REMARK    2  A    between atoms: C_2  and  C_3
REMARK    3  A    between atoms: C_2  and  C_4
REMARK    4  A    between atoms: C_2  and  C_5
REMARK    5  A    between atoms: C_8  and  O_9
REMARK    6  A    between atoms: O_9  and  C_10
REMARK    7  A    between atoms: C_10  and  C_11
REMARK    8  A    between atoms: C_11  and  N_12
REMARK                            x       y       z     vdW  Elec       q    Type
REMARK                         _______ _______ _______ _____ _____    ______ ____
ROOT
ATOM      1  C   UNL     1       2.003   9.615  18.140  0.00  0.00    +0.000 C 
ENDROOT
BRANCH   1   2
ATOM      2  O   UNL     1       2.636   8.399  17.690  0.00  0.00    +0.000 OA
BRANCH   2   6
ATOM      3  C   UNL     1       2.225   4.542  19.534  0.00  0.00    +0.000 A 
ATOM      4  C   UNL     1       2.342   4.766  18.152  0.00  0.00    +0.000 A 
ATOM      5  C   UNL     1       2.461   6.065  17.600  0.00  0.00    +0.000 A 
ATOM      6  C   UNL     1       2.438   7.214  18.384  0.00  0.00    +0.000 A 
ATOM      7  C   UNL     1       2.297   7.032  19.759  0.00  0.00    +0.000 A 
ATOM      8  C   UNL     1       2.191   5.719  20.316  0.00  0.00    +0.000 A 
BRANCH   3  10
ATOM      9  C   UNL     1       3.487   2.465  20.434  0.00  0.00    +0.000 C 
ATOM     10  C   UNL     1       2.107   3.097  20.116  0.00  0.00    +0.000 C 
ATOM     11  C   UNL     1       1.408   2.169  19.106  0.00  0.00    +0.000 C 
ATOM     12  C   UNL     1       1.295   3.025  21.434  0.00  0.00    +0.000 C 
ENDBRANCH   3  10
ENDBRANCH   2   6
ENDBRANCH   1   2
BRANCH   1  13
ATOM     13  C   UNL     1       0.406   9.591  18.029  0.00  0.00    +0.000 C 
BRANCH  13  14
ATOM     14  N   UNL     1      -0.310  10.363  19.048  0.00  0.00    +0.000 N 
ATOM     15  C   UNL     1      -1.332  11.302  18.798  0.00  0.00    +0.000 A 
ATOM     16  S   UNL     1      -2.393  11.375  17.526  0.00  0.00    +0.000 S 
ATOM     17  N   UNL     1      -1.492  12.074  19.961  0.00  0.00    +0.000 N 
ATOM     18  C   UNL     1      -0.973  11.292  20.998  0.00  0.00    +0.000 A 
ATOM     19  C   UNL     1      -1.222  11.493  22.348  0.00  0.00    +0.000 A 
ATOM     20  C   UNL     1      -0.915  10.445  23.202  0.00  0.00    +0.000 A 
ATOM     21  C   UNL     1      -0.327   9.275  22.687  0.00  0.00    +0.000 A 
ATOM     22  C   UNL     1       0.015   9.142  21.313  0.00  0.00    +0.000 A 
ATOM     23  C   UNL     1      -0.320  10.177  20.463  0.00  0.00    +0.000 A 
ATOM     24  H   UNL     1      -0.987  12.954  19.898  0.00  0.00    +0.000 HD
ENDBRANCH  13  14
ENDBRANCH   1  13
TORSDOF 5
ENDMDL
MODEL 3
REMARK VINA RESULT:      -7.4      1.514      1.899
REMARK  Name = 
REMARK  8 active torsions:
REMARK  status: ('A' for Active; 'I' for Inactive)
REMARK    1  A    between atoms: C_1  and  C_2
REMARK    2  A    between atoms: C_2  and  C_3
REMARK    3  A    between atoms: C_2  and  C_4
REMARK    4  A    between atoms: C_2  and  C_5
REMARK    5  A    between atoms: C_8  and  O_9
REMARK    6  A    between atoms: O_9  and  C_10
REMARK    7  A    between atoms: C_10  and  C_11
REMARK    8  A    between atoms: C_11  and  N_12
REMARK                            x       y       z     vdW  Elec       q    Type
REMARK                         _______ _______ _______ _____ _____    ______ ____
ROOT
ATOM      1  C   UNL     1       1.802   4.744  19.392  0.00  0.00    +0.000 C 
ENDROOT
BRANCH   1   2
ATOM      2  O   UNL     1       2.498   5.894  19.917  0.00  0.00    +0.000 OA
BRANCH   2   6
ATOM      3  C   UNL     1       1.142   9.936  19.400  0.00  0.00    +0.000 A 
ATOM      4  C   UNL     1       0.973   9.172  20.567  0.00  0.00    +0.000 A 
ATOM      5  C   UNL     1       1.431   7.835  20.674  0.00  0.00    +0.000 A 
ATOM      6  C   UNL     1       2.051   7.172  19.620  0.00  0.00    +0.000 A 
ATOM      7  C   UNL     1       2.213   7.891  18.436  0.00  0.00    +0.000 A 
ATOM      8  C   UNL     1       1.763   9.245  18.334  0.00  0.00    +0.000 A 
BRANCH   3  10
ATOM      9  C   UNL     1       1.648  12.349  18.603  0.00  0.00    +0.000 C 
ATOM     10  C   UNL     1       0.638  11.412  19.314  0.00  0.00    +0.000 C 
ATOM     11  C   UNL     1       0.410  11.982  20.726  0.00  0.00    +0.000 C 
ATOM     12  C   UNL     1      -0.697  11.566  18.543  0.00  0.00    +0.000 C 
ENDBRANCH   3  10
ENDBRANCH   2   6
ENDBRANCH   1   2
BRANCH   1  13
ATOM     13  C   UNL     1       2.480   4.120  18.083  0.00  0.00    +0.000 C 
BRANCH  13  14
ATOM     14  N   UNL     1       3.945   4.078  18.089  0.00  0.00    +0.000 N 
ATOM     15  C   UNL     1       4.745   3.469  19.077  0.00  0.00    +0.000 A 
ATOM     16  S   UNL     1       4.377   2.201  20.082  0.00  0.00    +0.000 S 
ATOM     17  N   UNL     1       6.054   3.956  18.923  0.00  0.00    +0.000 N 
ATOM     18  C   UNL     1       6.126   4.409  17.601  0.00  0.00    +0.000 A 
ATOM     19  C   UNL     1       7.302   4.652  16.907  0.00  0.00    +0.000 A 
ATOM     20  C   UNL     1       7.202   4.765  15.529  0.00  0.00    +0.000 A 
ATOM     21  C   UNL     1       5.939   4.686  14.913  0.00  0.00    +0.000 A 
ATOM     22  C   UNL     1       4.739   4.543  15.664  0.00  0.00    +0.000 A 
ATOM     23  C   UNL     1       4.848   4.401  17.032  0.00  0.00    +0.000 A 
ATOM     24  H   UNL     1       6.246   4.719  19.567  0.00  0.00    +0.000 HD
ENDBRANCH  13  14
ENDBRANCH   1  13
TORSDOF 5
ENDMDL
MODEL 4
REMARK VINA RESULT:      -7.3      1.635      3.382
REMARK  Name = 
REMARK  8 active torsions:
REMARK  status: ('A' for Active; 'I' for Inactive)
REMARK    1  A    between atoms: C_1  and  C_2
REMARK    2  A    between atoms: C_2  and  C_3
REMARK    3  A    between atoms: C_2  and  C_4
REMARK    4  A    between atoms: C_2  and  C_5
REMARK    5  A    between atoms: C_8  and  O_9
REMARK    6  A    between atoms: O_9  and  C_10
REMARK    7  A    between atoms: C_10  and  C_11
REMARK    8  A    between atoms: C_11  and  N_12
REMARK                            x       y       z     vdW  Elec       q    Type
REMARK                         _______ _______ _______ _____ _____    ______ ____
ROOT
ATOM      1  C   UNL     1       3.526   7.158  17.779  0.00  0.00    +0.000 C 
ENDROOT
BRANCH   1   2
ATOM      2  O   UNL     1       2.865   7.341  19.049  0.00  0.00    +0.000 OA
BRANCH   2   6
ATOM      3  C   UNL     1      -0.156  10.393  19.122  0.00  0.00    +0.000 A 
ATOM      4  C   UNL     1       0.587  10.021  17.989  0.00  0.00    +0.000 A 
ATOM      5  C   UNL     1       1.583   9.014  18.029  0.00  0.00    +0.000 A 
ATOM      6  C   UNL     1       1.919   8.344  19.201  0.00  0.00    +0.000 A 
ATOM      7  C   UNL     1       1.221   8.705  20.353  0.00  0.00    +0.000 A 
ATOM      8  C   UNL     1       0.206   9.712  20.307  0.00  0.00    +0.000 A 
BRANCH   3  10
ATOM      9  C   UNL     1      -0.767  12.780  18.319  0.00  0.00    +0.000 C 
ATOM     10  C   UNL     1      -1.256  11.499  19.045  0.00  0.00    +0.000 C 
ATOM     11  C   UNL     1      -1.690  11.921  20.461  0.00  0.00    +0.000 C 
ATOM     12  C   UNL     1      -2.535  11.049  18.295  0.00  0.00    +0.000 C 
ENDBRANCH   3  10
ENDBRANCH   2   6
ENDBRANCH   1   2
BRANCH   1  13
ATOM     13  C   UNL     1       3.658   5.627  17.333  0.00  0.00    +0.000 C 
BRANCH  13  14
ATOM     14  N   UNL     1       3.922   4.674  18.415  0.00  0.00    +0.000 N 
ATOM     15  C   UNL     1       5.194   4.352  18.933  0.00  0.00    +0.000 A 
ATOM     16  S   UNL     1       6.570   5.277  18.969  0.00  0.00    +0.000 S 
ATOM     17  N   UNL     1       5.062   3.163  19.670  0.00  0.00    +0.000 N 
ATOM     18  C   UNL     1       3.706   3.084  20.005  0.00  0.00    +0.000 A 
ATOM     19  C   UNL     1       3.179   2.275  21.001  0.00  0.00    +0.000 A 
ATOM     20  C   UNL     1       1.891   2.565  21.424  0.00  0.00    +0.000 A 
ATOM     21  C   UNL     1       1.171   3.602  20.804  0.00  0.00    +0.000 A 
ATOM     22  C   UNL     1       1.701   4.343  19.711  0.00  0.00    +0.000 A 
ATOM     23  C   UNL     1       2.994   4.070  19.315  0.00  0.00    +0.000 A 
ATOM     24  H   UNL     1       5.337   2.352  19.123  0.00  0.00    +0.000 HD
ENDBRANCH  13  14
ENDBRANCH   1  13
TORSDOF 5
ENDMDL
MODEL 5
REMARK VINA RESULT:      -7.3      1.388      1.736
REMARK  Name = 
REMARK  8 active torsions:
REMARK  status: ('A' for Active; 'I' for Inactive)
REMARK    1  A    between atoms: C_1  and  C_2
REMARK    2  A    between atoms: C_2  and  C_3
REMARK    3  A    between atoms: C_2  and  C_4
REMARK    4  A    between atoms: C_2  and  C_5
REMARK    5  A    between atoms: C_8  and  O_9
REMARK    6  A    between atoms: O_9  and  C_10
REMARK    7  A    between atoms: C_10  and  C_11
REMARK    8  A    between atoms: C_11  and  N_12
REMARK                            x       y       z     vdW  Elec       q    Type
REMARK                         _______ _______ _______ _____ _____    ______ ____
ROOT
ATOM      1  C   UNL     1       1.849   5.319  18.977  0.00  0.00    +0.000 C 
ENDROOT
BRANCH   1   2
ATOM      2  O   UNL     1       2.658   6.500  19.155  0.00  0.00    +0.000 OA
BRANCH   2   6
ATOM      3  C   UNL     1       0.684  10.314  19.240  0.00  0.00    +0.000 A 
ATOM      4  C   UNL     1       1.294   9.746  18.108  0.00  0.00    +0.000 A 
ATOM      5  C   UNL     1       1.943   8.488  18.144  0.00  0.00    +0.000 A 
ATOM      6  C   UNL     1       2.053   7.739  19.311  0.00  0.00    +0.000 A 
ATOM      7  C   UNL     1       1.483   8.282  20.462  0.00  0.00    +0.000 A 
ATOM      8  C   UNL     1       0.815   9.547  20.420  0.00  0.00    +0.000 A 
BRANCH   3  10
ATOM      9  C   UNL     1      -0.558  12.175  20.548  0.00  0.00    +0.000 C 
ATOM     10  C   UNL     1      -0.035  11.699  19.167  0.00  0.00    +0.000 C 
ATOM     11  C   UNL     1      -1.252  11.621  18.228  0.00  0.00    +0.000 C 
ATOM     12  C   UNL     1       0.871  12.840  18.642  0.00  0.00    +0.000 C 
ENDBRANCH   3  10
ENDBRANCH   2   6
ENDBRANCH   1   2
BRANCH   1  13
ATOM     13  C   UNL     1       2.510   4.221  18.017  0.00  0.00    +0.000 C 
BRANCH  13  14
ATOM     14  N   UNL     1       3.973   4.145  18.056  0.00  0.00    +0.000 N 
ATOM     15  C   UNL     1       4.736   3.534  19.072  0.00  0.00    +0.000 A 
ATOM     16  S   UNL     1       4.318   2.290  20.086  0.00  0.00    +0.000 S 
ATOM     17  N   UNL     1       6.059   3.988  18.940  0.00  0.00    +0.000 N 
ATOM     18  C   UNL     1       6.171   4.419  17.613  0.00  0.00    +0.000 A 
ATOM     19  C   UNL     1       7.368   4.625  16.943  0.00  0.00    +0.000 A 
ATOM     20  C   UNL     1       7.301   4.718  15.560  0.00  0.00    +0.000 A 
ATOM     21  C   UNL     1       6.051   4.659  14.918  0.00  0.00    +0.000 A 
ATOM     22  C   UNL     1       4.831   4.555  15.644  0.00  0.00    +0.000 A 
ATOM     23  C   UNL     1       4.907   4.432  17.016  0.00  0.00    +0.000 A 
ATOM     24  H   UNL     1       6.255   4.756  19.576  0.00  0.00    +0.000 HD
ENDBRANCH  13  14
ENDBRANCH   1  13
TORSDOF 5
ENDMDL
MODEL 6
REMARK VINA RESULT:      -7.3      1.619      3.306
REMARK  Name = 
REMARK  8 active torsions:
REMARK  status: ('A' for Active; 'I' for Inactive)
REMARK    1  A    between atoms: C_1  and  C_2
REMARK    2  A    between atoms: C_2  and  C_3
REMARK    3  A    between atoms: C_2  and  C_4
REMARK    4  A    between atoms: C_2  and  C_5
REMARK    5  A    between atoms: C_8  and  O_9
REMARK    6  A    between atoms: O_9  and  C_10
REMARK    7  A    between atoms: C_10  and  C_11
REMARK    8  A    between atoms: C_11  and  N_12
REMARK                            x       y       z     vdW  Elec       q    Type
REMARK                         _______ _______ _______ _____ _____    ______ ____
ROOT
ATOM      1  C   UNL     1       4.002   7.369  17.415  0.00  0.00    +0.000 C 
ENDROOT
BRANCH   1   2
ATOM      2  O   UNL     1       3.124   7.196  18.546  0.00  0.00    +0.000 OA
BRANCH   2   6
ATOM      3  C   UNL     1       0.133  10.225  19.113  0.00  0.00    +0.000 A 
ATOM      4  C   UNL     1       0.833   9.998  17.917  0.00  0.00    +0.000 A 
ATOM      5  C   UNL     1       1.821   8.990  17.794  0.00  0.00    +0.000 A 
ATOM      6  C   UNL     1       2.192   8.175  18.858  0.00  0.00    +0.000 A 
ATOM      7  C   UNL     1       1.537   8.390  20.071  0.00  0.00    +0.000 A 
ATOM      8  C   UNL     1       0.530   9.398  20.189  0.00  0.00    +0.000 A 
BRANCH   3  10
ATOM      9  C   UNL     1      -0.529  12.665  18.540  0.00  0.00    +0.000 C 
ATOM     10  C   UNL     1      -0.960  11.337  19.217  0.00  0.00    +0.000 C 
ATOM     11  C   UNL     1      -1.258  11.659  20.692  0.00  0.00    +0.000 C 
ATOM     12  C   UNL     1      -2.307  10.944  18.558  0.00  0.00    +0.000 C 
ENDBRANCH   3  10
ENDBRANCH   2   6
ENDBRANCH   1   2
BRANCH   1  13
ATOM     13  C   UNL     1       4.473   5.994  16.745  0.00  0.00    +0.000 C 
BRANCH  13  14
ATOM     14  N   UNL     1       4.438   4.819  17.621  0.00  0.00    +0.000 N 
ATOM     15  C   UNL     1       5.457   4.431  18.515  0.00  0.00    +0.000 A 
ATOM     16  S   UNL     1       6.592   5.372  19.275  0.00  0.00    +0.000 S 
ATOM     17  N   UNL     1       5.216   3.096  18.879  0.00  0.00    +0.000 N 
ATOM     18  C   UNL     1       3.855   2.886  18.635  0.00  0.00    +0.000 A 
ATOM     19  C   UNL     1       3.105   1.842  19.156  0.00  0.00    +0.000 A 
ATOM     20  C   UNL     1       1.726   1.972  19.094  0.00  0.00    +0.000 A 
ATOM     21  C   UNL     1       1.160   3.100  18.472  0.00  0.00    +0.000 A 
ATOM     22  C   UNL     1       1.957   4.102  17.852  0.00  0.00    +0.000 A 
ATOM     23  C   UNL     1       3.328   3.981  17.943  0.00  0.00    +0.000 A 
ATOM     24  H   UNL     1       5.775   2.451  18.326  0.00  0.00    +0.000 HD
ENDBRANCH  13  14
ENDBRANCH   1  13
TORSDOF 5
ENDMDL
MODEL 7
REMARK VINA RESULT:      -7.2      3.126      3.893
REMARK  Name = 
REMARK  8 active torsions:
REMARK  status: ('A' for Active; 'I' for Inactive)
REMARK    1  A    between atoms: C_1  and  C_2
REMARK    2  A    between atoms: C_2  and  C_3
REMARK    3  A    between atoms: C_2  and  C_4
REMARK    4  A    between atoms: C_2  and  C_5
REMARK    5  A    between atoms: C_8  and  O_9
REMARK    6  A    between atoms: O_9  and  C_10
REMARK    7  A    between atoms: C_10  and  C_11
REMARK    8  A    between atoms: C_11  and  N_12
REMARK                            x       y       z     vdW  Elec       q    Type
REMARK                         _______ _______ _______ _____ _____    ______ ____
ROOT
ATOM      1  C   UNL     1       3.585   5.605  17.172  0.00  0.00    +0.000 C 
ENDROOT
BRANCH   1   2
ATOM      2  O   UNL     1       3.417   5.694  18.602  0.00  0.00    +0.000 OA
BRANCH   2   6
ATOM      3  C   UNL     1       1.085   9.051  19.920  0.00  0.00    +0.000 A 
ATOM      4  C   UNL     1       1.735   8.958  18.678  0.00  0.00    +0.000 A 
ATOM      5  C   UNL     1       2.503   7.829  18.304  0.00  0.00    +0.000 A 
ATOM      6  C   UNL     1       2.697   6.744  19.153  0.00  0.00    +0.000 A 
ATOM      7  C   UNL     1       2.089   6.811  20.406  0.00  0.00    +0.000 A 
ATOM      8  C   UNL     1       1.302   7.947  20.776  0.00  0.00    +0.000 A 
BRANCH   3  10
ATOM      9  C   UNL     1      -0.987  10.506  19.366  0.00  0.00    +0.000 C 
ATOM     10  C   UNL     1       0.234  10.305  20.301  0.00  0.00    +0.000 C 
ATOM     11  C   UNL     1       1.090  11.581  20.205  0.00  0.00    +0.000 C 
ATOM     12  C   UNL     1      -0.339  10.250  21.740  0.00  0.00    +0.000 C 
ENDBRANCH   3  10
ENDBRANCH   2   6
ENDBRANCH   1   2
BRANCH   1  13
ATOM     13  C   UNL     1       4.438   4.335  16.699  0.00  0.00    +0.000 C 
BRANCH  13  14
ATOM     14  N   UNL     1       5.623   4.634  15.891  0.00  0.00    +0.000 N 
ATOM     15  C   UNL     1       6.876   5.044  16.392  0.00  0.00    +0.000 A 
ATOM     16  S   UNL     1       7.558   4.740  17.873  0.00  0.00    +0.000 S 
ATOM     17  N   UNL     1       7.608   5.576  15.317  0.00  0.00    +0.000 N 
ATOM     18  C   UNL     1       7.031   5.025  14.169  0.00  0.00    +0.000 A 
ATOM     19  C   UNL     1       7.627   4.992  12.916  0.00  0.00    +0.000 A 
ATOM     20  C   UNL     1       7.077   4.124  11.985  0.00  0.00    +0.000 A 
ATOM     21  C   UNL     1       5.935   3.375  12.321  0.00  0.00    +0.000 A 
ATOM     22  C   UNL     1       5.283   3.511  13.578  0.00  0.00    +0.000 A 
ATOM     23  C   UNL     1       5.853   4.354  14.511  0.00  0.00    +0.000 A 
ATOM     24  H   UNL     1       7.548   6.590  15.290  0.00  0.00    +0.000 HD
ENDBRANCH  13  14
ENDBRANCH   1  13
TORSDOF 5
ENDMDL
MODEL 8
REMARK VINA RESULT:      -7.2      1.118      1.475
REMARK  Name = 
REMARK  8 active torsions:
REMARK  status: ('A' for Active; 'I' for Inactive)
REMARK    1  A    between atoms: C_1  and  C_2
REMARK    2  A    between atoms: C_2  and  C_3
REMARK    3  A    between atoms: C_2  and  C_4
REMARK    4  A    between atoms: C_2  and  C_5
REMARK    5  A    between atoms: C_8  and  O_9
REMARK    6  A    between atoms: O_9  and  C_10
REMARK    7  A    between atoms: C_10  and  C_11
REMARK    8  A    between atoms: C_11  and  N_12
REMARK                            x       y       z     vdW  Elec       q    Type
REMARK                         _______ _______ _______ _____ _____    ______ ____
ROOT
ATOM      1  C   UNL     1       1.792   5.828  20.023  0.00  0.00    +0.000 C 
ENDROOT
BRANCH   1   2
ATOM      2  O   UNL     1       2.397   7.133  20.138  0.00  0.00    +0.000 OA
BRANCH   2   6
ATOM      3  C   UNL     1       0.067  10.615  21.083  0.00  0.00    +0.000 A 
ATOM      4  C   UNL     1       0.459   9.632  22.007  0.00  0.00    +0.000 A 
ATOM      5  C   UNL     1       1.217   8.496  21.633  0.00  0.00    +0.000 A 
ATOM      6  C   UNL     1       1.600   8.255  20.318  0.00  0.00    +0.000 A 
ATOM      7  C   UNL     1       1.206   9.196  19.367  0.00  0.00    +0.000 A 
ATOM      8  C   UNL     1       0.453  10.350  19.749  0.00  0.00    +0.000 A 
BRANCH   3  10
ATOM      9  C   UNL     1      -1.406  11.688  22.926  0.00  0.00    +0.000 C 
ATOM     10  C   UNL     1      -0.760  11.865  21.527  0.00  0.00    +0.000 C 
ATOM     11  C   UNL     1      -1.905  12.130  20.532  0.00  0.00    +0.000 C 
ATOM     12  C   UNL     1       0.079  13.165  21.609  0.00  0.00    +0.000 C 
ENDBRANCH   3  10
ENDBRANCH   2   6
ENDBRANCH   1   2
BRANCH   1  13
ATOM     13  C   UNL     1       2.252   5.016  18.723  0.00  0.00    +0.000 C 
BRANCH  13  14
ATOM     14  N   UNL     1       3.672   4.661  18.668  0.00  0.00    +0.000 N 
ATOM     15  C   UNL     1       4.201   3.363  18.820  0.00  0.00    +0.000 A 
ATOM     16  S   UNL     1       3.487   1.902  18.496  0.00  0.00    +0.000 S 
ATOM     17  N   UNL     1       5.577   3.492  19.072  0.00  0.00    +0.000 N 
ATOM     18  C   UNL     1       5.928   4.751  18.571  0.00  0.00    +0.000 A 
ATOM     19  C   UNL     1       7.223   5.163  18.293  0.00  0.00    +0.000 A 
ATOM     20  C   UNL     1       7.361   6.291  17.498  0.00  0.00    +0.000 A 
ATOM     21  C   UNL     1       6.216   6.983  17.065  0.00  0.00    +0.000 A 
ATOM     22  C   UNL     1       4.904   6.596  17.458  0.00  0.00    +0.000 A 
ATOM     23  C   UNL     1       4.772   5.456  18.224  0.00  0.00    +0.000 A 
ATOM     24  H   UNL     1       5.781   3.440  20.066  0.00  0.00    +0.000 HD
ENDBRANCH  13  14
ENDBRANCH   1  13
TORSDOF 5
ENDMDL
MODEL 9
REMARK VINA RESULT:      -7.2      1.156      1.509
REMARK  Name = 
REMARK  8 active torsions:
REMARK  status: ('A' for Active; 'I' for Inactive)
REMARK    1  A    between atoms: C_1  and  C_2
REMARK    2  A    between atoms: C_2  and  C_3
REMARK    3  A    between atoms: C_2  and  C_4
REMARK    4  A    between atoms: C_2  and  C_5
REMARK    5  A    between atoms: C_8  and  O_9
REMARK    6  A    between atoms: O_9  and  C_10
REMARK    7  A    between atoms: C_10  and  C_11
REMARK    8  A    between atoms: C_11  and  N_12
REMARK                            x       y       z     vdW  Elec       q    Type
REMARK                         _______ _______ _______ _____ _____    ______ ____
ROOT
ATOM      1  C   UNL     1       2.108   5.989  19.892  0.00  0.00    +0.000 C 
ENDROOT
BRANCH   1   2
ATOM      2  O   UNL     1       2.408   7.375  20.160  0.00  0.00    +0.000 OA
BRANCH   2   6
ATOM      3  C   UNL     1      -0.176  10.608  19.013  0.00  0.00    +0.000 A 
ATOM      4  C   UNL     1      -0.152  10.007  20.282  0.00  0.00    +0.000 A 
ATOM      5  C   UNL     1       0.714   8.932  20.599  0.00  0.00    +0.000 A 
ATOM      6  C   UNL     1       1.581   8.373  19.665  0.00  0.00    +0.000 A 
ATOM      7  C   UNL     1       1.566   8.926  18.385  0.00  0.00    +0.000 A 
ATOM      8  C   UNL     1       0.700  10.021  18.072  0.00  0.00    +0.000 A 
BRANCH   3  10
ATOM      9  C   UNL     1      -0.374  13.086  18.278  0.00  0.00    +0.000 C 
ATOM     10  C   UNL     1      -1.135  11.800  18.696  0.00  0.00    +0.000 C 
ATOM     11  C   UNL     1      -1.974  12.157  19.937  0.00  0.00    +0.000 C 
ATOM     12  C   UNL     1      -2.130  11.505  17.546  0.00  0.00    +0.000 C 
ENDBRANCH   3  10
ENDBRANCH   2   6
ENDBRANCH   1   2
BRANCH   1  13
ATOM     13  C   UNL     1       3.369   5.015  20.038  0.00  0.00    +0.000 C 
BRANCH  13  14
ATOM     14  N   UNL     1       3.838   4.396  18.795  0.00  0.00    +0.000 N 
ATOM     15  C   UNL     1       3.537   3.087  18.366  0.00  0.00    +0.000 A 
ATOM     16  S   UNL     1       2.213   2.152  18.719  0.00  0.00    +0.000 S 
ATOM     17  N   UNL     1       4.449   2.753  17.351  0.00  0.00    +0.000 N 
ATOM     18  C   UNL     1       4.908   3.976  16.851  0.00  0.00    +0.000 A 
ATOM     19  C   UNL     1       5.550   4.146  15.632  0.00  0.00    +0.000 A 
ATOM     20  C   UNL     1       5.631   5.441  15.145  0.00  0.00    +0.000 A 
ATOM     21  C   UNL     1       5.123   6.507  15.910  0.00  0.00    +0.000 A 
ATOM     22  C   UNL     1       4.567   6.311  17.205  0.00  0.00    +0.000 A 
ATOM     23  C   UNL     1       4.463   5.016  17.671  0.00  0.00    +0.000 A 
ATOM     24  H   UNL     1       5.226   2.207  17.713  0.00  0.00    +0.000 HD
ENDBRANCH  13  14
ENDBRANCH   1  13
TORSDOF 5
ENDMDL
