MODEL 1
REMARK VINA RESULT:      -7.6      0.000      0.000
REMARK  Name = 
REMARK  3 active torsions:
REMARK  status: ('A' for Active; 'I' for Inactive)
REMARK    1  A    between atoms: C_6  and  C_7
REMARK    2  A    between atoms: C_16  and  C_17
REMARK    3  A    between atoms: C_17  and  C_18
REMARK                            x       y       z     vdW  Elec       q    Type
REMARK                         _______ _______ _______ _____ _____    ______ ____
ROOT
ATOM      1  C   UNL     1       4.034   6.651  17.744  0.00  0.00    +0.000 A 
ATOM      2  N   UNL     1       3.698   7.858  17.176  0.00  0.00    +0.000 NA
ATOM      3  C   UNL     1       2.781   8.379  17.961  0.00  0.00    +0.000 A 
ATOM      4  C   UNL     1       2.069   9.607  17.871  0.00  0.00    +0.000 A 
ATOM      5  C   UNL     1       1.149   9.916  18.809  0.00  0.00    +0.000 A 
ATOM      6  C   UNL     1       0.871   9.015  19.913  0.00  0.00    +0.000 A 
ATOM      7 CL   UNL     1      -0.319   9.453  21.070  0.00  0.00    +0.000 Cl
ATOM      8  C   UNL     1       1.549   7.859  20.010  0.00  0.00    +0.000 A 
ATOM      9  N   UNL     1       2.504   7.545  19.041  0.00  0.00    +0.000 N 
ATOM     10  C   UNL     1       3.332   6.442  18.925  0.00  0.00    +0.000 A 
ENDROOT
BRANCH   1  16
ATOM     11 CL   UNL     1       5.679   3.961  13.655  0.00  0.00    +0.000 Cl
ATOM     12  C   UNL     1       5.887   4.539  15.265  0.00  0.00    +0.000 A 
ATOM     13  C   UNL     1       7.078   4.279  15.938  0.00  0.00    +0.000 A 
ATOM     14  C   UNL     1       7.247   4.739  17.242  0.00  0.00    +0.000 A 
ATOM     15  C   UNL     1       6.236   5.480  17.851  0.00  0.00    +0.000 A 
ATOM     16  C   UNL     1       5.058   5.796  17.163  0.00  0.00    +0.000 A 
ATOM     17  C   UNL     1       4.874   5.282  15.872  0.00  0.00    +0.000 A 
ENDBRANCH   1  16
BRANCH  10  18
ATOM     18  C   UNL     1       3.387   5.360  19.958  0.00  0.00    +0.000 C 
BRANCH  18  19
ATOM     19  C   UNL     1       2.804   4.035  19.520  0.00  0.00    +0.000 A 
ATOM     20  C   UNL     1       3.535   2.864  19.119  0.00  0.00    +0.000 A 
ATOM     21  C   UNL     1       2.717   1.819  18.749  0.00  0.00    +0.000 A 
ATOM     22  S   UNL     1       1.066   2.206  18.930  0.00  0.00    +0.000 S 
ATOM     23  C   UNL     1       1.442   3.784  19.470  0.00  0.00    +0.000 A 
ENDBRANCH  18  19
ENDBRANCH  10  18
TORSDOF 3
ENDMDL
MODEL 2
REMARK VINA RESULT:      -7.5      3.042      5.888
REMARK  Name = 
REMARK  3 active torsions:
REMARK  status: ('A' for Active; 'I' for Inactive)
REMARK    1  A    between atoms: C_6  and  C_7
REMARK    2  A    between atoms: C_16  and  C_17
REMARK    3  A    between atoms: C_17  and  C_18
REMARK                            x       y       z     vdW  Elec       q    Type
REMARK                         _______ _______ _______ _____ _____    ______ ____
ROOT
ATOM      1  C   UNL     1       4.555   4.598  18.718  0.00  0.00    +0.000 A 
ATOM      2  N   UNL     1       5.791   4.391  19.284  0.00  0.00    +0.000 NA
ATOM      3  C   UNL     1       6.518   5.431  18.944  0.00  0.00    +0.000 A 
ATOM      4  C   UNL     1       7.871   5.757  19.240  0.00  0.00    +0.000 A 
ATOM      5  C   UNL     1       8.406   6.897  18.754  0.00  0.00    +0.000 A 
ATOM      6  C   UNL     1       7.622   7.802  17.932  0.00  0.00    +0.000 A 
ATOM      7 CL   UNL     1       8.358   9.231  17.330  0.00  0.00    +0.000 Cl
ATOM      8  C   UNL     1       6.341   7.506  17.659  0.00  0.00    +0.000 A 
ATOM      9  N   UNL     1       5.789   6.329  18.168  0.00  0.00    +0.000 N 
ATOM     10  C   UNL     1       4.511   5.813  18.044  0.00  0.00    +0.000 A 
ENDROOT
BRANCH   1  16
ATOM     11 CL   UNL     1       1.159   2.450  21.960  0.00  0.00    +0.000 Cl
ATOM     12  C   UNL     1       1.833   2.636  20.386  0.00  0.00    +0.000 A 
ATOM     13  C   UNL     1       1.249   1.975  19.308  0.00  0.00    +0.000 A 
ATOM     14  C   UNL     1       1.795   2.118  18.035  0.00  0.00    +0.000 A 
ATOM     15  C   UNL     1       2.903   2.943  17.845  0.00  0.00    +0.000 A 
ATOM     16  C   UNL     1       3.462   3.656  18.912  0.00  0.00    +0.000 A 
ATOM     17  C   UNL     1       2.940   3.464  20.198  0.00  0.00    +0.000 A 
ENDBRANCH   1  16
BRANCH  10  18
ATOM     18  C   UNL     1       3.407   6.545  17.348  0.00  0.00    +0.000 C 
BRANCH  18  19
ATOM     19  C   UNL     1       2.602   7.469  18.234  0.00  0.00    +0.000 A 
ATOM     20  C   UNL     1       1.989   8.712  17.850  0.00  0.00    +0.000 A 
ATOM     21  C   UNL     1       1.343   9.340  18.892  0.00  0.00    +0.000 A 
ATOM     22  S   UNL     1       1.413   8.425  20.329  0.00  0.00    +0.000 S 
ATOM     23  C   UNL     1       2.338   7.204  19.568  0.00  0.00    +0.000 A 
ENDBRANCH  18  19
ENDBRANCH  10  18
TORSDOF 3
ENDMDL
MODEL 3
REMARK VINA RESULT:      -7.1      1.296      1.719
REMARK  Name = 
REMARK  3 active torsions:
REMARK  status: ('A' for Active; 'I' for Inactive)
REMARK    1  A    between atoms: C_6  and  C_7
REMARK    2  A    between atoms: C_16  and  C_17
REMARK    3  A    between atoms: C_17  and  C_18
REMARK                            x       y       z     vdW  Elec       q    Type
REMARK                         _______ _______ _______ _____ _____    ______ ____
ROOT
ATOM      1  C   UNL     1       3.811   7.029  17.675  0.00  0.00    +0.000 A 
ATOM      2  N   UNL     1       3.290   8.204  17.184  0.00  0.00    +0.000 NA
ATOM      3  C   UNL     1       2.417   8.609  18.078  0.00  0.00    +0.000 A 
ATOM      4  C   UNL     1       1.576   9.756  18.104  0.00  0.00    +0.000 A 
ATOM      5  C   UNL     1       0.739   9.948  19.145  0.00  0.00    +0.000 A 
ATOM      6  C   UNL     1       0.681   9.002  20.245  0.00  0.00    +0.000 A 
ATOM      7 CL   UNL     1      -0.412   9.290  21.537  0.00  0.00    +0.000 Cl
ATOM      8  C   UNL     1       1.482   7.924  20.233  0.00  0.00    +0.000 A 
ATOM      9  N   UNL     1       2.351   7.731  19.157  0.00  0.00    +0.000 N 
ATOM     10  C   UNL     1       3.270   6.725  18.919  0.00  0.00    +0.000 A 
ENDROOT
BRANCH   1  16
ATOM     11 CL   UNL     1       8.199   4.318  17.909  0.00  0.00    +0.000 Cl
ATOM     12  C   UNL     1       6.892   5.001  17.018  0.00  0.00    +0.000 A 
ATOM     13  C   UNL     1       6.785   4.745  15.653  0.00  0.00    +0.000 A 
ATOM     14  C   UNL     1       5.734   5.301  14.928  0.00  0.00    +0.000 A 
ATOM     15  C   UNL     1       4.781   6.083  15.579  0.00  0.00    +0.000 A 
ATOM     16  C   UNL     1       4.847   6.299  16.961  0.00  0.00    +0.000 A 
ATOM     17  C   UNL     1       5.939   5.782  17.672  0.00  0.00    +0.000 A 
ENDBRANCH   1  16
BRANCH  10  18
ATOM     18  C   UNL     1       3.552   5.636  19.906  0.00  0.00    +0.000 C 
BRANCH  18  19
ATOM     19  C   UNL     1       2.568   4.489  19.885  0.00  0.00    +0.000 A 
ATOM     20  C   UNL     1       1.937   3.874  21.022  0.00  0.00    +0.000 A 
ATOM     21  C   UNL     1       1.106   2.831  20.679  0.00  0.00    +0.000 A 
ATOM     22  S   UNL     1       1.026   2.608  18.990  0.00  0.00    +0.000 S 
ATOM     23  C   UNL     1       2.130   3.885  18.717  0.00  0.00    +0.000 A 
ENDBRANCH  18  19
ENDBRANCH  10  18
TORSDOF 3
ENDMDL
MODEL 4
REMARK VINA RESULT:      -7.1      1.596      1.959
REMARK  Name = 
REMARK  3 active torsions:
REMARK  status: ('A' for Active; 'I' for Inactive)
REMARK    1  A    between atoms: C_6  and  C_7
REMARK    2  A    between atoms: C_16  and  C_17
REMARK    3  A    between atoms: C_17  and  C_18
REMARK                            x       y       z     vdW  Elec       q    Type
REMARK                         _______ _______ _______ _____ _____    ______ ____
ROOT
ATOM      1  C   UNL     1       2.894   6.900  18.498  0.00  0.00    +0.000 A 
ATOM      2  N   UNL     1       2.682   8.088  17.837  0.00  0.00    +0.000 NA
ATOM      3  C   UNL     1       1.935   8.814  18.637  0.00  0.00    +0.000 A 
ATOM      4  C   UNL     1       1.405  10.124  18.479  0.00  0.00    +0.000 A 
ATOM      5  C   UNL     1       0.638  10.657  19.453  0.00  0.00    +0.000 A 
ATOM      6  C   UNL     1       0.344   9.915  20.666  0.00  0.00    +0.000 A 
ATOM      7 CL   UNL     1      -0.648  10.637  21.867  0.00  0.00    +0.000 Cl
ATOM      8  C   UNL     1       0.851   8.682  20.827  0.00  0.00    +0.000 A 
ATOM      9  N   UNL     1       1.649   8.136  19.819  0.00  0.00    +0.000 N 
ATOM     10  C   UNL     1       2.290   6.912  19.750  0.00  0.00    +0.000 A 
ENDROOT
BRANCH   1  16
ATOM     11 CL   UNL     1       7.619   4.937  17.811  0.00  0.00    +0.000 Cl
ATOM     12  C   UNL     1       5.912   4.872  17.594  0.00  0.00    +0.000 A 
ATOM     13  C   UNL     1       5.340   3.758  16.982  0.00  0.00    +0.000 A 
ATOM     14  C   UNL     1       3.960   3.705  16.800  0.00  0.00    +0.000 A 
ATOM     15  C   UNL     1       3.160   4.750  17.257  0.00  0.00    +0.000 A 
ATOM     16  C   UNL     1       3.719   5.847  17.926  0.00  0.00    +0.000 A 
ATOM     17  C   UNL     1       5.113   5.918  18.055  0.00  0.00    +0.000 A 
ENDBRANCH   1  16
BRANCH  10  18
ATOM     18  C   UNL     1       2.290   5.933  20.883  0.00  0.00    +0.000 C 
BRANCH  18  19
ATOM     19  C   UNL     1       2.065   4.494  20.478  0.00  0.00    +0.000 A 
ATOM     20  C   UNL     1       3.007   3.412  20.586  0.00  0.00    +0.000 A 
ATOM     21  C   UNL     1       2.514   2.219  20.106  0.00  0.00    +0.000 A 
ATOM     22  S   UNL     1       0.901   2.363  19.572  0.00  0.00    +0.000 S 
ATOM     23  C   UNL     1       0.871   4.031  19.949  0.00  0.00    +0.000 A 
ENDBRANCH  18  19
ENDBRANCH  10  18
TORSDOF 3
ENDMDL
MODEL 5
REMARK VINA RESULT:      -7.1      1.532      5.838
REMARK  Name = 
REMARK  3 active torsions:
REMARK  status: ('A' for Active; 'I' for Inactive)
REMARK    1  A    between atoms: C_6  and  C_7
REMARK    2  A    between atoms: C_16  and  C_17
REMARK    3  A    between atoms: C_17  and  C_18
REMARK                            x       y       z     vdW  Elec       q    Type
REMARK                         _______ _______ _______ _____ _____    ______ ____
ROOT
ATOM      1  C   UNL     1       2.969   7.209  18.420  0.00  0.00    +0.000 A 
ATOM      2  N   UNL     1       4.112   7.781  17.910  0.00  0.00    +0.000 NA
ATOM      3  C   UNL     1       4.696   6.841  17.201  0.00  0.00    +0.000 A 
ATOM      4  C   UNL     1       5.904   6.858  16.451  0.00  0.00    +0.000 A 
ATOM      5  C   UNL     1       6.308   5.741  15.811  0.00  0.00    +0.000 A 
ATOM      6  C   UNL     1       5.529   4.517  15.872  0.00  0.00    +0.000 A 
ATOM      7 CL   UNL     1       6.098   3.123  15.048  0.00  0.00    +0.000 Cl
ATOM      8  C   UNL     1       4.381   4.499  16.568  0.00  0.00    +0.000 A 
ATOM      9  N   UNL     1       3.962   5.658  17.226  0.00  0.00    +0.000 N 
ATOM     10  C   UNL     1       2.830   5.897  17.985  0.00  0.00    +0.000 A 
ENDROOT
BRANCH   1  16
ATOM     11 CL   UNL     1      -0.392  11.116  18.731  0.00  0.00    +0.000 Cl
ATOM     12  C   UNL     1       0.434   9.777  19.431  0.00  0.00    +0.000 A 
ATOM     13  C   UNL     1       0.112   9.373  20.725  0.00  0.00    +0.000 A 
ATOM     14  C   UNL     1       0.783   8.294  21.297  0.00  0.00    +0.000 A 
ATOM     15  C   UNL     1       1.748   7.610  20.560  0.00  0.00    +0.000 A 
ATOM     16  C   UNL     1       2.038   7.971  19.239  0.00  0.00    +0.000 A 
ATOM     17  C   UNL     1       1.398   9.092  18.691  0.00  0.00    +0.000 A 
ENDBRANCH   1  16
BRANCH  10  18
ATOM     18  C   UNL     1       1.748   4.879  18.166  0.00  0.00    +0.000 C 
BRANCH  18  19
ATOM     19  C   UNL     1       1.875   4.033  19.412  0.00  0.00    +0.000 A 
ATOM     20  C   UNL     1       0.837   3.744  20.366  0.00  0.00    +0.000 A 
ATOM     21  C   UNL     1       1.271   2.963  21.414  0.00  0.00    +0.000 A 
ATOM     22  S   UNL     1       2.908   2.519  21.244  0.00  0.00    +0.000 S 
ATOM     23  C   UNL     1       3.049   3.400  19.785  0.00  0.00    +0.000 A 
ENDBRANCH  18  19
ENDBRANCH  10  18
TORSDOF 3
ENDMDL
MODEL 6
REMARK VINA RESULT:      -6.7      5.300     10.173
REMARK  Name = 
REMARK  3 active torsions:
REMARK  status: ('A' for Active; 'I' for Inactive)
REMARK    1  A    between atoms: C_6  and  C_7
REMARK    2  A    between atoms: C_16  and  C_17
REMARK    3  A    between atoms: C_17  and  C_18
REMARK                            x       y       z     vdW  Elec       q    Type
REMARK                         _______ _______ _______ _____ _____    ______ ____
ROOT
ATOM      1  C   UNL     1      -0.859  11.439  22.095  0.00  0.00    +0.000 A 
ATOM      2  N   UNL     1      -0.182  10.397  22.687  0.00  0.00    +0.000 NA
ATOM      3  C   UNL     1       0.425   9.764  21.709  0.00  0.00    +0.000 A 
ATOM      4  C   UNL     1       1.262   8.614  21.724  0.00  0.00    +0.000 A 
ATOM      5  C   UNL     1       1.762   8.136  20.565  0.00  0.00    +0.000 A 
ATOM      6  C   UNL     1       1.461   8.777  19.298  0.00  0.00    +0.000 A 
ATOM      7 CL   UNL     1       2.114   8.118  17.854  0.00  0.00    +0.000 Cl
ATOM      8  C   UNL     1       0.682   9.870  19.278  0.00  0.00    +0.000 A 
ATOM      9  N   UNL     1       0.171  10.366  20.480  0.00  0.00    +0.000 N 
ATOM     10  C   UNL     1      -0.632  11.466  20.724  0.00  0.00    +0.000 A 
ENDROOT
BRANCH   1  16
ATOM     11 CL   UNL     1      -5.160  12.432  24.773  0.00  0.00    +0.000 Cl
ATOM     12  C   UNL     1      -3.616  12.900  24.169  0.00  0.00    +0.000 A 
ATOM     13  C   UNL     1      -3.080  14.131  24.539  0.00  0.00    +0.000 A 
ATOM     14  C   UNL     1      -1.835  14.516  24.048  0.00  0.00    +0.000 A 
ATOM     15  C   UNL     1      -1.123  13.655  23.214  0.00  0.00    +0.000 A 
ATOM     16  C   UNL     1      -1.628  12.391  22.882  0.00  0.00    +0.000 A 
ATOM     17  C   UNL     1      -2.905  12.035  23.336  0.00  0.00    +0.000 A 
ENDBRANCH   1  16
BRANCH  10  18
ATOM     18  C   UNL     1      -1.044  12.422  19.649  0.00  0.00    +0.000 C 
BRANCH  18  19
ATOM     19  C   UNL     1      -2.367  12.104  18.991  0.00  0.00    +0.000 A 
ATOM     20  C   UNL     1      -3.678  12.311  19.547  0.00  0.00    +0.000 A 
ATOM     21  C   UNL     1      -4.690  11.895  18.711  0.00  0.00    +0.000 A 
ATOM     22  S   UNL     1      -4.090  11.302  17.229  0.00  0.00    +0.000 S 
ATOM     23  C   UNL     1      -2.473  11.570  17.717  0.00  0.00    +0.000 A 
ENDBRANCH  18  19
ENDBRANCH  10  18
TORSDOF 3
ENDMDL
MODEL 7
REMARK VINA RESULT:      -6.7      1.517      5.956
REMARK  Name = 
REMARK  3 active torsions:
REMARK  status: ('A' for Active; 'I' for Inactive)
REMARK    1  A    between atoms: C_6  and  C_7
REMARK    2  A    between atoms: C_16  and  C_17
REMARK    3  A    between atoms: C_17  and  C_18
REMARK                            x       y       z     vdW  Elec       q    Type
REMARK                         _______ _______ _______ _____ _____    ______ ____
ROOT
ATOM      1  C   UNL     1       2.764   7.501  18.216  0.00  0.00    +0.000 A 
ATOM      2  N   UNL     1       3.979   7.997  17.801  0.00  0.00    +0.000 NA
ATOM      3  C   UNL     1       4.610   6.984  17.252  0.00  0.00    +0.000 A 
ATOM      4  C   UNL     1       5.899   6.904  16.656  0.00  0.00    +0.000 A 
ATOM      5  C   UNL     1       6.337   5.725  16.167  0.00  0.00    +0.000 A 
ATOM      6  C   UNL     1       5.514   4.531  16.238  0.00  0.00    +0.000 A 
ATOM      7 CL   UNL     1       6.128   3.056  15.611  0.00  0.00    +0.000 Cl
ATOM      8  C   UNL     1       4.291   4.603  16.788  0.00  0.00    +0.000 A 
ATOM      9  N   UNL     1       3.838   5.826  17.288  0.00  0.00    +0.000 N 
ATOM     10  C   UNL     1       2.633   6.158  17.881  0.00  0.00    +0.000 A 
ENDROOT
BRANCH   1  16
ATOM     11 CL   UNL     1       0.518   9.107  22.579  0.00  0.00    +0.000 Cl
ATOM     12  C   UNL     1       0.699   9.159  20.867  0.00  0.00    +0.000 A 
ATOM     13  C   UNL     1      -0.020  10.097  20.130  0.00  0.00    +0.000 A 
ATOM     14  C   UNL     1       0.119  10.138  18.744  0.00  0.00    +0.000 A 
ATOM     15  C   UNL     1       0.998   9.262  18.111  0.00  0.00    +0.000 A 
ATOM     16  C   UNL     1       1.769   8.355  18.848  0.00  0.00    +0.000 A 
ATOM     17  C   UNL     1       1.582   8.283  20.235  0.00  0.00    +0.000 A 
ENDBRANCH   1  16
BRANCH  10  18
ATOM     18  C   UNL     1       1.502   5.188  18.016  0.00  0.00    +0.000 C 
BRANCH  18  19
ATOM     19  C   UNL     1       1.616   4.238  19.186  0.00  0.00    +0.000 A 
ATOM     20  C   UNL     1       1.352   2.824  19.177  0.00  0.00    +0.000 A 
ATOM     21  C   UNL     1       1.521   2.237  20.411  0.00  0.00    +0.000 A 
ATOM     22  S   UNL     1       2.050   3.355  21.584  0.00  0.00    +0.000 S 
ATOM     23  C   UNL     1       2.021   4.636  20.450  0.00  0.00    +0.000 A 
ENDBRANCH  18  19
ENDBRANCH  10  18
TORSDOF 3
ENDMDL
MODEL 8
REMARK VINA RESULT:      -6.7      5.603     10.495
REMARK  Name = 
REMARK  3 active torsions:
REMARK  status: ('A' for Active; 'I' for Inactive)
REMARK    1  A    between atoms: C_6  and  C_7
REMARK    2  A    between atoms: C_16  and  C_17
REMARK    3  A    between atoms: C_17  and  C_18
REMARK                            x       y       z     vdW  Elec       q    Type
REMARK                         _______ _______ _______ _____ _____    ______ ____
ROOT
ATOM      1  C   UNL     1      -1.083  11.595  22.390  0.00  0.00    +0.000 A 
ATOM      2  N   UNL     1      -0.333  10.589  22.955  0.00  0.00    +0.000 NA
ATOM      3  C   UNL     1       0.260   9.980  21.954  0.00  0.00    +0.000 A 
ATOM      4  C   UNL     1       1.150   8.870  21.936  0.00  0.00    +0.000 A 
ATOM      5  C   UNL     1       1.621   8.411  20.758  0.00  0.00    +0.000 A 
ATOM      6  C   UNL     1       1.236   9.031  19.502  0.00  0.00    +0.000 A 
ATOM      7 CL   UNL     1       1.857   8.396  18.033  0.00  0.00    +0.000 Cl
ATOM      8  C   UNL     1       0.407  10.087  19.513  0.00  0.00    +0.000 A 
ATOM      9  N   UNL     1      -0.075  10.564  20.735  0.00  0.00    +0.000 N 
ATOM     10  C   UNL     1      -0.917  11.627  21.011  0.00  0.00    +0.000 A 
ENDROOT
BRANCH   1  16
ATOM     11 CL   UNL     1      -1.416  16.228  24.644  0.00  0.00    +0.000 Cl
ATOM     12  C   UNL     1      -2.077  14.684  24.265  0.00  0.00    +0.000 A 
ATOM     13  C   UNL     1      -3.385  14.386  24.641  0.00  0.00    +0.000 A 
ATOM     14  C   UNL     1      -3.921  13.135  24.342  0.00  0.00    +0.000 A 
ATOM     15  C   UNL     1      -3.156  12.204  23.641  0.00  0.00    +0.000 A 
ATOM     16  C   UNL     1      -1.861  12.515  23.207  0.00  0.00    +0.000 A 
ATOM     17  C   UNL     1      -1.310  13.754  23.562  0.00  0.00    +0.000 A 
ENDBRANCH   1  16
BRANCH  10  18
ATOM     18  C   UNL     1      -1.420  12.557  19.952  0.00  0.00    +0.000 C 
BRANCH  18  19
ATOM     19  C   UNL     1      -2.811  12.251  19.446  0.00  0.00    +0.000 A 
ATOM     20  C   UNL     1      -4.054  12.646  20.054  0.00  0.00    +0.000 A 
ATOM     21  C   UNL     1      -5.158  12.190  19.368  0.00  0.00    +0.000 A 
ATOM     22  S   UNL     1      -4.724  11.331  17.960  0.00  0.00    +0.000 S 
ATOM     23  C   UNL     1      -3.058  11.538  18.284  0.00  0.00    +0.000 A 
ENDBRANCH  18  19
ENDBRANCH  10  18
TORSDOF 3
ENDMDL
MODEL 9
REMARK VINA RESULT:      -6.6      2.510      4.232
REMARK  Name = 
REMARK  3 active torsions:
REMARK  status: ('A' for Active; 'I' for Inactive)
REMARK    1  A    between atoms: C_6  and  C_7
REMARK    2  A    between atoms: C_16  and  C_17
REMARK    3  A    between atoms: C_17  and  C_18
REMARK                            x       y       z     vdW  Elec       q    Type
REMARK                         _______ _______ _______ _____ _____    ______ ____
ROOT
ATOM      1  C   UNL     1       2.476   5.646  19.338  0.00  0.00    +0.000 A 
ATOM      2  N   UNL     1       1.747   5.965  20.460  0.00  0.00    +0.000 NA
ATOM      3  C   UNL     1       1.537   7.260  20.392  0.00  0.00    +0.000 A 
ATOM      4  C   UNL     1       0.846   8.138  21.273  0.00  0.00    +0.000 A 
ATOM      5  C   UNL     1       0.780   9.455  20.988  0.00  0.00    +0.000 A 
ATOM      6  C   UNL     1       1.402   9.997  19.793  0.00  0.00    +0.000 A 
ATOM      7 CL   UNL     1       1.296  11.682  19.488  0.00  0.00    +0.000 Cl
ATOM      8  C   UNL     1       2.044   9.172  18.951  0.00  0.00    +0.000 A 
ATOM      9  N   UNL     1       2.107   7.808  19.246  0.00  0.00    +0.000 N 
ATOM     10  C   UNL     1       2.688   6.767  18.544  0.00  0.00    +0.000 A 
ENDROOT
BRANCH   1  16
ATOM     11 CL   UNL     1       5.178   1.485  20.768  0.00  0.00    +0.000 Cl
ATOM     12  C   UNL     1       4.101   2.288  19.691  0.00  0.00    +0.000 A 
ATOM     13  C   UNL     1       3.533   1.578  18.635  0.00  0.00    +0.000 A 
ATOM     14  C   UNL     1       2.666   2.225  17.757  0.00  0.00    +0.000 A 
ATOM     15  C   UNL     1       2.350   3.568  17.960  0.00  0.00    +0.000 A 
ATOM     16  C   UNL     1       2.870   4.274  19.052  0.00  0.00    +0.000 A 
ATOM     17  C   UNL     1       3.785   3.631  19.897  0.00  0.00    +0.000 A 
ENDBRANCH   1  16
BRANCH  10  18
ATOM     18  C   UNL     1       3.327   6.951  17.203  0.00  0.00    +0.000 C 
BRANCH  18  19
ATOM     19  C   UNL     1       4.696   6.326  17.061  0.00  0.00    +0.000 A 
ATOM     20  C   UNL     1       5.152   5.489  15.984  0.00  0.00    +0.000 A 
ATOM     21  C   UNL     1       6.447   5.050  16.154  0.00  0.00    +0.000 A 
ATOM     22  S   UNL     1       7.152   5.677  17.574  0.00  0.00    +0.000 S 
ATOM     23  C   UNL     1       5.714   6.510  17.982  0.00  0.00    +0.000 A 
ENDBRANCH  18  19
ENDBRANCH  10  18
TORSDOF 3
ENDMDL
