MODEL 1
REMARK VINA RESULT:      -8.3      0.000      0.000
REMARK  Name = 
REMARK  9 active torsions:
REMARK  status: ('A' for Active; 'I' for Inactive)
REMARK    1  A    between atoms: C_1  and  C_2
REMARK    2  A    between atoms: C_2  and  C_3
REMARK    3  A    between atoms: C_3  and  C_4
REMARK    4  A    between atoms: C_4  and  C_5
REMARK    5  A    between atoms: C_5  and  C_6
REMARK    6  A    between atoms: C_6  and  C_7
REMARK    7  A    between atoms: C_7  and  O_9
REMARK    8  A    between atoms: O_9  and  C_10
REMARK    9  A    between atoms: C_17  and  C_18
REMARK                            x       y       z     vdW  Elec       q    Type
REMARK                         _______ _______ _______ _____ _____    ______ ____
ROOT
ATOM      1  C   UNL     1       6.258   6.253  16.644  0.00  0.00    +0.000 A 
ATOM      2  C   UNL     1       7.014   5.241  16.029  0.00  0.00    +0.000 A 
ATOM      3  C   UNL     1       6.488   3.968  15.894  0.00  0.00    +0.000 A 
ATOM      4  C   UNL     1       5.207   3.709  16.344  0.00  0.00    +0.000 A 
ATOM      5  C   UNL     1       4.445   4.724  16.935  0.00  0.00    +0.000 A 
ATOM      6  C   UNL     1       3.154   4.436  17.382  0.00  0.00    +0.000 A 
ATOM      7  C   UNL     1       2.391   5.427  17.979  0.00  0.00    +0.000 A 
ATOM      8  C   UNL     1       2.933   6.696  18.127  0.00  0.00    +0.000 A 
ATOM      9  N   UNL     1       4.184   7.002  17.677  0.00  0.00    +0.000 NA
ATOM     10  C   UNL     1       4.946   6.036  17.101  0.00  0.00    +0.000 A 
ENDROOT
BRANCH   8  11
ATOM     11  C   UNL     1       2.203   7.775  18.827  0.00  0.00    +0.000 A 
ATOM     12  C   UNL     1       1.780   8.938  18.147  0.00  0.00    +0.000 A 
ATOM     13  C   UNL     1       1.042   9.933  18.793  0.00  0.00    +0.000 A 
ATOM     14  C   UNL     1       0.719   9.779  20.131  0.00  0.00    +0.000 A 
ATOM     15  F   UNL     1      -0.013  10.716  20.743  0.00  0.00    +0.000 F 
ATOM     16  C   UNL     1       1.136   8.660  20.840  0.00  0.00    +0.000 A 
ATOM     17  C   UNL     1       1.876   7.666  20.192  0.00  0.00    +0.000 A 
ENDBRANCH   8  11
BRANCH   1  18
ATOM     18  O   UNL     1       6.798   7.564  16.696  0.00  0.00    +0.000 OA
BRANCH  18  19
ATOM     19  C   UNL     1       7.671   7.834  17.747  0.00  0.00    +0.000 C 
ATOM     20  O   UNL     1       8.110   7.016  18.547  0.00  0.00    +0.000 OA
BRANCH  19  21
ATOM     21  C   UNL     1       8.063   9.296  17.729  0.00  0.00    +0.000 C 
BRANCH  21  22
ATOM     22  C   UNL     1       8.977   9.604  18.919  0.00  0.00    +0.000 C 
BRANCH  22  23
ATOM     23  C   UNL     1       9.756  10.910  18.756  0.00  0.00    +0.000 C 
BRANCH  23  24
ATOM     24  C   UNL     1      10.322  11.366  20.105  0.00  0.00    +0.000 C 
BRANCH  24  26
ATOM     25  C   UNL     1       9.312  12.732  21.963  0.00  0.00    +0.000 C 
ATOM     26  C   UNL     1       9.247  11.422  21.190  0.00  0.00    +0.000 C 
ENDBRANCH  24  26
ENDBRANCH  23  24
ENDBRANCH  22  23
ENDBRANCH  21  22
ENDBRANCH  19  21
ENDBRANCH  18  19
ENDBRANCH   1  18
TORSDOF 8
ENDMDL
MODEL 2
REMARK VINA RESULT:      -8.2      0.873      1.553
REMARK  Name = 
REMARK  9 active torsions:
REMARK  status: ('A' for Active; 'I' for Inactive)
REMARK    1  A    between atoms: C_1  and  C_2
REMARK    2  A    between atoms: C_2  and  C_3
REMARK    3  A    between atoms: C_3  and  C_4
REMARK    4  A    between atoms: C_4  and  C_5
REMARK    5  A    between atoms: C_5  and  C_6
REMARK    6  A    between atoms: C_6  and  C_7
REMARK    7  A    between atoms: C_7  and  O_9
REMARK    8  A    between atoms: O_9  and  C_10
REMARK    9  A    between atoms: C_17  and  C_18
REMARK                            x       y       z     vdW  Elec       q    Type
REMARK                         _______ _______ _______ _____ _____    ______ ____
ROOT
ATOM      1  C   UNL     1       6.178   6.267  16.655  0.00  0.00    +0.000 A 
ATOM      2  C   UNL     1       6.945   5.270  16.029  0.00  0.00    +0.000 A 
ATOM      3  C   UNL     1       6.438   3.989  15.890  0.00  0.00    +0.000 A 
ATOM      4  C   UNL     1       5.165   3.708  16.349  0.00  0.00    +0.000 A 
ATOM      5  C   UNL     1       4.392   4.707  16.952  0.00  0.00    +0.000 A 
ATOM      6  C   UNL     1       3.109   4.396  17.407  0.00  0.00    +0.000 A 
ATOM      7  C   UNL     1       2.335   5.371  18.016  0.00  0.00    +0.000 A 
ATOM      8  C   UNL     1       2.858   6.649  18.168  0.00  0.00    +0.000 A 
ATOM      9  N   UNL     1       4.101   6.977  17.709  0.00  0.00    +0.000 NA
ATOM     10  C   UNL     1       4.874   6.026  17.122  0.00  0.00    +0.000 A 
ENDROOT
BRANCH   8  11
ATOM     11  C   UNL     1       2.117   7.712  18.879  0.00  0.00    +0.000 A 
ATOM     12  C   UNL     1       1.848   7.621  20.263  0.00  0.00    +0.000 A 
ATOM     13  C   UNL     1       1.197   8.649  20.948  0.00  0.00    +0.000 A 
ATOM     14  C   UNL     1       0.802   9.783  20.257  0.00  0.00    +0.000 A 
ATOM     15  F   UNL     1       0.205  10.782  20.917  0.00  0.00    +0.000 F 
ATOM     16  C   UNL     1       1.028   9.900  18.891  0.00  0.00    +0.000 A 
ATOM     17  C   UNL     1       1.679   8.868  18.207  0.00  0.00    +0.000 A 
ENDBRANCH   8  11
BRANCH   1  18
ATOM     18  O   UNL     1       6.697   7.585  16.711  0.00  0.00    +0.000 OA
BRANCH  18  19
ATOM     19  C   UNL     1       7.617   7.848  17.724  0.00  0.00    +0.000 C 
ATOM     20  O   UNL     1       8.066   7.031  18.519  0.00  0.00    +0.000 OA
BRANCH  19  21
ATOM     21  C   UNL     1       8.044   9.299  17.667  0.00  0.00    +0.000 C 
BRANCH  21  22
ATOM     22  C   UNL     1       8.979   9.610  18.840  0.00  0.00    +0.000 C 
BRANCH  22  23
ATOM     23  C   UNL     1       9.470  11.059  18.849  0.00  0.00    +0.000 C 
BRANCH  23  24
ATOM     24  C   UNL     1      10.959  11.116  19.207  0.00  0.00    +0.000 C 
BRANCH  24  26
ATOM     25  C   UNL     1      10.918  12.768  17.309  0.00  0.00    +0.000 C 
ATOM     26  C   UNL     1      11.664  12.303  18.552  0.00  0.00    +0.000 C 
ENDBRANCH  24  26
ENDBRANCH  23  24
ENDBRANCH  22  23
ENDBRANCH  21  22
ENDBRANCH  19  21
ENDBRANCH  18  19
ENDBRANCH   1  18
TORSDOF 8
ENDMDL
MODEL 3
REMARK VINA RESULT:      -8.0      1.017      1.306
REMARK  Name = 
REMARK  9 active torsions:
REMARK  status: ('A' for Active; 'I' for Inactive)
REMARK    1  A    between atoms: C_1  and  C_2
REMARK    2  A    between atoms: C_2  and  C_3
REMARK    3  A    between atoms: C_3  and  C_4
REMARK    4  A    between atoms: C_4  and  C_5
REMARK    5  A    between atoms: C_5  and  C_6
REMARK    6  A    between atoms: C_6  and  C_7
REMARK    7  A    between atoms: C_7  and  O_9
REMARK    8  A    between atoms: O_9  and  C_10
REMARK    9  A    between atoms: C_17  and  C_18
REMARK                            x       y       z     vdW  Elec       q    Type
REMARK                         _______ _______ _______ _____ _____    ______ ____
ROOT
ATOM      1  C   UNL     1       6.202   6.215  16.625  0.00  0.00    +0.000 A 
ATOM      2  C   UNL     1       6.943   5.193  16.008  0.00  0.00    +0.000 A 
ATOM      3  C   UNL     1       6.407   3.922  15.889  0.00  0.00    +0.000 A 
ATOM      4  C   UNL     1       5.130   3.676  16.357  0.00  0.00    +0.000 A 
ATOM      5  C   UNL     1       4.383   4.700  16.950  0.00  0.00    +0.000 A 
ATOM      6  C   UNL     1       3.095   4.424  17.416  0.00  0.00    +0.000 A 
ATOM      7  C   UNL     1       2.346   5.425  18.015  0.00  0.00    +0.000 A 
ATOM      8  C   UNL     1       2.899   6.692  18.147  0.00  0.00    +0.000 A 
ATOM      9  N   UNL     1       4.146   6.985  17.679  0.00  0.00    +0.000 NA
ATOM     10  C   UNL     1       4.895   6.010  17.100  0.00  0.00    +0.000 A 
ENDROOT
BRANCH   8  11
ATOM     11  C   UNL     1       2.185   7.781  18.848  0.00  0.00    +0.000 A 
ATOM     12  C   UNL     1       1.772   8.947  18.167  0.00  0.00    +0.000 A 
ATOM     13  C   UNL     1       1.049   9.951  18.814  0.00  0.00    +0.000 A 
ATOM     14  C   UNL     1       0.732   9.804  20.155  0.00  0.00    +0.000 A 
ATOM     15  F   UNL     1       0.014  10.752  20.769  0.00  0.00    +0.000 F 
ATOM     16  C   UNL     1       1.141   8.683  20.865  0.00  0.00    +0.000 A 
ATOM     17  C   UNL     1       1.866   7.679  20.215  0.00  0.00    +0.000 A 
ENDBRANCH   8  11
BRANCH   1  18
ATOM     18  O   UNL     1       6.751   7.522  16.661  0.00  0.00    +0.000 OA
BRANCH  18  19
ATOM     19  C   UNL     1       7.628   7.799  17.707  0.00  0.00    +0.000 C 
ATOM     20  O   UNL     1       8.071   6.985  18.510  0.00  0.00    +0.000 OA
BRANCH  19  21
ATOM     21  C   UNL     1       8.017   9.261  17.680  0.00  0.00    +0.000 C 
BRANCH  21  22
ATOM     22  C   UNL     1       9.041   9.546  18.784  0.00  0.00    +0.000 C 
BRANCH  22  23
ATOM     23  C   UNL     1       9.524  10.997  18.794  0.00  0.00    +0.000 C 
BRANCH  23  24
ATOM     24  C   UNL     1       8.651  11.857  17.873  0.00  0.00    +0.000 C 
BRANCH  24  26
ATOM     25  C   UNL     1       7.467  14.062  17.605  0.00  0.00    +0.000 C 
ATOM     26  C   UNL     1       8.544  13.300  18.364  0.00  0.00    +0.000 C 
ENDBRANCH  24  26
ENDBRANCH  23  24
ENDBRANCH  22  23
ENDBRANCH  21  22
ENDBRANCH  19  21
ENDBRANCH  18  19
ENDBRANCH   1  18
TORSDOF 8
ENDMDL
MODEL 4
REMARK VINA RESULT:      -8.0      0.362      1.013
REMARK  Name = 
REMARK  9 active torsions:
REMARK  status: ('A' for Active; 'I' for Inactive)
REMARK    1  A    between atoms: C_1  and  C_2
REMARK    2  A    between atoms: C_2  and  C_3
REMARK    3  A    between atoms: C_3  and  C_4
REMARK    4  A    between atoms: C_4  and  C_5
REMARK    5  A    between atoms: C_5  and  C_6
REMARK    6  A    between atoms: C_6  and  C_7
REMARK    7  A    between atoms: C_7  and  O_9
REMARK    8  A    between atoms: O_9  and  C_10
REMARK    9  A    between atoms: C_17  and  C_18
REMARK                            x       y       z     vdW  Elec       q    Type
REMARK                         _______ _______ _______ _____ _____    ______ ____
ROOT
ATOM      1  C   UNL     1       6.261   6.286  16.736  0.00  0.00    +0.000 A 
ATOM      2  C   UNL     1       7.042   5.294  16.119  0.00  0.00    +0.000 A 
ATOM      3  C   UNL     1       6.535   4.016  15.954  0.00  0.00    +0.000 A 
ATOM      4  C   UNL     1       5.249   3.734  16.376  0.00  0.00    +0.000 A 
ATOM      5  C   UNL     1       4.464   4.729  16.968  0.00  0.00    +0.000 A 
ATOM      6  C   UNL     1       3.168   4.417  17.386  0.00  0.00    +0.000 A 
ATOM      7  C   UNL     1       2.381   5.388  17.984  0.00  0.00    +0.000 A 
ATOM      8  C   UNL     1       2.904   6.662  18.164  0.00  0.00    +0.000 A 
ATOM      9  N   UNL     1       4.159   6.991  17.742  0.00  0.00    +0.000 NA
ATOM     10  C   UNL     1       4.945   6.044  17.165  0.00  0.00    +0.000 A 
ENDROOT
BRANCH   8  11
ATOM     11  C   UNL     1       2.147   7.720  18.867  0.00  0.00    +0.000 A 
ATOM     12  C   UNL     1       1.815   7.601  20.234  0.00  0.00    +0.000 A 
ATOM     13  C   UNL     1       1.148   8.623  20.914  0.00  0.00    +0.000 A 
ATOM     14  C   UNL     1       0.802   9.779  20.234  0.00  0.00    +0.000 A 
ATOM     15  F   UNL     1       0.190  10.771  20.891  0.00  0.00    +0.000 F 
ATOM     16  C   UNL     1       1.091   9.924  18.883  0.00  0.00    +0.000 A 
ATOM     17  C   UNL     1       1.757   8.899  18.204  0.00  0.00    +0.000 A 
ENDBRANCH   8  11
BRANCH   1  18
ATOM     18  O   UNL     1       6.783   7.602  16.820  0.00  0.00    +0.000 OA
BRANCH  18  19
ATOM     19  C   UNL     1       7.724   7.835  17.820  0.00  0.00    +0.000 C 
ATOM     20  O   UNL     1       8.129   7.013  18.633  0.00  0.00    +0.000 OA
BRANCH  19  21
ATOM     21  C   UNL     1       8.235   9.256  17.726  0.00  0.00    +0.000 C 
BRANCH  21  22
ATOM     22  C   UNL     1       8.992   9.622  19.007  0.00  0.00    +0.000 C 
BRANCH  22  23
ATOM     23  C   UNL     1       9.414  11.091  19.057  0.00  0.00    +0.000 C 
BRANCH  23  24
ATOM     24  C   UNL     1      10.398  11.325  20.208  0.00  0.00    +0.000 C 
BRANCH  24  26
ATOM     25  C   UNL     1       8.989  13.344  20.733  0.00  0.00    +0.000 C 
ATOM     26  C   UNL     1       9.794  12.190  21.314  0.00  0.00    +0.000 C 
ENDBRANCH  24  26
ENDBRANCH  23  24
ENDBRANCH  22  23
ENDBRANCH  21  22
ENDBRANCH  19  21
ENDBRANCH  18  19
ENDBRANCH   1  18
TORSDOF 8
ENDMDL
MODEL 5
REMARK VINA RESULT:      -7.9      3.786      6.030
REMARK  Name = 
REMARK  9 active torsions:
REMARK  status: ('A' for Active; 'I' for Inactive)
REMARK    1  A    between atoms: C_1  and  C_2
REMARK    2  A    between atoms: C_2  and  C_3
REMARK    3  A    between atoms: C_3  and  C_4
REMARK    4  A    between atoms: C_4  and  C_5
REMARK    5  A    between atoms: C_5  and  C_6
REMARK    6  A    between atoms: C_6  and  C_7
REMARK    7  A    between atoms: C_7  and  O_9
REMARK    8  A    between atoms: O_9  and  C_10
REMARK    9  A    between atoms: C_17  and  C_18
REMARK                            x       y       z     vdW  Elec       q    Type
REMARK                         _______ _______ _______ _____ _____    ______ ____
ROOT
ATOM      1  C   UNL     1       4.069   4.193  17.830  0.00  0.00    +0.000 A 
ATOM      2  C   UNL     1       4.429   2.849  18.025  0.00  0.00    +0.000 A 
ATOM      3  C   UNL     1       4.022   2.181  19.168  0.00  0.00    +0.000 A 
ATOM      4  C   UNL     1       3.239   2.839  20.098  0.00  0.00    +0.000 A 
ATOM      5  C   UNL     1       2.861   4.171  19.891  0.00  0.00    +0.000 A 
ATOM      6  C   UNL     1       2.071   4.812  20.847  0.00  0.00    +0.000 A 
ATOM      7  C   UNL     1       1.696   6.133  20.663  0.00  0.00    +0.000 A 
ATOM      8  C   UNL     1       2.124   6.801  19.523  0.00  0.00    +0.000 A 
ATOM      9  N   UNL     1       2.878   6.185  18.568  0.00  0.00    +0.000 NA
ATOM     10  C   UNL     1       3.262   4.893  18.744  0.00  0.00    +0.000 A 
ENDROOT
BRANCH   8  11
ATOM     11  C   UNL     1       1.828   8.234  19.305  0.00  0.00    +0.000 A 
ATOM     12  C   UNL     1       2.191   8.885  18.106  0.00  0.00    +0.000 A 
ATOM     13  C   UNL     1       1.863  10.223  17.876  0.00  0.00    +0.000 A 
ATOM     14  C   UNL     1       1.169  10.929  18.844  0.00  0.00    +0.000 A 
ATOM     15  F   UNL     1       0.828  12.203  18.613  0.00  0.00    +0.000 F 
ATOM     16  C   UNL     1       0.814  10.330  20.046  0.00  0.00    +0.000 A 
ATOM     17  C   UNL     1       1.145   8.990  20.275  0.00  0.00    +0.000 A 
ENDBRANCH   8  11
BRANCH   1  18
ATOM     18  O   UNL     1       4.437   4.821  16.613  0.00  0.00    +0.000 OA
BRANCH  18  19
ATOM     19  C   UNL     1       5.744   5.298  16.531  0.00  0.00    +0.000 C 
ATOM     20  O   UNL     1       6.232   6.184  17.222  0.00  0.00    +0.000 OA
BRANCH  19  21
ATOM     21  C   UNL     1       6.514   4.513  15.492  0.00  0.00    +0.000 C 
BRANCH  21  22
ATOM     22  C   UNL     1       5.570   4.076  14.366  0.00  0.00    +0.000 C 
BRANCH  22  23
ATOM     23  C   UNL     1       6.301   3.745  13.064  0.00  0.00    +0.000 C 
BRANCH  23  24
ATOM     24  C   UNL     1       5.307   3.262  12.002  0.00  0.00    +0.000 C 
BRANCH  24  26
ATOM     25  C   UNL     1       7.186   1.834  11.125  0.00  0.00    +0.000 C 
ATOM     26  C   UNL     1       5.696   1.900  11.429  0.00  0.00    +0.000 C 
ENDBRANCH  24  26
ENDBRANCH  23  24
ENDBRANCH  22  23
ENDBRANCH  21  22
ENDBRANCH  19  21
ENDBRANCH  18  19
ENDBRANCH   1  18
TORSDOF 8
ENDMDL
MODEL 6
REMARK VINA RESULT:      -7.8      1.930      3.355
REMARK  Name = 
REMARK  9 active torsions:
REMARK  status: ('A' for Active; 'I' for Inactive)
REMARK    1  A    between atoms: C_1  and  C_2
REMARK    2  A    between atoms: C_2  and  C_3
REMARK    3  A    between atoms: C_3  and  C_4
REMARK    4  A    between atoms: C_4  and  C_5
REMARK    5  A    between atoms: C_5  and  C_6
REMARK    6  A    between atoms: C_6  and  C_7
REMARK    7  A    between atoms: C_7  and  O_9
REMARK    8  A    between atoms: O_9  and  C_10
REMARK    9  A    between atoms: C_17  and  C_18
REMARK                            x       y       z     vdW  Elec       q    Type
REMARK                         _______ _______ _______ _____ _____    ______ ____
ROOT
ATOM      1  C   UNL     1       3.761   3.886  17.783  0.00  0.00    +0.000 A 
ATOM      2  C   UNL     1       4.075   2.530  17.975  0.00  0.00    +0.000 A 
ATOM      3  C   UNL     1       3.716   1.894  19.151  0.00  0.00    +0.000 A 
ATOM      4  C   UNL     1       3.025   2.596  20.121  0.00  0.00    +0.000 A 
ATOM      5  C   UNL     1       2.690   3.940  19.919  0.00  0.00    +0.000 A 
ATOM      6  C   UNL     1       1.992   4.626  20.915  0.00  0.00    +0.000 A 
ATOM      7  C   UNL     1       1.663   5.961  20.735  0.00  0.00    +0.000 A 
ATOM      8  C   UNL     1       2.044   6.596  19.560  0.00  0.00    +0.000 A 
ATOM      9  N   UNL     1       2.707   5.936  18.568  0.00  0.00    +0.000 NA
ATOM     10  C   UNL     1       3.046   4.631  18.737  0.00  0.00    +0.000 A 
ENDROOT
BRANCH   8  11
ATOM     11  C   UNL     1       1.795   8.037  19.342  0.00  0.00    +0.000 A 
ATOM     12  C   UNL     1       2.173   8.674  18.139  0.00  0.00    +0.000 A 
ATOM     13  C   UNL     1       1.890  10.022  17.908  0.00  0.00    +0.000 A 
ATOM     14  C   UNL     1       1.226  10.753  18.879  0.00  0.00    +0.000 A 
ATOM     15  F   UNL     1       0.927  12.037  18.647  0.00  0.00    +0.000 F 
ATOM     16  C   UNL     1       0.858  10.168  20.084  0.00  0.00    +0.000 A 
ATOM     17  C   UNL     1       1.144   8.819  20.314  0.00  0.00    +0.000 A 
ENDBRANCH   8  11
BRANCH   1  18
ATOM     18  O   UNL     1       4.076   4.483  16.536  0.00  0.00    +0.000 OA
BRANCH  18  19
ATOM     19  C   UNL     1       5.411   4.823  16.330  0.00  0.00    +0.000 C 
ATOM     20  O   UNL     1       6.171   4.298  15.525  0.00  0.00    +0.000 OA
BRANCH  19  21
ATOM     21  C   UNL     1       5.786   5.996  17.210  0.00  0.00    +0.000 C 
BRANCH  21  22
ATOM     22  C   UNL     1       7.243   6.394  16.952  0.00  0.00    +0.000 C 
BRANCH  22  23
ATOM     23  C   UNL     1       7.860   7.192  18.101  0.00  0.00    +0.000 C 
BRANCH  23  24
ATOM     24  C   UNL     1       8.043   8.659  17.695  0.00  0.00    +0.000 C 
BRANCH  24  26
ATOM     25  C   UNL     1       9.016  10.898  18.307  0.00  0.00    +0.000 C 
ATOM     26  C   UNL     1       8.831   9.450  18.738  0.00  0.00    +0.000 C 
ENDBRANCH  24  26
ENDBRANCH  23  24
ENDBRANCH  22  23
ENDBRANCH  21  22
ENDBRANCH  19  21
ENDBRANCH  18  19
ENDBRANCH   1  18
TORSDOF 8
ENDMDL
MODEL 7
REMARK VINA RESULT:      -7.6      3.554      5.499
REMARK  Name = 
REMARK  9 active torsions:
REMARK  status: ('A' for Active; 'I' for Inactive)
REMARK    1  A    between atoms: C_1  and  C_2
REMARK    2  A    between atoms: C_2  and  C_3
REMARK    3  A    between atoms: C_3  and  C_4
REMARK    4  A    between atoms: C_4  and  C_5
REMARK    5  A    between atoms: C_5  and  C_6
REMARK    6  A    between atoms: C_6  and  C_7
REMARK    7  A    between atoms: C_7  and  O_9
REMARK    8  A    between atoms: O_9  and  C_10
REMARK    9  A    between atoms: C_17  and  C_18
REMARK                            x       y       z     vdW  Elec       q    Type
REMARK                         _______ _______ _______ _____ _____    ______ ____
ROOT
ATOM      1  C   UNL     1       4.363   3.919  18.614  0.00  0.00    +0.000 A 
ATOM      2  C   UNL     1       4.702   2.597  18.950  0.00  0.00    +0.000 A 
ATOM      3  C   UNL     1       4.123   1.991  20.051  0.00  0.00    +0.000 A 
ATOM      4  C   UNL     1       3.190   2.685  20.799  0.00  0.00    +0.000 A 
ATOM      5  C   UNL     1       2.834   3.993  20.449  0.00  0.00    +0.000 A 
ATOM      6  C   UNL     1       1.891   4.673  21.222  0.00  0.00    +0.000 A 
ATOM      7  C   UNL     1       1.535   5.972  20.896  0.00  0.00    +0.000 A 
ATOM      8  C   UNL     1       2.135   6.580  19.801  0.00  0.00    +0.000 A 
ATOM      9  N   UNL     1       3.043   5.924  19.022  0.00  0.00    +0.000 NA
ATOM     10  C   UNL     1       3.408   4.654  19.339  0.00  0.00    +0.000 A 
ENDROOT
BRANCH   8  11
ATOM     11  C   UNL     1       1.861   7.990  19.448  0.00  0.00    +0.000 A 
ATOM     12  C   UNL     1       2.248   8.524  18.199  0.00  0.00    +0.000 A 
ATOM     13  C   UNL     1       1.941   9.838  17.842  0.00  0.00    +0.000 A 
ATOM     14  C   UNL     1       1.243  10.639  18.731  0.00  0.00    +0.000 A 
ATOM     15  F   UNL     1       0.922  11.889  18.379  0.00  0.00    +0.000 F 
ATOM     16  C   UNL     1       0.865  10.157  19.978  0.00  0.00    +0.000 A 
ATOM     17  C   UNL     1       1.175   8.841  20.334  0.00  0.00    +0.000 A 
ENDBRANCH   8  11
BRANCH   1  18
ATOM     18  O   UNL     1       4.917   4.481  17.437  0.00  0.00    +0.000 OA
BRANCH  18  19
ATOM     19  C   UNL     1       6.206   4.999  17.543  0.00  0.00    +0.000 C 
ATOM     20  O   UNL     1       7.120   4.525  18.208  0.00  0.00    +0.000 OA
BRANCH  19  21
ATOM     21  C   UNL     1       6.346   6.218  16.657  0.00  0.00    +0.000 C 
BRANCH  21  22
ATOM     22  C   UNL     1       5.878   5.885  15.237  0.00  0.00    +0.000 C 
BRANCH  22  23
ATOM     23  C   UNL     1       6.785   4.879  14.527  0.00  0.00    +0.000 C 
BRANCH  23  24
ATOM     24  C   UNL     1       5.955   3.732  13.941  0.00  0.00    +0.000 C 
BRANCH  24  26
ATOM     25  C   UNL     1       4.913   3.149  11.724  0.00  0.00    +0.000 C 
ATOM     26  C   UNL     1       6.192   3.558  12.441  0.00  0.00    +0.000 C 
ENDBRANCH  24  26
ENDBRANCH  23  24
ENDBRANCH  22  23
ENDBRANCH  21  22
ENDBRANCH  19  21
ENDBRANCH  18  19
ENDBRANCH   1  18
TORSDOF 8
ENDMDL
MODEL 8
REMARK VINA RESULT:      -7.6      3.450      5.117
REMARK  Name = 
REMARK  9 active torsions:
REMARK  status: ('A' for Active; 'I' for Inactive)
REMARK    1  A    between atoms: C_1  and  C_2
REMARK    2  A    between atoms: C_2  and  C_3
REMARK    3  A    between atoms: C_3  and  C_4
REMARK    4  A    between atoms: C_4  and  C_5
REMARK    5  A    between atoms: C_5  and  C_6
REMARK    6  A    between atoms: C_6  and  C_7
REMARK    7  A    between atoms: C_7  and  O_9
REMARK    8  A    between atoms: O_9  and  C_10
REMARK    9  A    between atoms: C_17  and  C_18
REMARK                            x       y       z     vdW  Elec       q    Type
REMARK                         _______ _______ _______ _____ _____    ______ ____
ROOT
ATOM      1  C   UNL     1       4.614   4.552  19.189  0.00  0.00    +0.000 A 
ATOM      2  C   UNL     1       4.958   3.190  19.202  0.00  0.00    +0.000 A 
ATOM      3  C   UNL     1       4.085   2.259  19.739  0.00  0.00    +0.000 A 
ATOM      4  C   UNL     1       2.865   2.677  20.236  0.00  0.00    +0.000 A 
ATOM      5  C   UNL     1       2.513   4.032  20.200  0.00  0.00    +0.000 A 
ATOM      6  C   UNL     1       1.274   4.428  20.709  0.00  0.00    +0.000 A 
ATOM      7  C   UNL     1       0.914   5.766  20.690  0.00  0.00    +0.000 A 
ATOM      8  C   UNL     1       1.804   6.696  20.167  0.00  0.00    +0.000 A 
ATOM      9  N   UNL     1       3.008   6.324  19.646  0.00  0.00    +0.000 NA
ATOM     10  C   UNL     1       3.378   5.016  19.669  0.00  0.00    +0.000 A 
ENDROOT
BRANCH   8  11
ATOM     11  C   UNL     1       1.515   8.146  20.192  0.00  0.00    +0.000 A 
ATOM     12  C   UNL     1       1.572   8.927  19.016  0.00  0.00    +0.000 A 
ATOM     13  C   UNL     1       1.246  10.284  19.027  0.00  0.00    +0.000 A 
ATOM     14  C   UNL     1       0.861  10.882  20.216  0.00  0.00    +0.000 A 
ATOM     15  F   UNL     1       0.520  12.176  20.222  0.00  0.00    +0.000 F 
ATOM     16  C   UNL     1       0.815  10.153  21.397  0.00  0.00    +0.000 A 
ATOM     17  C   UNL     1       1.143   8.793  21.384  0.00  0.00    +0.000 A 
ENDBRANCH   8  11
BRANCH   1  18
ATOM     18  O   UNL     1       5.498   5.466  18.562  0.00  0.00    +0.000 OA
BRANCH  18  19
ATOM     19  C   UNL     1       6.845   5.363  18.905  0.00  0.00    +0.000 C 
ATOM     20  O   UNL     1       7.316   5.518  20.025  0.00  0.00    +0.000 OA
BRANCH  19  21
ATOM     21  C   UNL     1       7.656   4.965  17.692  0.00  0.00    +0.000 C 
BRANCH  21  22
ATOM     22  C   UNL     1       7.075   5.627  16.438  0.00  0.00    +0.000 C 
BRANCH  22  23
ATOM     23  C   UNL     1       7.126   4.725  15.204  0.00  0.00    +0.000 C 
BRANCH  23  24
ATOM     24  C   UNL     1       5.803   3.970  15.039  0.00  0.00    +0.000 C 
BRANCH  24  26
ATOM     25  C   UNL     1       6.495   3.704  12.634  0.00  0.00    +0.000 C 
ATOM     26  C   UNL     1       5.332   3.945  13.586  0.00  0.00    +0.000 C 
ENDBRANCH  24  26
ENDBRANCH  23  24
ENDBRANCH  22  23
ENDBRANCH  21  22
ENDBRANCH  19  21
ENDBRANCH  18  19
ENDBRANCH   1  18
TORSDOF 8
ENDMDL
MODEL 9
REMARK VINA RESULT:      -7.5      4.521      6.854
REMARK  Name = 
REMARK  9 active torsions:
REMARK  status: ('A' for Active; 'I' for Inactive)
REMARK    1  A    between atoms: C_1  and  C_2
REMARK    2  A    between atoms: C_2  and  C_3
REMARK    3  A    between atoms: C_3  and  C_4
REMARK    4  A    between atoms: C_4  and  C_5
REMARK    5  A    between atoms: C_5  and  C_6
REMARK    6  A    between atoms: C_6  and  C_7
REMARK    7  A    between atoms: C_7  and  O_9
REMARK    8  A    between atoms: O_9  and  C_10
REMARK    9  A    between atoms: C_17  and  C_18
REMARK                            x       y       z     vdW  Elec       q    Type
REMARK                         _______ _______ _______ _____ _____    ______ ____
ROOT
ATOM      1  C   UNL     1       2.442   6.500  19.709  0.00  0.00    +0.000 A 
ATOM      2  C   UNL     1       3.259   5.815  18.793  0.00  0.00    +0.000 A 
ATOM      3  C   UNL     1       3.635   6.424  17.608  0.00  0.00    +0.000 A 
ATOM      4  C   UNL     1       3.223   7.718  17.347  0.00  0.00    +0.000 A 
ATOM      5  C   UNL     1       2.430   8.409  18.270  0.00  0.00    +0.000 A 
ATOM      6  C   UNL     1       2.027   9.714  17.981  0.00  0.00    +0.000 A 
ATOM      7  C   UNL     1       1.232  10.408  18.880  0.00  0.00    +0.000 A 
ATOM      8  C   UNL     1       0.844   9.783  20.058  0.00  0.00    +0.000 A 
ATOM      9  N   UNL     1       1.246   8.517  20.367  0.00  0.00    +0.000 NA
ATOM     10  C   UNL     1       2.015   7.821  19.488  0.00  0.00    +0.000 A 
ENDROOT
BRANCH   8  11
ATOM     11  C   UNL     1      -0.068  10.438  21.020  0.00  0.00    +0.000 A 
ATOM     12  C   UNL     1      -0.864  11.543  20.644  0.00  0.00    +0.000 A 
ATOM     13  C   UNL     1      -1.766  12.128  21.535  0.00  0.00    +0.000 A 
ATOM     14  C   UNL     1      -1.884  11.616  22.817  0.00  0.00    +0.000 A 
ATOM     15  F   UNL     1      -2.770  12.157  23.662  0.00  0.00    +0.000 F 
ATOM     16  C   UNL     1      -1.103  10.545  23.231  0.00  0.00    +0.000 A 
ATOM     17  C   UNL     1      -0.199   9.962  22.338  0.00  0.00    +0.000 A 
ENDBRANCH   8  11
BRANCH   1  18
ATOM     18  O   UNL     1       2.141   5.876  20.945  0.00  0.00    +0.000 OA
BRANCH  18  19
ATOM     19  C   UNL     1       1.562   4.610  20.877  0.00  0.00    +0.000 C 
ATOM     20  O   UNL     1       0.611   4.290  20.173  0.00  0.00    +0.000 OA
BRANCH  19  21
ATOM     21  C   UNL     1       2.322   3.648  21.764  0.00  0.00    +0.000 C 
BRANCH  21  22
ATOM     22  C   UNL     1       2.631   2.362  20.989  0.00  0.00    +0.000 C 
BRANCH  22  23
ATOM     23  C   UNL     1       3.861   2.485  20.089  0.00  0.00    +0.000 C 
BRANCH  23  24
ATOM     24  C   UNL     1       3.725   1.566  18.870  0.00  0.00    +0.000 C 
BRANCH  24  26
ATOM     25  C   UNL     1       2.250   2.946  17.368  0.00  0.00    +0.000 C 
ATOM     26  C   UNL     1       3.638   2.353  17.563  0.00  0.00    +0.000 C 
ENDBRANCH  24  26
ENDBRANCH  23  24
ENDBRANCH  22  23
ENDBRANCH  21  22
ENDBRANCH  19  21
ENDBRANCH  18  19
ENDBRANCH   1  18
TORSDOF 8
ENDMDL
