MODEL 1
REMARK VINA RESULT:      -7.3      0.000      0.000
REMARK  Name = 
REMARK  5 active torsions:
REMARK  status: ('A' for Active; 'I' for Inactive)
REMARK    1  A    between atoms: C_1  and  C_2
REMARK    2  A    between atoms: C_2  and  N_3
REMARK    3  A    between atoms: C_7  and  S_8
REMARK    4  A    between atoms: S_8  and  C_9
REMARK    5  A    between atoms: C_14  and  N_15
REMARK                            x       y       z     vdW  Elec       q    Type
REMARK                         _______ _______ _______ _____ _____    ______ ____
ROOT
ATOM      1  S   UNL     1       4.194   3.038  17.513  0.00  0.00    +0.000 S 
ENDROOT
BRANCH   1   6
ATOM      2  N   UNL     1       6.477   5.713  17.579  0.00  0.00    +0.000 N 
ATOM      3  C   UNL     1       6.424   5.585  16.224  0.00  0.00    +0.000 C 
ATOM      4  O   UNL     1       7.330   5.818  15.437  0.00  0.00    +0.000 OA
ATOM      5  C   UNL     1       5.038   5.176  15.823  0.00  0.00    +0.000 C 
ATOM      6  C   UNL     1       4.341   4.838  17.135  0.00  0.00    +0.000 C 
ATOM      7  C   UNL     1       5.285   5.412  18.180  0.00  0.00    +0.000 C 
ATOM      8  O   UNL     1       5.029   5.535  19.371  0.00  0.00    +0.000 OA
BRANCH   2  10
ATOM      9  C   UNL     1       7.991   7.526  18.201  0.00  0.00    +0.000 C 
ATOM     10  C   UNL     1       7.690   6.037  18.306  0.00  0.00    +0.000 C 
ENDBRANCH   2  10
ENDBRANCH   1   6
BRANCH   1  11
ATOM     11  C   UNL     1       3.093   3.028  18.927  0.00  0.00    +0.000 A 
ATOM     12  C   UNL     1       1.828   3.623  18.837  0.00  0.00    +0.000 A 
ATOM     13  C   UNL     1       1.010   3.714  19.967  0.00  0.00    +0.000 A 
ATOM     14  C   UNL     1       1.437   3.184  21.183  0.00  0.00    +0.000 A 
ATOM     15  C   UNL     1       2.693   2.583  21.276  0.00  0.00    +0.000 A 
ATOM     16  C   UNL     1       3.560   2.564  20.178  0.00  0.00    +0.000 A 
BRANCH  16  17
ATOM     17  N   UNL     1       4.796   1.898  20.294  0.00  0.00    +0.000 N 
ATOM     18  H   UNL     1       4.755   1.069  20.877  0.00  0.00    +0.000 HD
ATOM     19  H   UNL     1       5.526   2.543  20.597  0.00  0.00    +0.000 HD
ENDBRANCH  16  17
ENDBRANCH   1  11
TORSDOF 4
ENDMDL
MODEL 2
REMARK VINA RESULT:      -7.0      1.517      1.849
REMARK  Name = 
REMARK  5 active torsions:
REMARK  status: ('A' for Active; 'I' for Inactive)
REMARK    1  A    between atoms: C_1  and  C_2
REMARK    2  A    between atoms: C_2  and  N_3
REMARK    3  A    between atoms: C_7  and  S_8
REMARK    4  A    between atoms: S_8  and  C_9
REMARK    5  A    between atoms: C_14  and  N_15
REMARK                            x       y       z     vdW  Elec       q    Type
REMARK                         _______ _______ _______ _____ _____    ______ ____
ROOT
ATOM      1  S   UNL     1       3.479   3.519  17.606  0.00  0.00    +0.000 S 
ENDROOT
BRANCH   1   6
ATOM      2  N   UNL     1       6.133   5.504  16.428  0.00  0.00    +0.000 N 
ATOM      3  C   UNL     1       5.131   6.360  16.081  0.00  0.00    +0.000 C 
ATOM      4  O   UNL     1       5.129   7.127  15.130  0.00  0.00    +0.000 OA
ATOM      5  C   UNL     1       4.034   6.272  17.100  0.00  0.00    +0.000 C 
ATOM      6  C   UNL     1       4.407   5.073  17.964  0.00  0.00    +0.000 C 
ATOM      7  C   UNL     1       5.850   4.803  17.568  0.00  0.00    +0.000 C 
ATOM      8  O   UNL     1       6.612   4.042  18.151  0.00  0.00    +0.000 OA
BRANCH   2  10
ATOM      9  C   UNL     1       6.979   4.498  14.370  0.00  0.00    +0.000 C 
ATOM     10  C   UNL     1       7.320   5.294  15.622  0.00  0.00    +0.000 C 
ENDBRANCH   2  10
ENDBRANCH   1   6
BRANCH   1  11
ATOM     11  C   UNL     1       2.722   3.146  19.187  0.00  0.00    +0.000 A 
ATOM     12  C   UNL     1       1.393   3.514  19.434  0.00  0.00    +0.000 A 
ATOM     13  C   UNL     1       0.833   3.324  20.701  0.00  0.00    +0.000 A 
ATOM     14  C   UNL     1       1.586   2.738  21.717  0.00  0.00    +0.000 A 
ATOM     15  C   UNL     1       2.908   2.364  21.475  0.00  0.00    +0.000 A 
ATOM     16  C   UNL     1       3.511   2.629  20.240  0.00  0.00    +0.000 A 
BRANCH  16  17
ATOM     17  N   UNL     1       4.828   2.185  20.013  0.00  0.00    +0.000 N 
ATOM     18  H   UNL     1       5.232   1.694  20.804  0.00  0.00    +0.000 HD
ATOM     19  H   UNL     1       5.420   2.955  19.700  0.00  0.00    +0.000 HD
ENDBRANCH  16  17
ENDBRANCH   1  11
TORSDOF 4
ENDMDL
MODEL 3
REMARK VINA RESULT:      -7.0      2.057      2.886
REMARK  Name = 
REMARK  5 active torsions:
REMARK  status: ('A' for Active; 'I' for Inactive)
REMARK    1  A    between atoms: C_1  and  C_2
REMARK    2  A    between atoms: C_2  and  N_3
REMARK    3  A    between atoms: C_7  and  S_8
REMARK    4  A    between atoms: S_8  and  C_9
REMARK    5  A    between atoms: C_14  and  N_15
REMARK                            x       y       z     vdW  Elec       q    Type
REMARK                         _______ _______ _______ _____ _____    ______ ____
ROOT
ATOM      1  S   UNL     1       3.641   5.932  18.962  0.00  0.00    +0.000 S 
ENDROOT
BRANCH   1   6
ATOM      2  N   UNL     1       5.777   5.183  16.270  0.00  0.00    +0.000 N 
ATOM      3  C   UNL     1       6.674   5.920  16.982  0.00  0.00    +0.000 C 
ATOM      4  O   UNL     1       7.573   6.609  16.524  0.00  0.00    +0.000 OA
ATOM      5  C   UNL     1       6.438   5.702  18.447  0.00  0.00    +0.000 C 
ATOM      6  C   UNL     1       5.125   4.931  18.514  0.00  0.00    +0.000 C 
ATOM      7  C   UNL     1       4.915   4.488  17.074  0.00  0.00    +0.000 C 
ATOM      8  O   UNL     1       4.077   3.679  16.699  0.00  0.00    +0.000 OA
BRANCH   2  10
ATOM      9  C   UNL     1       6.440   4.033  14.220  0.00  0.00    +0.000 C 
ATOM     10  C   UNL     1       5.687   5.212  14.823  0.00  0.00    +0.000 C 
ENDBRANCH   2  10
ENDBRANCH   1   6
BRANCH   1  11
ATOM     11  C   UNL     1       2.586   4.724  19.762  0.00  0.00    +0.000 A 
ATOM     12  C   UNL     1       2.791   4.394  21.108  0.00  0.00    +0.000 A 
ATOM     13  C   UNL     1       2.042   3.375  21.705  0.00  0.00    +0.000 A 
ATOM     14  C   UNL     1       1.066   2.703  20.972  0.00  0.00    +0.000 A 
ATOM     15  C   UNL     1       0.853   3.033  19.633  0.00  0.00    +0.000 A 
ATOM     16  C   UNL     1       1.654   3.987  18.996  0.00  0.00    +0.000 A 
BRANCH  16  17
ATOM     17  N   UNL     1       1.372   4.335  17.660  0.00  0.00    +0.000 N 
ATOM     18  H   UNL     1       0.583   3.830  17.269  0.00  0.00    +0.000 HD
ATOM     19  H   UNL     1       2.207   4.247  17.080  0.00  0.00    +0.000 HD
ENDBRANCH  16  17
ENDBRANCH   1  11
TORSDOF 4
ENDMDL
MODEL 4
REMARK VINA RESULT:      -7.0      1.469      1.680
REMARK  Name = 
REMARK  5 active torsions:
REMARK  status: ('A' for Active; 'I' for Inactive)
REMARK    1  A    between atoms: C_1  and  C_2
REMARK    2  A    between atoms: C_2  and  N_3
REMARK    3  A    between atoms: C_7  and  S_8
REMARK    4  A    between atoms: S_8  and  C_9
REMARK    5  A    between atoms: C_14  and  N_15
REMARK                            x       y       z     vdW  Elec       q    Type
REMARK                         _______ _______ _______ _____ _____    ______ ____
ROOT
ATOM      1  S   UNL     1       4.793   3.577  18.463  0.00  0.00    +0.000 S 
ENDROOT
BRANCH   1   6
ATOM      2  N   UNL     1       6.209   6.309  16.759  0.00  0.00    +0.000 N 
ATOM      3  C   UNL     1       6.628   5.347  15.890  0.00  0.00    +0.000 C 
ATOM      4  O   UNL     1       7.654   5.367  15.226  0.00  0.00    +0.000 OA
ATOM      5  C   UNL     1       5.590   4.268  15.812  0.00  0.00    +0.000 C 
ATOM      6  C   UNL     1       4.612   4.594  16.935  0.00  0.00    +0.000 C 
ATOM      7  C   UNL     1       4.998   6.012  17.323  0.00  0.00    +0.000 C 
ATOM      8  O   UNL     1       4.351   6.744  18.061  0.00  0.00    +0.000 OA
BRANCH   2  10
ATOM      9  C   UNL     1       7.936   7.136  18.276  0.00  0.00    +0.000 C 
ATOM     10  C   UNL     1       7.006   7.467  17.117  0.00  0.00    +0.000 C 
ENDBRANCH   2  10
ENDBRANCH   1   6
BRANCH   1  11
ATOM     11  C   UNL     1       3.092   3.342  18.977  0.00  0.00    +0.000 A 
ATOM     12  C   UNL     1       2.336   2.290  18.443  0.00  0.00    +0.000 A 
ATOM     13  C   UNL     1       0.979   2.168  18.757  0.00  0.00    +0.000 A 
ATOM     14  C   UNL     1       0.379   3.076  19.627  0.00  0.00    +0.000 A 
ATOM     15  C   UNL     1       1.128   4.121  20.167  0.00  0.00    +0.000 A 
ATOM     16  C   UNL     1       2.464   4.310  19.793  0.00  0.00    +0.000 A 
BRANCH  16  17
ATOM     17  N   UNL     1       3.205   5.342  20.402  0.00  0.00    +0.000 N 
ATOM     18  H   UNL     1       2.690   6.212  20.491  0.00  0.00    +0.000 HD
ATOM     19  H   UNL     1       4.098   5.474  19.927  0.00  0.00    +0.000 HD
ENDBRANCH  16  17
ENDBRANCH   1  11
TORSDOF 4
ENDMDL
MODEL 5
REMARK VINA RESULT:      -6.9      1.418      1.602
REMARK  Name = 
REMARK  5 active torsions:
REMARK  status: ('A' for Active; 'I' for Inactive)
REMARK    1  A    between atoms: C_1  and  C_2
REMARK    2  A    between atoms: C_2  and  N_3
REMARK    3  A    between atoms: C_7  and  S_8
REMARK    4  A    between atoms: S_8  and  C_9
REMARK    5  A    between atoms: C_14  and  N_15
REMARK                            x       y       z     vdW  Elec       q    Type
REMARK                         _______ _______ _______ _____ _____    ______ ____
ROOT
ATOM      1  S   UNL     1       4.815   3.675  18.556  0.00  0.00    +0.000 S 
ENDROOT
BRANCH   1   6
ATOM      2  N   UNL     1       6.228   6.363  16.782  0.00  0.00    +0.000 N 
ATOM      3  C   UNL     1       6.669   5.378  15.951  0.00  0.00    +0.000 C 
ATOM      4  O   UNL     1       7.703   5.386  15.301  0.00  0.00    +0.000 OA
ATOM      5  C   UNL     1       5.642   4.286  15.895  0.00  0.00    +0.000 C 
ATOM      6  C   UNL     1       4.645   4.639  16.992  0.00  0.00    +0.000 C 
ATOM      7  C   UNL     1       5.012   6.073  17.339  0.00  0.00    +0.000 C 
ATOM      8  O   UNL     1       4.347   6.822  18.043  0.00  0.00    +0.000 OA
BRANCH   2  10
ATOM      9  C   UNL     1       7.977   7.236  18.246  0.00  0.00    +0.000 C 
ATOM     10  C   UNL     1       7.008   7.540  17.111  0.00  0.00    +0.000 C 
ENDBRANCH   2  10
ENDBRANCH   1   6
BRANCH   1  11
ATOM     11  C   UNL     1       3.137   3.664  19.188  0.00  0.00    +0.000 A 
ATOM     12  C   UNL     1       2.762   4.558  20.199  0.00  0.00    +0.000 A 
ATOM     13  C   UNL     1       1.488   4.480  20.771  0.00  0.00    +0.000 A 
ATOM     14  C   UNL     1       0.575   3.531  20.315  0.00  0.00    +0.000 A 
ATOM     15  C   UNL     1       0.942   2.643  19.304  0.00  0.00    +0.000 A 
ATOM     16  C   UNL     1       2.241   2.649  18.784  0.00  0.00    +0.000 A 
BRANCH  16  17
ATOM     17  N   UNL     1       2.557   1.776  17.724  0.00  0.00    +0.000 N 
ATOM     18  H   UNL     1       2.955   0.895  18.031  0.00  0.00    +0.000 HD
ATOM     19  H   UNL     1       3.149   2.243  17.037  0.00  0.00    +0.000 HD
ENDBRANCH  16  17
ENDBRANCH   1  11
TORSDOF 4
ENDMDL
MODEL 6
REMARK VINA RESULT:      -6.9      2.352      5.322
REMARK  Name = 
REMARK  5 active torsions:
REMARK  status: ('A' for Active; 'I' for Inactive)
REMARK    1  A    between atoms: C_1  and  C_2
REMARK    2  A    between atoms: C_2  and  N_3
REMARK    3  A    between atoms: C_7  and  S_8
REMARK    4  A    between atoms: S_8  and  C_9
REMARK    5  A    between atoms: C_14  and  N_15
REMARK                            x       y       z     vdW  Elec       q    Type
REMARK                         _______ _______ _______ _____ _____    ______ ____
ROOT
ATOM      1  S   UNL     1       3.571   3.428  17.028  0.00  0.00    +0.000 S 
ENDROOT
BRANCH   1   6
ATOM      2  N   UNL     1       1.498   3.921  19.826  0.00  0.00    +0.000 N 
ATOM      3  C   UNL     1       2.011   5.182  19.787  0.00  0.00    +0.000 C 
ATOM      4  O   UNL     1       2.205   5.917  20.744  0.00  0.00    +0.000 OA
ATOM      5  C   UNL     1       2.243   5.575  18.358  0.00  0.00    +0.000 C 
ATOM      6  C   UNL     1       2.031   4.290  17.567  0.00  0.00    +0.000 C 
ATOM      7  C   UNL     1       1.367   3.370  18.580  0.00  0.00    +0.000 C 
ATOM      8  O   UNL     1       0.846   2.293  18.322  0.00  0.00    +0.000 OA
BRANCH   2  10
ATOM      9  C   UNL     1       2.488   2.593  21.621  0.00  0.00    +0.000 C 
ATOM     10  C   UNL     1       1.215   3.210  21.058  0.00  0.00    +0.000 C 
ENDBRANCH   2  10
ENDBRANCH   1   6
BRANCH   1  11
ATOM     11  C   UNL     1       4.844   4.627  17.421  0.00  0.00    +0.000 A 
ATOM     12  C   UNL     1       5.116   5.678  16.536  0.00  0.00    +0.000 A 
ATOM     13  C   UNL     1       6.179   6.552  16.785  0.00  0.00    +0.000 A 
ATOM     14  C   UNL     1       6.955   6.398  17.932  0.00  0.00    +0.000 A 
ATOM     15  C   UNL     1       6.684   5.357  18.821  0.00  0.00    +0.000 A 
ATOM     16  C   UNL     1       5.681   4.422  18.541  0.00  0.00    +0.000 A 
BRANCH  16  17
ATOM     17  N   UNL     1       5.398   3.419  19.489  0.00  0.00    +0.000 N 
ATOM     18  H   UNL     1       5.411   3.753  20.447  0.00  0.00    +0.000 HD
ATOM     19  H   UNL     1       6.012   2.615  19.357  0.00  0.00    +0.000 HD
ENDBRANCH  16  17
ENDBRANCH   1  11
TORSDOF 4
ENDMDL
MODEL 7
REMARK VINA RESULT:      -6.8      1.223      1.696
REMARK  Name = 
REMARK  5 active torsions:
REMARK  status: ('A' for Active; 'I' for Inactive)
REMARK    1  A    between atoms: C_1  and  C_2
REMARK    2  A    between atoms: C_2  and  N_3
REMARK    3  A    between atoms: C_7  and  S_8
REMARK    4  A    between atoms: S_8  and  C_9
REMARK    5  A    between atoms: C_14  and  N_15
REMARK                            x       y       z     vdW  Elec       q    Type
REMARK                         _______ _______ _______ _____ _____    ______ ____
ROOT
ATOM      1  S   UNL     1       4.104   3.158  17.585  0.00  0.00    +0.000 S 
ENDROOT
BRANCH   1   6
ATOM      2  N   UNL     1       6.562   5.672  17.702  0.00  0.00    +0.000 N 
ATOM      3  C   UNL     1       6.537   5.540  16.347  0.00  0.00    +0.000 C 
ATOM      4  O   UNL     1       7.477   5.706  15.584  0.00  0.00    +0.000 OA
ATOM      5  C   UNL     1       5.137   5.224  15.909  0.00  0.00    +0.000 C 
ATOM      6  C   UNL     1       4.384   4.942  17.204  0.00  0.00    +0.000 C 
ATOM      7  C   UNL     1       5.336   5.457  18.272  0.00  0.00    +0.000 C 
ATOM      8  O   UNL     1       5.058   5.604  19.455  0.00  0.00    +0.000 OA
BRANCH   2  10
ATOM      9  C   UNL     1       8.119   7.400  18.448  0.00  0.00    +0.000 C 
ATOM     10  C   UNL     1       7.774   5.917  18.460  0.00  0.00    +0.000 C 
ENDBRANCH   2  10
ENDBRANCH   1   6
BRANCH   1  11
ATOM     11  C   UNL     1       3.039   3.232  19.025  0.00  0.00    +0.000 A 
ATOM     12  C   UNL     1       3.475   2.709  20.249  0.00  0.00    +0.000 A 
ATOM     13  C   UNL     1       2.608   2.666  21.345  0.00  0.00    +0.000 A 
ATOM     14  C   UNL     1       1.315   3.173  21.234  0.00  0.00    +0.000 A 
ATOM     15  C   UNL     1       0.878   3.702  20.019  0.00  0.00    +0.000 A 
ATOM     16  C   UNL     1       1.702   3.671  18.888  0.00  0.00    +0.000 A 
BRANCH  16  17
ATOM     17  N   UNL     1       1.249   4.266  17.695  0.00  0.00    +0.000 N 
ATOM     18  H   UNL     1       0.247   4.180  17.555  0.00  0.00    +0.000 HD
ATOM     19  H   UNL     1       1.777   3.918  16.894  0.00  0.00    +0.000 HD
ENDBRANCH  16  17
ENDBRANCH   1  11
TORSDOF 4
ENDMDL
MODEL 8
REMARK VINA RESULT:      -6.8      2.442      5.655
REMARK  Name = 
REMARK  5 active torsions:
REMARK  status: ('A' for Active; 'I' for Inactive)
REMARK    1  A    between atoms: C_1  and  C_2
REMARK    2  A    between atoms: C_2  and  N_3
REMARK    3  A    between atoms: C_7  and  S_8
REMARK    4  A    between atoms: S_8  and  C_9
REMARK    5  A    between atoms: C_14  and  N_15
REMARK                            x       y       z     vdW  Elec       q    Type
REMARK                         _______ _______ _______ _____ _____    ______ ____
ROOT
ATOM      1  S   UNL     1       4.192   4.915  16.965  0.00  0.00    +0.000 S 
ENDROOT
BRANCH   1   6
ATOM      2  N   UNL     1       1.634   4.278  19.293  0.00  0.00    +0.000 N 
ATOM      3  C   UNL     1       2.428   5.006  20.127  0.00  0.00    +0.000 C 
ATOM      4  O   UNL     1       2.532   4.864  21.337  0.00  0.00    +0.000 OA
ATOM      5  C   UNL     1       3.117   6.079  19.338  0.00  0.00    +0.000 C 
ATOM      6  C   UNL     1       2.819   5.738  17.883  0.00  0.00    +0.000 C 
ATOM      7  C   UNL     1       1.709   4.705  17.995  0.00  0.00    +0.000 C 
ATOM      8  O   UNL     1       1.032   4.291  17.063  0.00  0.00    +0.000 OA
BRANCH   2  10
ATOM      9  C   UNL     1       1.637   1.839  19.420  0.00  0.00    +0.000 C 
ATOM     10  C   UNL     1       0.872   3.121  19.721  0.00  0.00    +0.000 C 
ENDBRANCH   2  10
ENDBRANCH   1   6
BRANCH   1  11
ATOM     11  C   UNL     1       5.645   5.724  17.634  0.00  0.00    +0.000 A 
ATOM     12  C   UNL     1       6.107   6.919  17.068  0.00  0.00    +0.000 A 
ATOM     13  C   UNL     1       7.300   7.495  17.515  0.00  0.00    +0.000 A 
ATOM     14  C   UNL     1       8.019   6.899  18.548  0.00  0.00    +0.000 A 
ATOM     15  C   UNL     1       7.560   5.713  19.121  0.00  0.00    +0.000 A 
ATOM     16  C   UNL     1       6.417   5.076  18.625  0.00  0.00    +0.000 A 
BRANCH  16  17
ATOM     17  N   UNL     1       5.951   3.911  19.266  0.00  0.00    +0.000 N 
ATOM     18  H   UNL     1       5.778   4.037  20.258  0.00  0.00    +0.000 HD
ATOM     19  H   UNL     1       6.576   3.125  19.084  0.00  0.00    +0.000 HD
ENDBRANCH  16  17
ENDBRANCH   1  11
TORSDOF 4
ENDMDL
MODEL 9
REMARK VINA RESULT:      -6.7      2.061      2.541
REMARK  Name = 
REMARK  5 active torsions:
REMARK  status: ('A' for Active; 'I' for Inactive)
REMARK    1  A    between atoms: C_1  and  C_2
REMARK    2  A    between atoms: C_2  and  N_3
REMARK    3  A    between atoms: C_7  and  S_8
REMARK    4  A    between atoms: S_8  and  C_9
REMARK    5  A    between atoms: C_14  and  N_15
REMARK                            x       y       z     vdW  Elec       q    Type
REMARK                         _______ _______ _______ _____ _____    ______ ____
ROOT
ATOM      1  S   UNL     1       3.464   6.097  17.986  0.00  0.00    +0.000 S 
ENDROOT
BRANCH   1   6
ATOM      2  N   UNL     1       6.908   6.309  17.306  0.00  0.00    +0.000 N 
ATOM      3  C   UNL     1       7.006   5.425  18.339  0.00  0.00    +0.000 C 
ATOM      4  O   UNL     1       7.934   5.332  19.129  0.00  0.00    +0.000 OA
ATOM      5  C   UNL     1       5.814   4.515  18.321  0.00  0.00    +0.000 C 
ATOM      6  C   UNL     1       4.874   5.131  17.292  0.00  0.00    +0.000 C 
ATOM      7  C   UNL     1       5.763   6.137  16.577  0.00  0.00    +0.000 C 
ATOM      8  O   UNL     1       5.472   6.729  15.546  0.00  0.00    +0.000 OA
BRANCH   2  10
ATOM      9  C   UNL     1       7.484   8.617  17.859  0.00  0.00    +0.000 C 
ATOM     10  C   UNL     1       7.866   7.372  17.070  0.00  0.00    +0.000 C 
ENDBRANCH   2  10
ENDBRANCH   1   6
BRANCH   1  11
ATOM     11  C   UNL     1       2.438   4.819  18.713  0.00  0.00    +0.000 A 
ATOM     12  C   UNL     1       2.041   3.717  17.945  0.00  0.00    +0.000 A 
ATOM     13  C   UNL     1       1.153   2.774  18.473  0.00  0.00    +0.000 A 
ATOM     14  C   UNL     1       0.684   2.911  19.778  0.00  0.00    +0.000 A 
ATOM     15  C   UNL     1       1.082   4.003  20.549  0.00  0.00    +0.000 A 
ATOM     16  C   UNL     1       1.898   5.002  20.006  0.00  0.00    +0.000 A 
BRANCH  16  17
ATOM     17  N   UNL     1       2.327   6.059  20.832  0.00  0.00    +0.000 N 
ATOM     18  H   UNL     1       2.275   6.969  20.385  0.00  0.00    +0.000 HD
ATOM     19  H   UNL     1       3.258   5.871  21.206  0.00  0.00    +0.000 HD
ENDBRANCH  16  17
ENDBRANCH   1  11
TORSDOF 4
ENDMDL
