MODEL 1
REMARK VINA RESULT:      -8.4      0.000      0.000
REMARK  Name = 
REMARK  3 active torsions:
REMARK  status: ('A' for Active; 'I' for Inactive)
REMARK    1  A    between atoms: C_2  and  C_3
REMARK    2  A    between atoms: C_3  and  C_4
REMARK    3  A    between atoms: C_6  and  N_7
REMARK                            x       y       z     vdW  Elec       q    Type
REMARK                         _______ _______ _______ _____ _____    ______ ____
ROOT
ATOM      1  C   UNL     1       2.391   7.644  18.367  0.00  0.00    +0.000 A 
ATOM      2  N   UNL     1       3.499   7.457  17.723  0.00  0.00    +0.000 NA
ATOM      3  C   UNL     1       4.267   6.345  18.011  0.00  0.00    +0.000 A 
ATOM      4  C   UNL     1       3.925   5.526  19.023  0.00  0.00    +0.000 A 
ATOM      5  C   UNL     1       2.713   5.780  19.800  0.00  0.00    +0.000 A 
ATOM      6  O   UNL     1       2.418   5.090  20.768  0.00  0.00    +0.000 OA
ATOM      7  N   UNL     1       1.961   6.820  19.368  0.00  0.00    +0.000 N 
ATOM      8  H   UNL     1       1.101   7.004  19.873  0.00  0.00    +0.000 HD
ENDROOT
BRANCH   3   9
ATOM      9  N   UNL     1       5.408   6.063  17.251  0.00  0.00    +0.000 N 
ATOM     10  C   UNL     1       5.383   5.957  15.777  0.00  0.00    +0.000 C 
ATOM     11  C   UNL     1       6.139   4.699  15.318  0.00  0.00    +0.000 C 
ATOM     12  O   UNL     1       7.479   4.657  15.837  0.00  0.00    +0.000 OA
ATOM     13  C   UNL     1       7.453   4.691  17.273  0.00  0.00    +0.000 C 
ATOM     14  C   UNL     1       6.779   5.971  17.788  0.00  0.00    +0.000 C 
ENDBRANCH   3   9
BRANCH   1  15
ATOM     15  C   UNL     1       1.529   8.850  18.088  0.00  0.00    +0.000 C 
BRANCH  15  17
ATOM     16  O   UNL     1       1.621   9.429  20.368  0.00  0.00    +0.000 OA
ATOM     17  C   UNL     1       0.980   9.540  19.314  0.00  0.00    +0.000 C 
ATOM     18  N   UNL     1      -0.163  10.308  19.258  0.00  0.00    +0.000 N 
ATOM     19  C   UNL     1      -0.499  11.181  20.400  0.00  0.00    +0.000 C 
ATOM     20  C   UNL     1      -1.819  11.890  20.086  0.00  0.00    +0.000 C 
ATOM     21  C   UNL     1      -2.161  11.320  18.748  0.00  0.00    +0.000 A 
ATOM     22  C   UNL     1      -3.309  11.593  18.013  0.00  0.00    +0.000 A 
ATOM     23  C   UNL     1      -3.484  10.921  16.812  0.00  0.00    +0.000 A 
ATOM     24  F   UNL     1      -4.588  11.141  16.087  0.00  0.00    +0.000 F 
ATOM     25  C   UNL     1      -2.538  10.006  16.353  0.00  0.00    +0.000 A 
ATOM     26  C   UNL     1      -1.385   9.746  17.104  0.00  0.00    +0.000 A 
ATOM     27  C   UNL     1      -1.191  10.413  18.302  0.00  0.00    +0.000 A 
ENDBRANCH  15  17
ENDBRANCH   1  15
TORSDOF 3
ENDMDL
MODEL 2
REMARK VINA RESULT:      -8.2      4.516      9.051
REMARK  Name = 
REMARK  3 active torsions:
REMARK  status: ('A' for Active; 'I' for Inactive)
REMARK    1  A    between atoms: C_2  and  C_3
REMARK    2  A    between atoms: C_3  and  C_4
REMARK    3  A    between atoms: C_6  and  N_7
REMARK                            x       y       z     vdW  Elec       q    Type
REMARK                         _______ _______ _______ _____ _____    ______ ____
ROOT
ATOM      1  C   UNL     1      -1.829  11.766  18.281  0.00  0.00    +0.000 A 
ATOM      2  N   UNL     1      -2.980  11.967  18.840  0.00  0.00    +0.000 NA
ATOM      3  C   UNL     1      -4.127  11.551  18.191  0.00  0.00    +0.000 A 
ATOM      4  C   UNL     1      -4.057  11.044  16.947  0.00  0.00    +0.000 A 
ATOM      5  C   UNL     1      -2.763  10.886  16.285  0.00  0.00    +0.000 A 
ATOM      6  O   UNL     1      -2.680  10.492  15.128  0.00  0.00    +0.000 OA
ATOM      7  N   UNL     1      -1.687  11.207  17.042  0.00  0.00    +0.000 N 
ATOM      8  H   UNL     1      -0.775  11.084  16.618  0.00  0.00    +0.000 HD
ENDROOT
BRANCH   3   9
ATOM      9  N   UNL     1      -5.370  11.655  18.825  0.00  0.00    +0.000 N 
ATOM     10  C   UNL     1      -5.698  12.741  19.773  0.00  0.00    +0.000 C 
ATOM     11  C   UNL     1      -6.361  12.168  21.036  0.00  0.00    +0.000 C 
ATOM     12  O   UNL     1      -7.511  11.362  20.722  0.00  0.00    +0.000 OA
ATOM     13  C   UNL     1      -7.134  10.281  19.856  0.00  0.00    +0.000 C 
ATOM     14  C   UNL     1      -6.538  10.801  18.540  0.00  0.00    +0.000 C 
ENDBRANCH   3   9
BRANCH   1  15
ATOM     15  C   UNL     1      -0.555  12.213  18.954  0.00  0.00    +0.000 C 
BRANCH  15  17
ATOM     16  O   UNL     1      -0.713  12.294  21.301  0.00  0.00    +0.000 OA
ATOM     17  C   UNL     1      -0.322  11.634  20.328  0.00  0.00    +0.000 C 
ATOM     18  N   UNL     1       0.256  10.395  20.501  0.00  0.00    +0.000 N 
ATOM     19  C   UNL     1       0.206   9.756  21.831  0.00  0.00    +0.000 C 
ATOM     20  C   UNL     1       0.941   8.417  21.745  0.00  0.00    +0.000 C 
ATOM     21  C   UNL     1       1.398   8.409  20.323  0.00  0.00    +0.000 A 
ATOM     22  C   UNL     1       2.169   7.425  19.717  0.00  0.00    +0.000 A 
ATOM     23  C   UNL     1       2.548   7.619  18.396  0.00  0.00    +0.000 A 
ATOM     24  F   UNL     1       3.310   6.702  17.786  0.00  0.00    +0.000 F 
ATOM     25  C   UNL     1       2.164   8.762  17.697  0.00  0.00    +0.000 A 
ATOM     26  C   UNL     1       1.383   9.742  18.320  0.00  0.00    +0.000 A 
ATOM     27  C   UNL     1       0.991   9.561  19.636  0.00  0.00    +0.000 A 
ENDBRANCH  15  17
ENDBRANCH   1  15
TORSDOF 3
ENDMDL
MODEL 3
REMARK VINA RESULT:      -8.2      2.712      3.631
REMARK  Name = 
REMARK  3 active torsions:
REMARK  status: ('A' for Active; 'I' for Inactive)
REMARK    1  A    between atoms: C_2  and  C_3
REMARK    2  A    between atoms: C_3  and  C_4
REMARK    3  A    between atoms: C_6  and  N_7
REMARK                            x       y       z     vdW  Elec       q    Type
REMARK                         _______ _______ _______ _____ _____    ______ ____
ROOT
ATOM      1  C   UNL     1       2.766   5.354  19.145  0.00  0.00    +0.000 A 
ATOM      2  N   UNL     1       3.893   5.404  18.508  0.00  0.00    +0.000 NA
ATOM      3  C   UNL     1       4.376   4.261  17.900  0.00  0.00    +0.000 A 
ATOM      4  C   UNL     1       3.740   3.086  18.061  0.00  0.00    +0.000 A 
ATOM      5  C   UNL     1       2.507   3.014  18.844  0.00  0.00    +0.000 A 
ATOM      6  O   UNL     1       1.948   1.946  19.061  0.00  0.00    +0.000 OA
ATOM      7  N   UNL     1       2.045   4.204  19.299  0.00  0.00    +0.000 N 
ATOM      8  H   UNL     1       1.179   4.188  19.824  0.00  0.00    +0.000 HD
ENDROOT
BRANCH   3   9
ATOM      9  N   UNL     1       5.531   4.318  17.113  0.00  0.00    +0.000 N 
ATOM     10  C   UNL     1       6.820   4.837  17.617  0.00  0.00    +0.000 C 
ATOM     11  C   UNL     1       7.436   5.816  16.605  0.00  0.00    +0.000 C 
ATOM     12  O   UNL     1       7.568   5.228  15.299  0.00  0.00    +0.000 OA
ATOM     13  C   UNL     1       6.283   4.802  14.819  0.00  0.00    +0.000 C 
ATOM     14  C   UNL     1       5.656   3.758  15.754  0.00  0.00    +0.000 C 
ENDBRANCH   3   9
BRANCH   1  15
ATOM     15  C   UNL     1       2.210   6.578  19.829  0.00  0.00    +0.000 C 
BRANCH  15  17
ATOM     16  O   UNL     1       2.888   7.837  17.959  0.00  0.00    +0.000 OA
ATOM     17  C   UNL     1       2.191   7.828  18.982  0.00  0.00    +0.000 C 
ATOM     18  N   UNL     1       1.389   8.904  19.302  0.00  0.00    +0.000 N 
ATOM     19  C   UNL     1       1.192   9.975  18.306  0.00  0.00    +0.000 C 
ATOM     20  C   UNL     1       0.293  11.045  18.928  0.00  0.00    +0.000 C 
ATOM     21  C   UNL     1       0.062  10.492  20.297  0.00  0.00    +0.000 A 
ATOM     22  C   UNL     1      -0.663  11.103  21.313  0.00  0.00    +0.000 A 
ATOM     23  C   UNL     1      -0.720  10.464  22.543  0.00  0.00    +0.000 A 
ATOM     24  F   UNL     1      -1.390  11.033  23.553  0.00  0.00    +0.000 F 
ATOM     25  C   UNL     1      -0.075   9.245  22.753  0.00  0.00    +0.000 A 
ATOM     26  C   UNL     1       0.646   8.641  21.716  0.00  0.00    +0.000 A 
ATOM     27  C   UNL     1       0.708   9.263  20.481  0.00  0.00    +0.000 A 
ENDBRANCH  15  17
ENDBRANCH   1  15
TORSDOF 3
ENDMDL
MODEL 4
REMARK VINA RESULT:      -8.2      3.385      8.328
REMARK  Name = 
REMARK  3 active torsions:
REMARK  status: ('A' for Active; 'I' for Inactive)
REMARK    1  A    between atoms: C_2  and  C_3
REMARK    2  A    between atoms: C_3  and  C_4
REMARK    3  A    between atoms: C_6  and  N_7
REMARK                            x       y       z     vdW  Elec       q    Type
REMARK                         _______ _______ _______ _____ _____    ______ ____
ROOT
ATOM      1  C   UNL     1       1.510   8.528  20.388  0.00  0.00    +0.000 A 
ATOM      2  N   UNL     1       0.651   9.097  19.604  0.00  0.00    +0.000 NA
ATOM      3  C   UNL     1      -0.265   9.984  20.138  0.00  0.00    +0.000 A 
ATOM      4  C   UNL     1      -0.333  10.170  21.469  0.00  0.00    +0.000 A 
ATOM      5  C   UNL     1       0.589   9.470  22.361  0.00  0.00    +0.000 A 
ATOM      6  O   UNL     1       0.501   9.570  23.579  0.00  0.00    +0.000 OA
ATOM      7  N   UNL     1       1.528   8.716  21.740  0.00  0.00    +0.000 N 
ATOM      8  H   UNL     1       2.197   8.238  22.333  0.00  0.00    +0.000 HD
ENDROOT
BRANCH   3   9
ATOM      9  N   UNL     1      -1.127  10.695  19.297  0.00  0.00    +0.000 N 
ATOM     10  C   UNL     1      -1.692  12.013  19.656  0.00  0.00    +0.000 C 
ATOM     11  C   UNL     1      -3.203  12.044  19.371  0.00  0.00    +0.000 C 
ATOM     12  O   UNL     1      -3.501  11.684  18.011  0.00  0.00    +0.000 OA
ATOM     13  C   UNL     1      -2.996  10.371  17.726  0.00  0.00    +0.000 C 
ATOM     14  C   UNL     1      -1.474  10.305  17.917  0.00  0.00    +0.000 C 
ENDBRANCH   3   9
BRANCH   1  15
ATOM     15  C   UNL     1       2.520   7.547  19.844  0.00  0.00    +0.000 C 
BRANCH  15  17
ATOM     16  O   UNL     1       1.310   5.759  20.784  0.00  0.00    +0.000 OA
ATOM     17  C   UNL     1       2.088   6.101  19.883  0.00  0.00    +0.000 C 
ATOM     18  N   UNL     1       2.500   5.199  18.924  0.00  0.00    +0.000 N 
ATOM     19  C   UNL     1       1.836   3.883  18.842  0.00  0.00    +0.000 C 
ATOM     20  C   UNL     1       2.504   3.082  17.722  0.00  0.00    +0.000 C 
ATOM     21  C   UNL     1       3.558   4.030  17.254  0.00  0.00    +0.000 A 
ATOM     22  C   UNL     1       4.502   3.780  16.265  0.00  0.00    +0.000 A 
ATOM     23  C   UNL     1       5.445   4.763  16.005  0.00  0.00    +0.000 A 
ATOM     24  F   UNL     1       6.384   4.549  15.074  0.00  0.00    +0.000 F 
ATOM     25  C   UNL     1       5.445   5.966  16.709  0.00  0.00    +0.000 A 
ATOM     26  C   UNL     1       4.484   6.205  17.699  0.00  0.00    +0.000 A 
ATOM     27  C   UNL     1       3.532   5.236  17.967  0.00  0.00    +0.000 A 
ENDBRANCH  15  17
ENDBRANCH   1  15
TORSDOF 3
ENDMDL
MODEL 5
REMARK VINA RESULT:      -8.1      3.310      8.484
REMARK  Name = 
REMARK  3 active torsions:
REMARK  status: ('A' for Active; 'I' for Inactive)
REMARK    1  A    between atoms: C_2  and  C_3
REMARK    2  A    between atoms: C_3  and  C_4
REMARK    3  A    between atoms: C_6  and  N_7
REMARK                            x       y       z     vdW  Elec       q    Type
REMARK                         _______ _______ _______ _____ _____    ______ ____
ROOT
ATOM      1  C   UNL     1       1.191   9.580  18.304  0.00  0.00    +0.000 A 
ATOM      2  N   UNL     1       0.014   9.462  17.778  0.00  0.00    +0.000 NA
ATOM      3  C   UNL     1      -0.961  10.391  18.089  0.00  0.00    +0.000 A 
ATOM      4  C   UNL     1      -0.723  11.342  19.011  0.00  0.00    +0.000 A 
ATOM      5  C   UNL     1       0.583  11.430  19.661  0.00  0.00    +0.000 A 
ATOM      6  O   UNL     1       0.801  12.242  20.551  0.00  0.00    +0.000 OA
ATOM      7  N   UNL     1       1.512  10.555  19.205  0.00  0.00    +0.000 N 
ATOM      8  H   UNL     1       2.435  10.610  19.621  0.00  0.00    +0.000 HD
ENDROOT
BRANCH   3   9
ATOM      9  N   UNL     1      -2.203  10.348  17.446  0.00  0.00    +0.000 N 
ATOM     10  C   UNL     1      -2.371   9.871  16.058  0.00  0.00    +0.000 C 
ATOM     11  C   UNL     1      -3.252  10.846  15.259  0.00  0.00    +0.000 C 
ATOM     12  O   UNL     1      -4.516  11.081  15.904  0.00  0.00    +0.000 OA
ATOM     13  C   UNL     1      -4.306  11.609  17.222  0.00  0.00    +0.000 C 
ATOM     14  C   UNL     1      -3.499  10.635  18.092  0.00  0.00    +0.000 C 
ENDBRANCH   3   9
BRANCH   1  15
ATOM     15  C   UNL     1       2.279   8.581  17.996  0.00  0.00    +0.000 C 
BRANCH  15  17
ATOM     16  O   UNL     1       1.926   7.652  20.130  0.00  0.00    +0.000 OA
ATOM     17  C   UNL     1       2.443   7.482  19.017  0.00  0.00    +0.000 C 
ATOM     18  N   UNL     1       3.100   6.308  18.715  0.00  0.00    +0.000 N 
ATOM     19  C   UNL     1       2.991   5.164  19.641  0.00  0.00    +0.000 C 
ATOM     20  C   UNL     1       3.832   4.015  19.080  0.00  0.00    +0.000 C 
ATOM     21  C   UNL     1       4.401   4.628  17.842  0.00  0.00    +0.000 A 
ATOM     22  C   UNL     1       5.293   4.022  16.965  0.00  0.00    +0.000 A 
ATOM     23  C   UNL     1       5.761   4.772  15.896  0.00  0.00    +0.000 A 
ATOM     24  F   UNL     1       6.638   4.229  15.042  0.00  0.00    +0.000 F 
ATOM     25  C   UNL     1       5.348   6.090  15.704  0.00  0.00    +0.000 A 
ATOM     26  C   UNL     1       4.446   6.684  16.594  0.00  0.00    +0.000 A 
ATOM     27  C   UNL     1       3.964   5.947  17.663  0.00  0.00    +0.000 A 
ENDBRANCH  15  17
ENDBRANCH   1  15
TORSDOF 3
ENDMDL
MODEL 6
REMARK VINA RESULT:      -8.0      2.365      3.146
REMARK  Name = 
REMARK  3 active torsions:
REMARK  status: ('A' for Active; 'I' for Inactive)
REMARK    1  A    between atoms: C_2  and  C_3
REMARK    2  A    between atoms: C_3  and  C_4
REMARK    3  A    between atoms: C_6  and  N_7
REMARK                            x       y       z     vdW  Elec       q    Type
REMARK                         _______ _______ _______ _____ _____    ______ ____
ROOT
ATOM      1  C   UNL     1       2.466   6.558  18.697  0.00  0.00    +0.000 A 
ATOM      2  N   UNL     1       3.676   6.526  18.237  0.00  0.00    +0.000 NA
ATOM      3  C   UNL     1       4.092   5.427  17.508  0.00  0.00    +0.000 A 
ATOM      4  C   UNL     1       3.287   4.358  17.373  0.00  0.00    +0.000 A 
ATOM      5  C   UNL     1       1.947   4.364  17.957  0.00  0.00    +0.000 A 
ATOM      6  O   UNL     1       1.222   3.378  17.906  0.00  0.00    +0.000 OA
ATOM      7  N   UNL     1       1.582   5.527  18.547  0.00  0.00    +0.000 N 
ATOM      8  H   UNL     1       0.649   5.569  18.940  0.00  0.00    +0.000 HD
ENDROOT
BRANCH   3   9
ATOM      9  N   UNL     1       5.355   5.420  16.906  0.00  0.00    +0.000 N 
ATOM     10  C   UNL     1       5.546   5.338  15.443  0.00  0.00    +0.000 C 
ATOM     11  C   UNL     1       6.615   4.289  15.100  0.00  0.00    +0.000 C 
ATOM     12  O   UNL     1       7.853   4.536  15.790  0.00  0.00    +0.000 OA
ATOM     13  C   UNL     1       7.634   4.538  17.209  0.00  0.00    +0.000 C 
ATOM     14  C   UNL     1       6.631   5.626  17.617  0.00  0.00    +0.000 C 
ENDBRANCH   3   9
BRANCH   1  15
ATOM     15  C   UNL     1       1.978   7.735  19.504  0.00  0.00    +0.000 C 
BRANCH  15  17
ATOM     16  O   UNL     1       2.134   9.080  17.578  0.00  0.00    +0.000 OA
ATOM     17  C   UNL     1       1.611   8.955  18.694  0.00  0.00    +0.000 C 
ATOM     18  N   UNL     1       0.690   9.874  19.151  0.00  0.00    +0.000 N 
ATOM     19  C   UNL     1       0.160  10.886  18.217  0.00  0.00    +0.000 C 
ATOM     20  C   UNL     1      -0.810  11.785  18.987  0.00  0.00    +0.000 C 
ATOM     21  C   UNL     1      -0.731  11.210  20.364  0.00  0.00    +0.000 A 
ATOM     22  C   UNL     1      -1.390  11.691  21.490  0.00  0.00    +0.000 A 
ATOM     23  C   UNL     1      -1.147  11.060  22.701  0.00  0.00    +0.000 A 
ATOM     24  F   UNL     1      -1.747  11.509  23.811  0.00  0.00    +0.000 F 
ATOM     25  C   UNL     1      -0.275   9.977  22.788  0.00  0.00    +0.000 A 
ATOM     26  C   UNL     1       0.378   9.502  21.644  0.00  0.00    +0.000 A 
ATOM     27  C   UNL     1       0.141  10.116  20.425  0.00  0.00    +0.000 A 
ENDBRANCH  15  17
ENDBRANCH   1  15
TORSDOF 3
ENDMDL
MODEL 7
REMARK VINA RESULT:      -8.0      4.545      9.203
REMARK  Name = 
REMARK  3 active torsions:
REMARK  status: ('A' for Active; 'I' for Inactive)
REMARK    1  A    between atoms: C_2  and  C_3
REMARK    2  A    between atoms: C_3  and  C_4
REMARK    3  A    between atoms: C_6  and  N_7
REMARK                            x       y       z     vdW  Elec       q    Type
REMARK                         _______ _______ _______ _____ _____    ______ ____
ROOT
ATOM      1  C   UNL     1      -1.848  11.773  17.990  0.00  0.00    +0.000 A 
ATOM      2  N   UNL     1      -2.976  12.055  18.562  0.00  0.00    +0.000 NA
ATOM      3  C   UNL     1      -4.155  11.666  17.954  0.00  0.00    +0.000 A 
ATOM      4  C   UNL     1      -4.136  11.101  16.734  0.00  0.00    +0.000 A 
ATOM      5  C   UNL     1      -2.866  10.850  16.056  0.00  0.00    +0.000 A 
ATOM      6  O   UNL     1      -2.826  10.400  14.917  0.00  0.00    +0.000 OA
ATOM      7  N   UNL     1      -1.760  11.152  16.777  0.00  0.00    +0.000 N 
ATOM      8  H   UNL     1      -0.864  10.966  16.341  0.00  0.00    +0.000 HD
ENDROOT
BRANCH   3   9
ATOM      9  N   UNL     1      -5.378  11.860  18.606  0.00  0.00    +0.000 N 
ATOM     10  C   UNL     1      -6.681  11.711  17.926  0.00  0.00    +0.000 C 
ATOM     11  C   UNL     1      -7.597  12.901  18.256  0.00  0.00    +0.000 C 
ATOM     12  O   UNL     1      -7.749  13.086  19.675  0.00  0.00    +0.000 OA
ATOM     13  C   UNL     1      -6.466  13.297  20.284  0.00  0.00    +0.000 C 
ATOM     14  C   UNL     1      -5.535  12.098  20.054  0.00  0.00    +0.000 C 
ENDBRANCH   3   9
BRANCH   1  15
ATOM     15  C   UNL     1      -0.540  12.188  18.617  0.00  0.00    +0.000 C 
BRANCH  15  17
ATOM     16  O   UNL     1      -0.733  12.447  20.949  0.00  0.00    +0.000 OA
ATOM     17  C   UNL     1      -0.334  11.713  20.035  0.00  0.00    +0.000 C 
ATOM     18  N   UNL     1       0.232  10.485  20.310  0.00  0.00    +0.000 N 
ATOM     19  C   UNL     1       0.155   9.950  21.684  0.00  0.00    +0.000 C 
ATOM     20  C   UNL     1       0.880   8.602  21.711  0.00  0.00    +0.000 C 
ATOM     21  C   UNL     1       1.358   8.484  20.300  0.00  0.00    +0.000 A 
ATOM     22  C   UNL     1       2.131   7.450  19.783  0.00  0.00    +0.000 A 
ATOM     23  C   UNL     1       2.531   7.541  18.458  0.00  0.00    +0.000 A 
ATOM     24  F   UNL     1       3.295   6.575  17.931  0.00  0.00    +0.000 F 
ATOM     25  C   UNL     1       2.168   8.631  17.668  0.00  0.00    +0.000 A 
ATOM     26  C   UNL     1       1.386   9.661  18.203  0.00  0.00    +0.000 A 
ATOM     27  C   UNL     1       0.972   9.583  19.522  0.00  0.00    +0.000 A 
ENDBRANCH  15  17
ENDBRANCH   1  15
TORSDOF 3
ENDMDL
MODEL 8
REMARK VINA RESULT:      -7.9      3.260      8.395
REMARK  Name = 
REMARK  3 active torsions:
REMARK  status: ('A' for Active; 'I' for Inactive)
REMARK    1  A    between atoms: C_2  and  C_3
REMARK    2  A    between atoms: C_3  and  C_4
REMARK    3  A    between atoms: C_6  and  N_7
REMARK                            x       y       z     vdW  Elec       q    Type
REMARK                         _______ _______ _______ _____ _____    ______ ____
ROOT
ATOM      1  C   UNL     1       1.148   9.289  19.375  0.00  0.00    +0.000 A 
ATOM      2  N   UNL     1       0.154   9.669  18.636  0.00  0.00    +0.000 NA
ATOM      3  C   UNL     1      -0.809  10.500  19.177  0.00  0.00    +0.000 A 
ATOM      4  C   UNL     1      -0.774  10.820  20.483  0.00  0.00    +0.000 A 
ATOM      5  C   UNL     1       0.308  10.329  21.335  0.00  0.00    +0.000 A 
ATOM      6  O   UNL     1       0.324  10.550  22.540  0.00  0.00    +0.000 OA
ATOM      7  N   UNL     1       1.270   9.624  20.693  0.00  0.00    +0.000 N 
ATOM      8  H   UNL     1       2.046   9.292  21.254  0.00  0.00    +0.000 HD
ENDROOT
BRANCH   3   9
ATOM      9  N   UNL     1      -1.828  11.014  18.368  0.00  0.00    +0.000 N 
ATOM     10  C   UNL     1      -2.802  12.018  18.846  0.00  0.00    +0.000 C 
ATOM     11  C   UNL     1      -4.231  11.609  18.452  0.00  0.00    +0.000 C 
ATOM     12  O   UNL     1      -4.352  11.372  17.038  0.00  0.00    +0.000 OA
ATOM     13  C   UNL     1      -3.439  10.342  16.630  0.00  0.00    +0.000 C 
ATOM     14  C   UNL     1      -1.985  10.736  16.927  0.00  0.00    +0.000 C 
ENDBRANCH   3   9
BRANCH   1  15
ATOM     15  C   UNL     1       2.215   8.376  18.823  0.00  0.00    +0.000 C 
BRANCH  15  17
ATOM     16  O   UNL     1       1.718   6.853  20.549  0.00  0.00    +0.000 OA
ATOM     17  C   UNL     1       2.260   7.001  19.445  0.00  0.00    +0.000 C 
ATOM     18  N   UNL     1       2.836   5.932  18.791  0.00  0.00    +0.000 N 
ATOM     19  C   UNL     1       2.610   4.567  19.305  0.00  0.00    +0.000 C 
ATOM     20  C   UNL     1       3.380   3.589  18.416  0.00  0.00    +0.000 C 
ATOM     21  C   UNL     1       4.037   4.512  17.442  0.00  0.00    +0.000 A 
ATOM     22  C   UNL     1       4.910   4.142  16.426  0.00  0.00    +0.000 A 
ATOM     23  C   UNL     1       5.471   5.150  15.655  0.00  0.00    +0.000 A 
ATOM     24  F   UNL     1       6.333   4.834  14.680  0.00  0.00    +0.000 F 
ATOM     25  C   UNL     1       5.165   6.490  15.887  0.00  0.00    +0.000 A 
ATOM     26  C   UNL     1       4.280   6.845  16.911  0.00  0.00    +0.000 A 
ATOM     27  C   UNL     1       3.706   5.851  17.687  0.00  0.00    +0.000 A 
ENDBRANCH  15  17
ENDBRANCH   1  15
TORSDOF 3
ENDMDL
MODEL 9
REMARK VINA RESULT:      -7.9      1.085      1.483
REMARK  Name = 
REMARK  3 active torsions:
REMARK  status: ('A' for Active; 'I' for Inactive)
REMARK    1  A    between atoms: C_2  and  C_3
REMARK    2  A    between atoms: C_3  and  C_4
REMARK    3  A    between atoms: C_6  and  N_7
REMARK                            x       y       z     vdW  Elec       q    Type
REMARK                         _______ _______ _______ _____ _____    ______ ____
ROOT
ATOM      1  C   UNL     1       2.407   6.892  19.207  0.00  0.00    +0.000 A 
ATOM      2  N   UNL     1       3.515   6.573  18.618  0.00  0.00    +0.000 NA
ATOM      3  C   UNL     1       4.076   5.333  18.861  0.00  0.00    +0.000 A 
ATOM      4  C   UNL     1       3.537   4.513  19.782  0.00  0.00    +0.000 A 
ATOM      5  C   UNL     1       2.327   4.905  20.502  0.00  0.00    +0.000 A 
ATOM      6  O   UNL     1       1.857   4.206  21.392  0.00  0.00    +0.000 OA
ATOM      7  N   UNL     1       1.781   6.081  20.111  0.00  0.00    +0.000 N 
ATOM      8  H   UNL     1       0.927   6.367  20.576  0.00  0.00    +0.000 HD
ENDROOT
BRANCH   3   9
ATOM      9  N   UNL     1       5.210   4.924  18.152  0.00  0.00    +0.000 N 
ATOM     10  C   UNL     1       6.587   5.220  18.600  0.00  0.00    +0.000 C 
ATOM     11  C   UNL     1       7.429   5.756  17.431  0.00  0.00    +0.000 C 
ATOM     12  O   UNL     1       7.411   4.864  16.302  0.00  0.00    +0.000 OA
ATOM     13  C   UNL     1       6.061   4.661  15.856  0.00  0.00    +0.000 C 
ATOM     14  C   UNL     1       5.194   4.048  16.965  0.00  0.00    +0.000 C 
ENDBRANCH   3   9
BRANCH   1  15
ATOM     15  C   UNL     1       1.768   8.239  18.974  0.00  0.00    +0.000 C 
BRANCH  15  17
ATOM     16  O   UNL     1       1.759   8.611  21.299  0.00  0.00    +0.000 OA
ATOM     17  C   UNL     1       1.244   8.919  20.216  0.00  0.00    +0.000 C 
ATOM     18  N   UNL     1       0.263   9.886  20.149  0.00  0.00    +0.000 N 
ATOM     19  C   UNL     1      -0.014  10.714  21.340  0.00  0.00    +0.000 C 
ATOM     20  C   UNL     1      -1.154  11.675  20.998  0.00  0.00    +0.000 C 
ATOM     21  C   UNL     1      -1.473  11.284  19.592  0.00  0.00    +0.000 A 
ATOM     22  C   UNL     1      -2.485  11.818  18.804  0.00  0.00    +0.000 A 
ATOM     23  C   UNL     1      -2.669  11.286  17.536  0.00  0.00    +0.000 A 
ATOM     24  F   UNL     1      -3.649  11.761  16.756  0.00  0.00    +0.000 F 
ATOM     25  C   UNL     1      -1.863  10.252  17.064  0.00  0.00    +0.000 A 
ATOM     26  C   UNL     1      -0.844   9.728  17.869  0.00  0.00    +0.000 A 
ATOM     27  C   UNL     1      -0.642  10.252  19.134  0.00  0.00    +0.000 A 
ENDBRANCH  15  17
ENDBRANCH   1  15
TORSDOF 3
ENDMDL
