MODEL 1
REMARK VINA RESULT:      -8.0      0.000      0.000
REMARK  Name = 
REMARK  7 active torsions:
REMARK  status: ('A' for Active; 'I' for Inactive)
REMARK    1  A    between atoms: C_1  and  O_2
REMARK    2  A    between atoms: O_2  and  C_3
REMARK    3  A    between atoms: C_6  and  C_7
REMARK    4  A    between atoms: C_7  and  C_8
REMARK    5  A    between atoms: C_7  and  C_9
REMARK    6  A    between atoms: C_16  and  C_17
REMARK    7  A    between atoms: C_17  and  O_19
REMARK                            x       y       z     vdW  Elec       q    Type
REMARK                         _______ _______ _______ _____ _____    ______ ____
ROOT
ATOM      1  C   UNL     1       3.569   4.569  18.597  0.00  0.00    +0.000 C 
ATOM      2  O   UNL     1       3.065   5.682  18.413  0.00  0.00    +0.000 OA
ATOM      3  N   UNL     1       2.752   3.441  18.850  0.00  0.00    +0.000 N 
ATOM      4  C   UNL     1       1.310   3.745  18.927  0.00  0.00    +0.000 C 
ATOM      5  C   UNL     1       0.884   4.142  20.352  0.00  0.00    +0.000 C 
ATOM      6  C   UNL     1       1.364   3.139  21.406  0.00  0.00    +0.000 C 
ATOM      7  C   UNL     1       2.860   2.831  21.248  0.00  0.00    +0.000 C 
ATOM      8  C   UNL     1       3.113   2.368  19.810  0.00  0.00    +0.000 C 
ENDROOT
BRANCH   1   9
ATOM      9  C   UNL     1       5.092   4.391  18.436  0.00  0.00    +0.000 C 
ATOM     10  C   UNL     1       5.850   5.367  19.349  0.00  0.00    +0.000 C 
BRANCH   9  14
ATOM     11  C   UNL     1       6.631   4.527  14.373  0.00  0.00    +0.000 A 
ATOM     12  C   UNL     1       5.303   4.197  14.633  0.00  0.00    +0.000 A 
ATOM     13  C   UNL     1       4.792   4.249  15.933  0.00  0.00    +0.000 A 
ATOM     14  C   UNL     1       5.608   4.617  17.013  0.00  0.00    +0.000 A 
ATOM     15  C   UNL     1       6.936   4.985  16.736  0.00  0.00    +0.000 A 
ATOM     16  C   UNL     1       7.441   4.944  15.428  0.00  0.00    +0.000 A 
BRANCH  11  18
ATOM     17  C   UNL     1       6.266   3.407  12.308  0.00  0.00    +0.000 C 
ATOM     18  O   UNL     1       7.020   4.331  13.078  0.00  0.00    +0.000 OA
ENDBRANCH  11  18
ENDBRANCH   9  14
ENDBRANCH   1   9
BRANCH   8  19
ATOM     19  C   UNL     1       4.382   1.538  19.601  0.00  0.00    +0.000 C 
ATOM     20  O   UNL     1       5.304   1.454  20.394  0.00  0.00    +0.000 OA
BRANCH  19  21
ATOM     21  O   UNL     1       4.323   0.785  18.473  0.00  0.00    +0.000 OA
ATOM     22  H   UNL     1       3.995   1.292  17.701  0.00  0.00    +0.000 HD
ENDBRANCH  19  21
ENDBRANCH   8  19
TORSDOF 5
ENDMDL
MODEL 2
REMARK VINA RESULT:      -7.9      0.407      1.123
REMARK  Name = 
REMARK  7 active torsions:
REMARK  status: ('A' for Active; 'I' for Inactive)
REMARK    1  A    between atoms: C_1  and  O_2
REMARK    2  A    between atoms: O_2  and  C_3
REMARK    3  A    between atoms: C_6  and  C_7
REMARK    4  A    between atoms: C_7  and  C_8
REMARK    5  A    between atoms: C_7  and  C_9
REMARK    6  A    between atoms: C_16  and  C_17
REMARK    7  A    between atoms: C_17  and  O_19
REMARK                            x       y       z     vdW  Elec       q    Type
REMARK                         _______ _______ _______ _____ _____    ______ ____
ROOT
ATOM      1  C   UNL     1       3.629   4.477  18.547  0.00  0.00    +0.000 C 
ATOM      2  O   UNL     1       3.123   5.576  18.294  0.00  0.00    +0.000 OA
ATOM      3  N   UNL     1       2.811   3.346  18.782  0.00  0.00    +0.000 N 
ATOM      4  C   UNL     1       1.364   3.630  18.754  0.00  0.00    +0.000 C 
ATOM      5  C   UNL     1       0.840   4.065  20.134  0.00  0.00    +0.000 C 
ATOM      6  C   UNL     1       1.262   3.103  21.249  0.00  0.00    +0.000 C 
ATOM      7  C   UNL     1       2.769   2.813  21.200  0.00  0.00    +0.000 C 
ATOM      8  C   UNL     1       3.122   2.309  19.797  0.00  0.00    +0.000 C 
ENDROOT
BRANCH   1   9
ATOM      9  C   UNL     1       5.162   4.318  18.492  0.00  0.00    +0.000 C 
ATOM     10  C   UNL     1       5.851   5.457  19.258  0.00  0.00    +0.000 C 
BRANCH   9  14
ATOM     11  C   UNL     1       6.780   4.810  14.488  0.00  0.00    +0.000 A 
ATOM     12  C   UNL     1       7.579   4.974  15.616  0.00  0.00    +0.000 A 
ATOM     13  C   UNL     1       7.076   4.720  16.895  0.00  0.00    +0.000 A 
ATOM     14  C   UNL     1       5.746   4.312  17.078  0.00  0.00    +0.000 A 
ATOM     15  C   UNL     1       4.959   4.112  15.931  0.00  0.00    +0.000 A 
ATOM     16  C   UNL     1       5.472   4.356  14.649  0.00  0.00    +0.000 A 
BRANCH  11  18
ATOM     17  C   UNL     1       7.170   4.356  12.187  0.00  0.00    +0.000 C 
ATOM     18  O   UNL     1       7.369   5.193  13.316  0.00  0.00    +0.000 OA
ENDBRANCH  11  18
ENDBRANCH   9  14
ENDBRANCH   1   9
BRANCH   8  19
ATOM     19  C   UNL     1       4.413   1.492  19.700  0.00  0.00    +0.000 C 
ATOM     20  O   UNL     1       5.300   1.478  20.535  0.00  0.00    +0.000 OA
BRANCH  19  21
ATOM     21  O   UNL     1       4.418   0.667  18.621  0.00  0.00    +0.000 OA
ATOM     22  H   UNL     1       3.538   0.604  18.195  0.00  0.00    +0.000 HD
ENDBRANCH  19  21
ENDBRANCH   8  19
TORSDOF 5
ENDMDL
MODEL 3
REMARK VINA RESULT:      -6.7      1.201      1.351
REMARK  Name = 
REMARK  7 active torsions:
REMARK  status: ('A' for Active; 'I' for Inactive)
REMARK    1  A    between atoms: C_1  and  O_2
REMARK    2  A    between atoms: O_2  and  C_3
REMARK    3  A    between atoms: C_6  and  C_7
REMARK    4  A    between atoms: C_7  and  C_8
REMARK    5  A    between atoms: C_7  and  C_9
REMARK    6  A    between atoms: C_16  and  C_17
REMARK    7  A    between atoms: C_17  and  O_19
REMARK                            x       y       z     vdW  Elec       q    Type
REMARK                         _______ _______ _______ _____ _____    ______ ____
ROOT
ATOM      1  C   UNL     1       2.590   4.533  18.205  0.00  0.00    +0.000 C 
ATOM      2  O   UNL     1       1.599   5.145  17.791  0.00  0.00    +0.000 OA
ATOM      3  N   UNL     1       2.464   3.218  18.713  0.00  0.00    +0.000 N 
ATOM      4  C   UNL     1       1.078   2.714  18.747  0.00  0.00    +0.000 C 
ATOM      5  C   UNL     1       0.365   3.090  20.058  0.00  0.00    +0.000 C 
ATOM      6  C   UNL     1       1.190   2.725  21.298  0.00  0.00    +0.000 C 
ATOM      7  C   UNL     1       2.632   3.239  21.183  0.00  0.00    +0.000 C 
ATOM      8  C   UNL     1       3.234   2.714  19.877  0.00  0.00    +0.000 C 
ENDROOT
BRANCH   1   9
ATOM      9  C   UNL     1       3.987   5.169  18.059  0.00  0.00    +0.000 C 
ATOM     10  C   UNL     1       3.924   6.681  18.324  0.00  0.00    +0.000 C 
BRANCH   9  14
ATOM     11  C   UNL     1       6.245   4.582  14.390  0.00  0.00    +0.000 A 
ATOM     12  C   UNL     1       5.820   3.502  15.160  0.00  0.00    +0.000 A 
ATOM     13  C   UNL     1       5.013   3.694  16.284  0.00  0.00    +0.000 A 
ATOM     14  C   UNL     1       4.625   4.983  16.680  0.00  0.00    +0.000 A 
ATOM     15  C   UNL     1       5.027   6.064  15.877  0.00  0.00    +0.000 A 
ATOM     16  C   UNL     1       5.826   5.865  14.741  0.00  0.00    +0.000 A 
BRANCH  11  18
ATOM     17  C   UNL     1       6.572   3.579  12.260  0.00  0.00    +0.000 C 
ATOM     18  O   UNL     1       7.110   4.257  13.385  0.00  0.00    +0.000 OA
ENDBRANCH  11  18
ENDBRANCH   9  14
ENDBRANCH   1   9
BRANCH   8  19
ATOM     19  C   UNL     1       4.764   2.668  19.831  0.00  0.00    +0.000 C 
ATOM     20  O   UNL     1       5.496   3.642  19.812  0.00  0.00    +0.000 OA
BRANCH  19  21
ATOM     21  O   UNL     1       5.243   1.402  19.944  0.00  0.00    +0.000 OA
ATOM     22  H   UNL     1       6.193   1.340  19.716  0.00  0.00    +0.000 HD
ENDBRANCH  19  21
ENDBRANCH   8  19
TORSDOF 5
ENDMDL
MODEL 4
REMARK VINA RESULT:      -6.7      1.297      1.559
REMARK  Name = 
REMARK  7 active torsions:
REMARK  status: ('A' for Active; 'I' for Inactive)
REMARK    1  A    between atoms: C_1  and  O_2
REMARK    2  A    between atoms: O_2  and  C_3
REMARK    3  A    between atoms: C_6  and  C_7
REMARK    4  A    between atoms: C_7  and  C_8
REMARK    5  A    between atoms: C_7  and  C_9
REMARK    6  A    between atoms: C_16  and  C_17
REMARK    7  A    between atoms: C_17  and  O_19
REMARK                            x       y       z     vdW  Elec       q    Type
REMARK                         _______ _______ _______ _____ _____    ______ ____
ROOT
ATOM      1  C   UNL     1       2.607   4.634  17.992  0.00  0.00    +0.000 C 
ATOM      2  O   UNL     1       1.618   5.146  17.457  0.00  0.00    +0.000 OA
ATOM      3  N   UNL     1       2.531   3.338  18.556  0.00  0.00    +0.000 N 
ATOM      4  C   UNL     1       1.189   2.728  18.489  0.00  0.00    +0.000 C 
ATOM      5  C   UNL     1       0.327   3.107  19.706  0.00  0.00    +0.000 C 
ATOM      6  C   UNL     1       1.053   2.866  21.034  0.00  0.00    +0.000 C 
ATOM      7  C   UNL     1       2.457   3.487  21.027  0.00  0.00    +0.000 C 
ATOM      8  C   UNL     1       3.220   2.951  19.812  0.00  0.00    +0.000 C 
ENDROOT
BRANCH   1   9
ATOM      9  C   UNL     1       3.961   5.371  17.943  0.00  0.00    +0.000 C 
ATOM     10  C   UNL     1       3.747   6.889  17.846  0.00  0.00    +0.000 C 
BRANCH   9  14
ATOM     11  C   UNL     1       6.078   4.230  14.322  0.00  0.00    +0.000 A 
ATOM     12  C   UNL     1       5.751   5.559  14.581  0.00  0.00    +0.000 A 
ATOM     13  C   UNL     1       5.157   5.929  15.790  0.00  0.00    +0.000 A 
ATOM     14  C   UNL     1       4.856   4.969  16.768  0.00  0.00    +0.000 A 
ATOM     15  C   UNL     1       5.224   3.637  16.514  0.00  0.00    +0.000 A 
ATOM     16  C   UNL     1       5.832   3.272  15.304  0.00  0.00    +0.000 A 
BRANCH  11  18
ATOM     17  C   UNL     1       5.711   3.287  12.170  0.00  0.00    +0.000 C 
ATOM     18  O   UNL     1       6.555   3.999  13.063  0.00  0.00    +0.000 OA
ENDBRANCH  11  18
ENDBRANCH   9  14
ENDBRANCH   1   9
BRANCH   8  19
ATOM     19  C   UNL     1       4.746   3.023  19.912  0.00  0.00    +0.000 C 
ATOM     20  O   UNL     1       5.393   4.046  20.056  0.00  0.00    +0.000 OA
BRANCH  19  21
ATOM     21  O   UNL     1       5.317   1.792  19.950  0.00  0.00    +0.000 OA
ATOM     22  H   UNL     1       5.421   1.399  19.059  0.00  0.00    +0.000 HD
ENDBRANCH  19  21
ENDBRANCH   8  19
TORSDOF 5
ENDMDL
MODEL 5
REMARK VINA RESULT:      -6.6      1.304      1.561
REMARK  Name = 
REMARK  7 active torsions:
REMARK  status: ('A' for Active; 'I' for Inactive)
REMARK    1  A    between atoms: C_1  and  O_2
REMARK    2  A    between atoms: O_2  and  C_3
REMARK    3  A    between atoms: C_6  and  C_7
REMARK    4  A    between atoms: C_7  and  C_8
REMARK    5  A    between atoms: C_7  and  C_9
REMARK    6  A    between atoms: C_16  and  C_17
REMARK    7  A    between atoms: C_17  and  O_19
REMARK                            x       y       z     vdW  Elec       q    Type
REMARK                         _______ _______ _______ _____ _____    ______ ____
ROOT
ATOM      1  C   UNL     1       4.341   5.594  18.015  0.00  0.00    +0.000 C 
ATOM      2  O   UNL     1       4.328   6.828  17.967  0.00  0.00    +0.000 OA
ATOM      3  N   UNL     1       3.159   4.871  18.306  0.00  0.00    +0.000 N 
ATOM      4  C   UNL     1       1.987   5.721  18.591  0.00  0.00    +0.000 C 
ATOM      5  C   UNL     1       1.903   6.098  20.081  0.00  0.00    +0.000 C 
ATOM      6  C   UNL     1       2.023   4.877  21.000  0.00  0.00    +0.000 C 
ATOM      7  C   UNL     1       3.235   4.011  20.627  0.00  0.00    +0.000 C 
ATOM      8  C   UNL     1       3.134   3.646  19.143  0.00  0.00    +0.000 C 
ENDROOT
BRANCH   1   9
ATOM      9  C   UNL     1       5.631   4.835  17.644  0.00  0.00    +0.000 C 
ATOM     10  C   UNL     1       6.855   5.499  18.294  0.00  0.00    +0.000 C 
BRANCH   9  14
ATOM     11  C   UNL     1       6.493   4.119  13.443  0.00  0.00    +0.000 A 
ATOM     12  C   UNL     1       5.227   3.882  13.973  0.00  0.00    +0.000 A 
ATOM     13  C   UNL     1       4.932   4.206  15.300  0.00  0.00    +0.000 A 
ATOM     14  C   UNL     1       5.910   4.760  16.141  0.00  0.00    +0.000 A 
ATOM     15  C   UNL     1       7.173   5.030  15.587  0.00  0.00    +0.000 A 
ATOM     16  C   UNL     1       7.461   4.716  14.251  0.00  0.00    +0.000 A 
BRANCH  11  18
ATOM     17  C   UNL     1       5.792   2.637  11.722  0.00  0.00    +0.000 C 
ATOM     18  O   UNL     1       6.670   3.659  12.170  0.00  0.00    +0.000 OA
ENDBRANCH  11  18
ENDBRANCH   9  14
ENDBRANCH   1   9
BRANCH   8  19
ATOM     19  C   UNL     1       3.920   2.403  18.719  0.00  0.00    +0.000 C 
ATOM     20  O   UNL     1       3.750   1.785  17.682  0.00  0.00    +0.000 OA
BRANCH  19  21
ATOM     21  O   UNL     1       4.937   2.122  19.574  0.00  0.00    +0.000 OA
ATOM     22  H   UNL     1       5.416   2.926  19.862  0.00  0.00    +0.000 HD
ENDBRANCH  19  21
ENDBRANCH   8  19
TORSDOF 5
ENDMDL
MODEL 6
REMARK VINA RESULT:      -6.5      0.766      1.036
REMARK  Name = 
REMARK  7 active torsions:
REMARK  status: ('A' for Active; 'I' for Inactive)
REMARK    1  A    between atoms: C_1  and  O_2
REMARK    2  A    between atoms: O_2  and  C_3
REMARK    3  A    between atoms: C_6  and  C_7
REMARK    4  A    between atoms: C_7  and  C_8
REMARK    5  A    between atoms: C_7  and  C_9
REMARK    6  A    between atoms: C_16  and  C_17
REMARK    7  A    between atoms: C_17  and  O_19
REMARK                            x       y       z     vdW  Elec       q    Type
REMARK                         _______ _______ _______ _____ _____    ______ ____
ROOT
ATOM      1  C   UNL     1       3.304   4.152  18.371  0.00  0.00    +0.000 C 
ATOM      2  O   UNL     1       2.692   5.145  17.964  0.00  0.00    +0.000 OA
ATOM      3  N   UNL     1       2.602   3.026  18.865  0.00  0.00    +0.000 N 
ATOM      4  C   UNL     1       1.136   3.192  18.893  0.00  0.00    +0.000 C 
ATOM      5  C   UNL     1       0.659   3.835  20.207  0.00  0.00    +0.000 C 
ATOM      6  C   UNL     1       1.227   3.129  21.443  0.00  0.00    +0.000 C 
ATOM      7  C   UNL     1       2.748   2.948  21.336  0.00  0.00    +0.000 C 
ATOM      8  C   UNL     1       3.061   2.221  20.025  0.00  0.00    +0.000 C 
ENDROOT
BRANCH   1   9
ATOM      9  C   UNL     1       4.839   4.099  18.234  0.00  0.00    +0.000 C 
ATOM     10  C   UNL     1       5.507   5.013  19.273  0.00  0.00    +0.000 C 
BRANCH   9  14
ATOM     11  C   UNL     1       6.780   5.094  14.473  0.00  0.00    +0.000 A 
ATOM     12  C   UNL     1       6.252   3.825  14.702  0.00  0.00    +0.000 A 
ATOM     13  C   UNL     1       5.546   3.543  15.874  0.00  0.00    +0.000 A 
ATOM     14  C   UNL     1       5.365   4.524  16.861  0.00  0.00    +0.000 A 
ATOM     15  C   UNL     1       5.868   5.811  16.605  0.00  0.00    +0.000 A 
ATOM     16  C   UNL     1       6.566   6.094  15.422  0.00  0.00    +0.000 A 
BRANCH  11  18
ATOM     17  C   UNL     1       7.177   4.365  12.246  0.00  0.00    +0.000 C 
ATOM     18  O   UNL     1       7.533   5.198  13.339  0.00  0.00    +0.000 OA
ENDBRANCH  11  18
ENDBRANCH   9  14
ENDBRANCH   1   9
BRANCH   8  19
ATOM     19  C   UNL     1       4.409   1.498  19.981  0.00  0.00    +0.000 C 
ATOM     20  O   UNL     1       4.821   0.837  19.043  0.00  0.00    +0.000 OA
BRANCH  19  21
ATOM     21  O   UNL     1       5.176   1.776  21.067  0.00  0.00    +0.000 OA
ATOM     22  H   UNL     1       5.790   1.045  21.288  0.00  0.00    +0.000 HD
ENDBRANCH  19  21
ENDBRANCH   8  19
TORSDOF 5
ENDMDL
MODEL 7
REMARK VINA RESULT:      -6.4      1.816      2.172
REMARK  Name = 
REMARK  7 active torsions:
REMARK  status: ('A' for Active; 'I' for Inactive)
REMARK    1  A    between atoms: C_1  and  O_2
REMARK    2  A    between atoms: O_2  and  C_3
REMARK    3  A    between atoms: C_6  and  C_7
REMARK    4  A    between atoms: C_7  and  C_8
REMARK    5  A    between atoms: C_7  and  C_9
REMARK    6  A    between atoms: C_16  and  C_17
REMARK    7  A    between atoms: C_17  and  O_19
REMARK                            x       y       z     vdW  Elec       q    Type
REMARK                         _______ _______ _______ _____ _____    ______ ____
ROOT
ATOM      1  C   UNL     1       4.487   6.012  17.775  0.00  0.00    +0.000 C 
ATOM      2  O   UNL     1       4.924   7.167  17.809  0.00  0.00    +0.000 OA
ATOM      3  N   UNL     1       3.106   5.760  17.957  0.00  0.00    +0.000 N 
ATOM      4  C   UNL     1       2.303   6.966  18.238  0.00  0.00    +0.000 C 
ATOM      5  C   UNL     1       2.254   7.281  19.744  0.00  0.00    +0.000 C 
ATOM      6  C   UNL     1       1.859   6.062  20.584  0.00  0.00    +0.000 C 
ATOM      7  C   UNL     1       2.699   4.830  20.216  0.00  0.00    +0.000 C 
ATOM      8  C   UNL     1       2.579   4.593  18.707  0.00  0.00    +0.000 C 
ENDROOT
BRANCH   1   9
ATOM      9  C   UNL     1       5.438   4.852  17.420  0.00  0.00    +0.000 C 
ATOM     10  C   UNL     1       6.765   4.987  18.183  0.00  0.00    +0.000 C 
BRANCH   9  14
ATOM     11  C   UNL     1       6.514   4.073  13.280  0.00  0.00    +0.000 A 
ATOM     12  C   UNL     1       5.236   3.796  13.760  0.00  0.00    +0.000 A 
ATOM     13  C   UNL     1       4.870   4.139  15.065  0.00  0.00    +0.000 A 
ATOM     14  C   UNL     1       5.786   4.752  15.933  0.00  0.00    +0.000 A 
ATOM     15  C   UNL     1       7.060   5.062  15.428  0.00  0.00    +0.000 A 
ATOM     16  C   UNL     1       7.420   4.728  14.114  0.00  0.00    +0.000 A 
BRANCH  11  18
ATOM     17  C   UNL     1       6.041   2.440  11.618  0.00  0.00    +0.000 C 
ATOM     18  O   UNL     1       6.766   3.591  12.028  0.00  0.00    +0.000 OA
ENDBRANCH  11  18
ENDBRANCH   9  14
ENDBRANCH   1   9
BRANCH   8  19
ATOM     19  C   UNL     1       2.890   3.168  18.241  0.00  0.00    +0.000 C 
ATOM     20  O   UNL     1       3.511   2.339  18.883  0.00  0.00    +0.000 OA
BRANCH  19  21
ATOM     21  O   UNL     1       2.282   2.870  17.064  0.00  0.00    +0.000 OA
ATOM     22  H   UNL     1       1.314   3.015  17.095  0.00  0.00    +0.000 HD
ENDBRANCH  19  21
ENDBRANCH   8  19
TORSDOF 5
ENDMDL
MODEL 8
REMARK VINA RESULT:      -6.4      2.348      4.294
REMARK  Name = 
REMARK  7 active torsions:
REMARK  status: ('A' for Active; 'I' for Inactive)
REMARK    1  A    between atoms: C_1  and  O_2
REMARK    2  A    between atoms: O_2  and  C_3
REMARK    3  A    between atoms: C_6  and  C_7
REMARK    4  A    between atoms: C_7  and  C_8
REMARK    5  A    between atoms: C_7  and  C_9
REMARK    6  A    between atoms: C_16  and  C_17
REMARK    7  A    between atoms: C_17  and  O_19
REMARK                            x       y       z     vdW  Elec       q    Type
REMARK                         _______ _______ _______ _____ _____    ______ ____
ROOT
ATOM      1  C   UNL     1       4.245   3.498  17.732  0.00  0.00    +0.000 C 
ATOM      2  O   UNL     1       4.642   2.377  17.398  0.00  0.00    +0.000 OA
ATOM      3  N   UNL     1       3.524   3.678  18.937  0.00  0.00    +0.000 N 
ATOM      4  C   UNL     1       3.262   2.429  19.676  0.00  0.00    +0.000 C 
ATOM      5  C   UNL     1       1.958   1.754  19.213  0.00  0.00    +0.000 C 
ATOM      6  C   UNL     1       0.772   2.724  19.194  0.00  0.00    +0.000 C 
ATOM      7  C   UNL     1       1.121   4.021  18.448  0.00  0.00    +0.000 C 
ATOM      8  C   UNL     1       2.384   4.619  19.075  0.00  0.00    +0.000 C 
ENDROOT
BRANCH   1   9
ATOM      9  C   UNL     1       4.639   4.724  16.883  0.00  0.00    +0.000 C 
ATOM     10  C   UNL     1       5.255   4.282  15.547  0.00  0.00    +0.000 C 
BRANCH   9  14
ATOM     11  C   UNL     1       7.809   7.293  18.381  0.00  0.00    +0.000 A 
ATOM     12  C   UNL     1       6.891   7.751  17.440  0.00  0.00    +0.000 A 
ATOM     13  C   UNL     1       5.818   6.952  17.036  0.00  0.00    +0.000 A 
ATOM     14  C   UNL     1       5.649   5.659  17.553  0.00  0.00    +0.000 A 
ATOM     15  C   UNL     1       6.558   5.219  18.530  0.00  0.00    +0.000 A 
ATOM     16  C   UNL     1       7.626   6.030  18.943  0.00  0.00    +0.000 A 
BRANCH  11  18
ATOM     17  C   UNL     1       8.617   9.528  18.465  0.00  0.00    +0.000 C 
ATOM     18  O   UNL     1       8.861   8.136  18.604  0.00  0.00    +0.000 OA
ENDBRANCH  11  18
ENDBRANCH   9  14
ENDBRANCH   1   9
BRANCH   8  19
ATOM     19  C   UNL     1       2.585   6.118  18.843  0.00  0.00    +0.000 C 
ATOM     20  O   UNL     1       2.209   6.734  17.860  0.00  0.00    +0.000 OA
BRANCH  19  21
ATOM     21  O   UNL     1       3.127   6.736  19.924  0.00  0.00    +0.000 OA
ATOM     22  H   UNL     1       2.592   7.499  20.226  0.00  0.00    +0.000 HD
ENDBRANCH  19  21
ENDBRANCH   8  19
TORSDOF 5
ENDMDL
MODEL 9
REMARK VINA RESULT:      -6.3      1.408      1.983
REMARK  Name = 
REMARK  7 active torsions:
REMARK  status: ('A' for Active; 'I' for Inactive)
REMARK    1  A    between atoms: C_1  and  O_2
REMARK    2  A    between atoms: O_2  and  C_3
REMARK    3  A    between atoms: C_6  and  C_7
REMARK    4  A    between atoms: C_7  and  C_8
REMARK    5  A    between atoms: C_7  and  C_9
REMARK    6  A    between atoms: C_16  and  C_17
REMARK    7  A    between atoms: C_17  and  O_19
REMARK                            x       y       z     vdW  Elec       q    Type
REMARK                         _______ _______ _______ _____ _____    ______ ____
ROOT
ATOM      1  C   UNL     1       4.627   5.677  18.003  0.00  0.00    +0.000 C 
ATOM      2  O   UNL     1       4.708   6.902  17.859  0.00  0.00    +0.000 OA
ATOM      3  N   UNL     1       3.369   5.057  18.197  0.00  0.00    +0.000 N 
ATOM      4  C   UNL     1       2.235   5.999  18.266  0.00  0.00    +0.000 C 
ATOM      5  C   UNL     1       1.999   6.505  19.700  0.00  0.00    +0.000 C 
ATOM      6  C   UNL     1       1.919   5.362  20.718  0.00  0.00    +0.000 C 
ATOM      7  C   UNL     1       3.102   4.394  20.568  0.00  0.00    +0.000 C 
ATOM      8  C   UNL     1       3.155   3.911  19.115  0.00  0.00    +0.000 C 
ENDROOT
BRANCH   1   9
ATOM      9  C   UNL     1       5.894   4.812  17.856  0.00  0.00    +0.000 C 
ATOM     10  C   UNL     1       7.115   5.536  18.445  0.00  0.00    +0.000 C 
BRANCH   9  14
ATOM     11  C   UNL     1       6.681   4.217  13.622  0.00  0.00    +0.000 A 
ATOM     12  C   UNL     1       7.524   4.994  14.413  0.00  0.00    +0.000 A 
ATOM     13  C   UNL     1       7.318   5.102  15.791  0.00  0.00    +0.000 A 
ATOM     14  C   UNL     1       6.246   4.445  16.413  0.00  0.00    +0.000 A 
ATOM     15  C   UNL     1       5.423   3.632  15.613  0.00  0.00    +0.000 A 
ATOM     16  C   UNL     1       5.641   3.517  14.233  0.00  0.00    +0.000 A 
BRANCH  11  18
ATOM     17  C   UNL     1       6.885   3.072  11.549  0.00  0.00    +0.000 C 
ATOM     18  O   UNL     1       6.936   4.287  12.283  0.00  0.00    +0.000 OA
ENDBRANCH  11  18
ENDBRANCH   9  14
ENDBRANCH   1   9
BRANCH   8  19
ATOM     19  C   UNL     1       3.895   2.590  18.890  0.00  0.00    +0.000 C 
ATOM     20  O   UNL     1       3.687   1.816  17.971  0.00  0.00    +0.000 OA
BRANCH  19  21
ATOM     21  O   UNL     1       4.919   2.419  19.765  0.00  0.00    +0.000 OA
ATOM     22  H   UNL     1       4.667   2.646  20.684  0.00  0.00    +0.000 HD
ENDBRANCH  19  21
ENDBRANCH   8  19
TORSDOF 5
ENDMDL
