MODEL 1
REMARK VINA RESULT:      -7.4      0.000      0.000
REMARK  Name = 
REMARK  8 active torsions:
REMARK  status: ('A' for Active; 'I' for Inactive)
REMARK    1  A    between atoms: C_1  and  C_2
REMARK    2  A    between atoms: C_2  and  C_3
REMARK    3  A    between atoms: C_2  and  N_4
REMARK    4  A    between atoms: N_4  and  C_5
REMARK    5  A    between atoms: C_8  and  N_9
REMARK    6  A    between atoms: C_16  and  C_17
REMARK    7  A    between atoms: C_16  and  C_18
REMARK    8  A    between atoms: C_19  and  O_20
REMARK                            x       y       z     vdW  Elec       q    Type
REMARK                         _______ _______ _______ _____ _____    ______ ____
ROOT
ATOM      1  C   UNL     1       5.190   4.188  16.866  0.00  0.00    +0.000 C 
ATOM      2  C   UNL     1       5.868   4.220  15.493  0.00  0.00    +0.000 A 
ATOM      3  C   UNL     1       5.382   3.476  14.398  0.00  0.00    +0.000 A 
ATOM      4  C   UNL     1       5.922   3.646  13.113  0.00  0.00    +0.000 A 
ATOM      5  C   UNL     1       6.970   4.540  12.891  0.00  0.00    +0.000 A 
ATOM      6  C   UNL     1       7.485   5.250  13.972  0.00  0.00    +0.000 A 
ATOM      7  C   UNL     1       6.935   5.101  15.252  0.00  0.00    +0.000 A 
ATOM      8  O   UNL     1       7.529   5.881  16.204  0.00  0.00    +0.000 OA
ATOM      9  C   UNL     1       6.828   6.047  17.444  0.00  0.00    +0.000 C 
ATOM     10  C   UNL     1       5.803   7.184  17.267  0.00  0.00    +0.000 C 
ATOM     11  C   UNL     1       7.877   6.521  18.467  0.00  0.00    +0.000 C 
ATOM     12  C   UNL     1       6.204   4.715  17.929  0.00  0.00    +0.000 C 
ENDROOT
BRANCH   4  13
ATOM     13  N   UNL     1       5.346   2.909  11.978  0.00  0.00    +0.000 N 
ATOM     14  O   UNL     1       5.975   1.930  11.549  0.00  0.00    +0.000 OA
ATOM     15  O   UNL     1       4.261   3.297  11.527  0.00  0.00    +0.000 OA
ENDBRANCH   4  13
BRANCH   1  16
ATOM     16  N   UNL     1       4.570   2.873  17.167  0.00  0.00    +0.000 NA
ATOM     17  H   UNL     1       4.645   2.278  16.344  0.00  0.00    +0.000 HD
BRANCH  16  19
ATOM     18  C   UNL     1       2.876   2.275  18.934  0.00  0.00    +0.000 C 
ATOM     19  C   UNL     1       3.148   2.882  17.551  0.00  0.00    +0.000 C 
ATOM     20  C   UNL     1       2.671   4.339  17.561  0.00  0.00    +0.000 C 
ENDBRANCH  16  19
ENDBRANCH   1  16
BRANCH  12  21
ATOM     21  O   UNL     1       5.622   4.912  19.225  0.00  0.00    +0.000 OA
ATOM     22  H   UNL     1       6.229   5.452  19.755  0.00  0.00    +0.000 HD
ENDBRANCH  12  21
TORSDOF 4
ENDMDL
MODEL 2
REMARK VINA RESULT:      -7.1      3.116      5.329
REMARK  Name = 
REMARK  8 active torsions:
REMARK  status: ('A' for Active; 'I' for Inactive)
REMARK    1  A    between atoms: C_1  and  C_2
REMARK    2  A    between atoms: C_2  and  C_3
REMARK    3  A    between atoms: C_2  and  N_4
REMARK    4  A    between atoms: N_4  and  C_5
REMARK    5  A    between atoms: C_8  and  N_9
REMARK    6  A    between atoms: C_16  and  C_17
REMARK    7  A    between atoms: C_16  and  C_18
REMARK    8  A    between atoms: C_19  and  O_20
REMARK                            x       y       z     vdW  Elec       q    Type
REMARK                         _______ _______ _______ _____ _____    ______ ____
ROOT
ATOM      1  C   UNL     1       3.166   5.229  19.604  0.00  0.00    +0.000 C 
ATOM      2  C   UNL     1       3.930   5.030  18.291  0.00  0.00    +0.000 A 
ATOM      3  C   UNL     1       5.013   5.854  17.921  0.00  0.00    +0.000 A 
ATOM      4  C   UNL     1       5.797   5.552  16.795  0.00  0.00    +0.000 A 
ATOM      5  C   UNL     1       5.508   4.441  16.001  0.00  0.00    +0.000 A 
ATOM      6  C   UNL     1       4.417   3.644  16.334  0.00  0.00    +0.000 A 
ATOM      7  C   UNL     1       3.646   3.928  17.469  0.00  0.00    +0.000 A 
ATOM      8  O   UNL     1       2.625   3.043  17.680  0.00  0.00    +0.000 OA
ATOM      9  C   UNL     1       2.008   3.053  18.973  0.00  0.00    +0.000 C 
ATOM     10  C   UNL     1       2.855   2.176  19.915  0.00  0.00    +0.000 C 
ATOM     11  C   UNL     1       0.642   2.365  18.800  0.00  0.00    +0.000 C 
ATOM     12  C   UNL     1       1.792   4.497  19.491  0.00  0.00    +0.000 C 
ENDROOT
BRANCH   4  13
ATOM     13  N   UNL     1       6.964   6.389  16.475  0.00  0.00    +0.000 N 
ATOM     14  O   UNL     1       7.717   6.002  15.570  0.00  0.00    +0.000 OA
ATOM     15  O   UNL     1       7.116   7.437  17.115  0.00  0.00    +0.000 OA
ENDBRANCH   4  13
BRANCH   1  16
ATOM     16  N   UNL     1       3.103   6.654  20.018  0.00  0.00    +0.000 NA
ATOM     17  H   UNL     1       3.168   6.704  21.033  0.00  0.00    +0.000 HD
BRANCH  16  19
ATOM     18  C   UNL     1       1.345   8.304  20.752  0.00  0.00    +0.000 C 
ATOM     19  C   UNL     1       1.893   7.402  19.637  0.00  0.00    +0.000 C 
ATOM     20  C   UNL     1       2.244   8.283  18.432  0.00  0.00    +0.000 C 
ENDBRANCH  16  19
ENDBRANCH   1  16
BRANCH  12  21
ATOM     21  O   UNL     1       1.066   4.451  20.727  0.00  0.00    +0.000 OA
ATOM     22  H   UNL     1       1.641   4.063  21.406  0.00  0.00    +0.000 HD
ENDBRANCH  12  21
TORSDOF 4
ENDMDL
MODEL 3
REMARK VINA RESULT:      -6.9      3.801      6.594
REMARK  Name = 
REMARK  8 active torsions:
REMARK  status: ('A' for Active; 'I' for Inactive)
REMARK    1  A    between atoms: C_1  and  C_2
REMARK    2  A    between atoms: C_2  and  C_3
REMARK    3  A    between atoms: C_2  and  N_4
REMARK    4  A    between atoms: N_4  and  C_5
REMARK    5  A    between atoms: C_8  and  N_9
REMARK    6  A    between atoms: C_16  and  C_17
REMARK    7  A    between atoms: C_16  and  C_18
REMARK    8  A    between atoms: C_19  and  O_20
REMARK                            x       y       z     vdW  Elec       q    Type
REMARK                         _______ _______ _______ _____ _____    ______ ____
ROOT
ATOM      1  C   UNL     1       3.954   5.136  19.122  0.00  0.00    +0.000 C 
ATOM      2  C   UNL     1       3.090   6.399  19.070  0.00  0.00    +0.000 A 
ATOM      3  C   UNL     1       2.261   6.786  20.144  0.00  0.00    +0.000 A 
ATOM      4  C   UNL     1       1.605   8.028  20.137  0.00  0.00    +0.000 A 
ATOM      5  C   UNL     1       1.737   8.900  19.056  0.00  0.00    +0.000 A 
ATOM      6  C   UNL     1       2.520   8.511  17.973  0.00  0.00    +0.000 A 
ATOM      7  C   UNL     1       3.196   7.284  17.984  0.00  0.00    +0.000 A 
ATOM      8  O   UNL     1       3.943   7.053  16.864  0.00  0.00    +0.000 OA
ATOM      9  C   UNL     1       4.916   6.003  16.931  0.00  0.00    +0.000 C 
ATOM     10  C   UNL     1       6.197   6.577  17.569  0.00  0.00    +0.000 C 
ATOM     11  C   UNL     1       5.248   5.633  15.474  0.00  0.00    +0.000 C 
ATOM     12  C   UNL     1       4.360   4.756  17.663  0.00  0.00    +0.000 C 
ENDROOT
BRANCH   4  13
ATOM     13  N   UNL     1       0.805   8.434  21.303  0.00  0.00    +0.000 N 
ATOM     14  O   UNL     1       1.383   9.051  22.209  0.00  0.00    +0.000 OA
ATOM     15  O   UNL     1      -0.400   8.151  21.304  0.00  0.00    +0.000 OA
ENDBRANCH   4  13
BRANCH   1  16
ATOM     16  N   UNL     1       3.332   4.049  19.918  0.00  0.00    +0.000 NA
ATOM     17  H   UNL     1       4.039   3.346  20.125  0.00  0.00    +0.000 HD
BRANCH  16  19
ATOM     18  C   UNL     1       2.522   1.889  18.902  0.00  0.00    +0.000 C 
ATOM     19  C   UNL     1       2.201   3.337  19.299  0.00  0.00    +0.000 C 
ATOM     20  C   UNL     1       1.047   3.315  20.310  0.00  0.00    +0.000 C 
ENDBRANCH  16  19
ENDBRANCH   1  16
BRANCH  12  21
ATOM     21  O   UNL     1       5.329   3.700  17.596  0.00  0.00    +0.000 OA
ATOM     22  H   UNL     1       5.369   3.377  16.682  0.00  0.00    +0.000 HD
ENDBRANCH  12  21
TORSDOF 4
ENDMDL
MODEL 4
REMARK VINA RESULT:      -6.8      3.963      6.483
REMARK  Name = 
REMARK  8 active torsions:
REMARK  status: ('A' for Active; 'I' for Inactive)
REMARK    1  A    between atoms: C_1  and  C_2
REMARK    2  A    between atoms: C_2  and  C_3
REMARK    3  A    between atoms: C_2  and  N_4
REMARK    4  A    between atoms: N_4  and  C_5
REMARK    5  A    between atoms: C_8  and  N_9
REMARK    6  A    between atoms: C_16  and  C_17
REMARK    7  A    between atoms: C_16  and  C_18
REMARK    8  A    between atoms: C_19  and  O_20
REMARK                            x       y       z     vdW  Elec       q    Type
REMARK                         _______ _______ _______ _____ _____    ______ ____
ROOT
ATOM      1  C   UNL     1       3.728   5.257  19.887  0.00  0.00    +0.000 C 
ATOM      2  C   UNL     1       3.039   6.459  19.234  0.00  0.00    +0.000 A 
ATOM      3  C   UNL     1       2.162   7.300  19.949  0.00  0.00    +0.000 A 
ATOM      4  C   UNL     1       1.671   8.484  19.375  0.00  0.00    +0.000 A 
ATOM      5  C   UNL     1       2.019   8.845  18.073  0.00  0.00    +0.000 A 
ATOM      6  C   UNL     1       2.851   8.001  17.343  0.00  0.00    +0.000 A 
ATOM      7  C   UNL     1       3.363   6.830  17.919  0.00  0.00    +0.000 A 
ATOM      8  O   UNL     1       4.184   6.119  17.090  0.00  0.00    +0.000 OA
ATOM      9  C   UNL     1       5.006   5.110  17.691  0.00  0.00    +0.000 C 
ATOM     10  C   UNL     1       6.278   5.790  18.234  0.00  0.00    +0.000 C 
ATOM     11  C   UNL     1       5.432   4.169  16.549  0.00  0.00    +0.000 C 
ATOM     12  C   UNL     1       4.227   4.301  18.758  0.00  0.00    +0.000 C 
ENDROOT
BRANCH   4  13
ATOM     13  N   UNL     1       0.816   9.379  20.170  0.00  0.00    +0.000 N 
ATOM     14  O   UNL     1       0.809  10.582  19.873  0.00  0.00    +0.000 OA
ATOM     15  O   UNL     1       0.142   8.876  21.078  0.00  0.00    +0.000 OA
ENDBRANCH   4  13
BRANCH   1  16
ATOM     16  N   UNL     1       2.898   4.624  20.942  0.00  0.00    +0.000 NA
ATOM     17  H   UNL     1       3.498   4.369  21.725  0.00  0.00    +0.000 HD
BRANCH  16  19
ATOM     18  C   UNL     1       1.996   2.401  21.713  0.00  0.00    +0.000 C 
ATOM     19  C   UNL     1       2.159   3.407  20.565  0.00  0.00    +0.000 C 
ATOM     20  C   UNL     1       0.763   3.830  20.092  0.00  0.00    +0.000 C 
ENDBRANCH  16  19
ENDBRANCH   1  16
BRANCH  12  21
ATOM     21  O   UNL     1       5.057   3.234  19.238  0.00  0.00    +0.000 OA
ATOM     22  H   UNL     1       5.931   3.315  18.826  0.00  0.00    +0.000 HD
ENDBRANCH  12  21
TORSDOF 4
ENDMDL
MODEL 5
REMARK VINA RESULT:      -6.7      3.589      6.736
REMARK  Name = 
REMARK  8 active torsions:
REMARK  status: ('A' for Active; 'I' for Inactive)
REMARK    1  A    between atoms: C_1  and  C_2
REMARK    2  A    between atoms: C_2  and  C_3
REMARK    3  A    between atoms: C_2  and  N_4
REMARK    4  A    between atoms: N_4  and  C_5
REMARK    5  A    between atoms: C_8  and  N_9
REMARK    6  A    between atoms: C_16  and  C_17
REMARK    7  A    between atoms: C_16  and  C_18
REMARK    8  A    between atoms: C_19  and  O_20
REMARK                            x       y       z     vdW  Elec       q    Type
REMARK                         _______ _______ _______ _____ _____    ______ ____
ROOT
ATOM      1  C   UNL     1       3.731   5.105  17.513  0.00  0.00    +0.000 C 
ATOM      2  C   UNL     1       3.079   6.087  18.492  0.00  0.00    +0.000 A 
ATOM      3  C   UNL     1       2.776   7.416  18.130  0.00  0.00    +0.000 A 
ATOM      4  C   UNL     1       2.035   8.246  18.988  0.00  0.00    +0.000 A 
ATOM      5  C   UNL     1       1.601   7.783  20.231  0.00  0.00    +0.000 A 
ATOM      6  C   UNL     1       1.929   6.486  20.615  0.00  0.00    +0.000 A 
ATOM      7  C   UNL     1       2.648   5.646  19.753  0.00  0.00    +0.000 A 
ATOM      8  O   UNL     1       2.873   4.396  20.258  0.00  0.00    +0.000 OA
ATOM      9  C   UNL     1       3.293   3.384  19.335  0.00  0.00    +0.000 C 
ATOM     10  C   UNL     1       2.036   2.798  18.662  0.00  0.00    +0.000 C 
ATOM     11  C   UNL     1       3.929   2.268  20.185  0.00  0.00    +0.000 C 
ATOM     12  C   UNL     1       4.342   3.925  18.333  0.00  0.00    +0.000 C 
ENDROOT
BRANCH   4  13
ATOM     13  N   UNL     1       1.673   9.604  18.554  0.00  0.00    +0.000 N 
ATOM     14  O   UNL     1       2.154  10.013  17.487  0.00  0.00    +0.000 OA
ATOM     15  O   UNL     1       0.897  10.251  19.268  0.00  0.00    +0.000 OA
ENDBRANCH   4  13
BRANCH   1  16
ATOM     16  N   UNL     1       4.655   5.773  16.563  0.00  0.00    +0.000 NA
ATOM     17  H   UNL     1       4.535   5.358  15.640  0.00  0.00    +0.000 HD
BRANCH  16  19
ATOM     18  C   UNL     1       6.948   5.154  15.719  0.00  0.00    +0.000 C 
ATOM     19  C   UNL     1       6.094   5.698  16.872  0.00  0.00    +0.000 C 
ATOM     20  C   UNL     1       6.579   7.114  17.206  0.00  0.00    +0.000 C 
ENDBRANCH  16  19
ENDBRANCH   1  16
BRANCH  12  21
ATOM     21  O   UNL     1       4.813   2.845  17.514  0.00  0.00    +0.000 OA
ATOM     22  H   UNL     1       5.780   2.906  17.453  0.00  0.00    +0.000 HD
ENDBRANCH  12  21
TORSDOF 4
ENDMDL
MODEL 6
REMARK VINA RESULT:      -6.7      3.913      7.087
REMARK  Name = 
REMARK  8 active torsions:
REMARK  status: ('A' for Active; 'I' for Inactive)
REMARK    1  A    between atoms: C_1  and  C_2
REMARK    2  A    between atoms: C_2  and  C_3
REMARK    3  A    between atoms: C_2  and  N_4
REMARK    4  A    between atoms: N_4  and  C_5
REMARK    5  A    between atoms: C_8  and  N_9
REMARK    6  A    between atoms: C_16  and  C_17
REMARK    7  A    between atoms: C_16  and  C_18
REMARK    8  A    between atoms: C_19  and  O_20
REMARK                            x       y       z     vdW  Elec       q    Type
REMARK                         _______ _______ _______ _____ _____    ______ ____
ROOT
ATOM      1  C   UNL     1       2.967   4.961  18.306  0.00  0.00    +0.000 C 
ATOM      2  C   UNL     1       2.485   6.202  19.063  0.00  0.00    +0.000 A 
ATOM      3  C   UNL     1       2.408   7.471  18.452  0.00  0.00    +0.000 A 
ATOM      4  C   UNL     1       1.813   8.557  19.116  0.00  0.00    +0.000 A 
ATOM      5  C   UNL     1       1.304   8.413  20.408  0.00  0.00    +0.000 A 
ATOM      6  C   UNL     1       1.412   7.176  21.036  0.00  0.00    +0.000 A 
ATOM      7  C   UNL     1       1.983   6.083  20.370  0.00  0.00    +0.000 A 
ATOM      8  O   UNL     1       1.996   4.931  21.105  0.00  0.00    +0.000 OA
ATOM      9  C   UNL     1       2.244   3.708  20.400  0.00  0.00    +0.000 C 
ATOM     10  C   UNL     1       0.909   3.219  19.805  0.00  0.00    +0.000 C 
ATOM     11  C   UNL     1       2.684   2.684  21.463  0.00  0.00    +0.000 C 
ATOM     12  C   UNL     1       3.371   3.873  19.351  0.00  0.00    +0.000 C 
ENDROOT
BRANCH   4  13
ATOM     13  N   UNL     1       1.682   9.849  18.426  0.00  0.00    +0.000 N 
ATOM     14  O   UNL     1       1.087  10.760  19.019  0.00  0.00    +0.000 OA
ATOM     15  O   UNL     1       2.188   9.957  17.301  0.00  0.00    +0.000 OA
ENDBRANCH   4  13
BRANCH   1  16
ATOM     16  N   UNL     1       3.991   5.278  17.280  0.00  0.00    +0.000 NA
ATOM     17  H   UNL     1       4.066   4.493  16.636  0.00  0.00    +0.000 HD
BRANCH  16  19
ATOM     18  C   UNL     1       6.379   4.478  17.383  0.00  0.00    +0.000 C 
ATOM     19  C   UNL     1       5.354   5.555  17.766  0.00  0.00    +0.000 C 
ATOM     20  C   UNL     1       5.808   6.890  17.164  0.00  0.00    +0.000 C 
ENDBRANCH  16  19
ENDBRANCH   1  16
BRANCH  12  21
ATOM     21  O   UNL     1       3.658   2.596  18.763  0.00  0.00    +0.000 OA
ATOM     22  H   UNL     1       3.290   1.905  19.335  0.00  0.00    +0.000 HD
ENDBRANCH  12  21
TORSDOF 4
ENDMDL
MODEL 7
REMARK VINA RESULT:      -6.6      2.653      5.957
REMARK  Name = 
REMARK  8 active torsions:
REMARK  status: ('A' for Active; 'I' for Inactive)
REMARK    1  A    between atoms: C_1  and  C_2
REMARK    2  A    between atoms: C_2  and  C_3
REMARK    3  A    between atoms: C_2  and  N_4
REMARK    4  A    between atoms: N_4  and  C_5
REMARK    5  A    between atoms: C_8  and  N_9
REMARK    6  A    between atoms: C_16  and  C_17
REMARK    7  A    between atoms: C_16  and  C_18
REMARK    8  A    between atoms: C_19  and  O_20
REMARK                            x       y       z     vdW  Elec       q    Type
REMARK                         _______ _______ _______ _____ _____    ______ ____
ROOT
ATOM      1  C   UNL     1       6.280   4.667  17.522  0.00  0.00    +0.000 C 
ATOM      2  C   UNL     1       4.912   4.092  17.902  0.00  0.00    +0.000 A 
ATOM      3  C   UNL     1       4.497   3.969  19.245  0.00  0.00    +0.000 A 
ATOM      4  C   UNL     1       3.181   3.591  19.561  0.00  0.00    +0.000 A 
ATOM      5  C   UNL     1       2.259   3.304  18.554  0.00  0.00    +0.000 A 
ATOM      6  C   UNL     1       2.669   3.383  17.227  0.00  0.00    +0.000 A 
ATOM      7  C   UNL     1       3.974   3.782  16.905  0.00  0.00    +0.000 A 
ATOM      8  O   UNL     1       4.221   3.835  15.561  0.00  0.00    +0.000 OA
ATOM      9  C   UNL     1       5.393   4.544  15.140  0.00  0.00    +0.000 C 
ATOM     10  C   UNL     1       5.042   6.042  15.054  0.00  0.00    +0.000 C 
ATOM     11  C   UNL     1       5.698   4.054  13.713  0.00  0.00    +0.000 C 
ATOM     12  C   UNL     1       6.604   4.239  16.056  0.00  0.00    +0.000 C 
ENDROOT
BRANCH   4  13
ATOM     13  N   UNL     1       2.757   3.541  20.968  0.00  0.00    +0.000 N 
ATOM     14  O   UNL     1       3.057   2.533  21.624  0.00  0.00    +0.000 OA
ATOM     15  O   UNL     1       2.140   4.514  21.421  0.00  0.00    +0.000 OA
ENDBRANCH   4  13
BRANCH   1  16
ATOM     16  N   UNL     1       7.329   4.362  18.527  0.00  0.00    +0.000 NA
ATOM     17  H   UNL     1       6.881   4.023  19.377  0.00  0.00    +0.000 HD
BRANCH  16  19
ATOM     18  C   UNL     1       7.779   6.836  18.366  0.00  0.00    +0.000 C 
ATOM     19  C   UNL     1       8.207   5.474  18.930  0.00  0.00    +0.000 C 
ATOM     20  C   UNL     1       8.190   5.559  20.461  0.00  0.00    +0.000 C 
ENDBRANCH  16  19
ENDBRANCH   1  16
BRANCH  12  21
ATOM     21  O   UNL     1       7.773   4.877  15.521  0.00  0.00    +0.000 OA
ATOM     22  H   UNL     1       8.455   4.895  16.210  0.00  0.00    +0.000 HD
ENDBRANCH  12  21
TORSDOF 4
ENDMDL
MODEL 8
REMARK VINA RESULT:      -6.5      3.336      6.081
REMARK  Name = 
REMARK  8 active torsions:
REMARK  status: ('A' for Active; 'I' for Inactive)
REMARK    1  A    between atoms: C_1  and  C_2
REMARK    2  A    between atoms: C_2  and  C_3
REMARK    3  A    between atoms: C_2  and  N_4
REMARK    4  A    between atoms: N_4  and  C_5
REMARK    5  A    between atoms: C_8  and  N_9
REMARK    6  A    between atoms: C_16  and  C_17
REMARK    7  A    between atoms: C_16  and  C_18
REMARK    8  A    between atoms: C_19  and  O_20
REMARK                            x       y       z     vdW  Elec       q    Type
REMARK                         _______ _______ _______ _____ _____    ______ ____
ROOT
ATOM      1  C   UNL     1       3.409   4.095  18.637  0.00  0.00    +0.000 C 
ATOM      2  C   UNL     1       3.118   5.587  18.446  0.00  0.00    +0.000 A 
ATOM      3  C   UNL     1       2.264   6.301  19.312  0.00  0.00    +0.000 A 
ATOM      4  C   UNL     1       2.140   7.697  19.213  0.00  0.00    +0.000 A 
ATOM      5  C   UNL     1       2.842   8.409  18.240  0.00  0.00    +0.000 A 
ATOM      6  C   UNL     1       3.656   7.710  17.354  0.00  0.00    +0.000 A 
ATOM      7  C   UNL     1       3.801   6.320  17.462  0.00  0.00    +0.000 A 
ATOM      8  O   UNL     1       4.651   5.778  16.539  0.00  0.00    +0.000 OA
ATOM      9  C   UNL     1       5.116   4.444  16.782  0.00  0.00    +0.000 C 
ATOM     10  C   UNL     1       6.327   4.524  17.732  0.00  0.00    +0.000 C 
ATOM     11  C   UNL     1       5.621   3.915  15.427  0.00  0.00    +0.000 C 
ATOM     12  C   UNL     1       3.978   3.529  17.298  0.00  0.00    +0.000 C 
ENDROOT
BRANCH   4  13
ATOM     13  N   UNL     1       1.297   8.423  20.176  0.00  0.00    +0.000 N 
ATOM     14  O   UNL     1       0.705   9.434  19.773  0.00  0.00    +0.000 OA
ATOM     15  O   UNL     1       1.216   7.973  21.326  0.00  0.00    +0.000 OA
ENDBRANCH   4  13
BRANCH   1  16
ATOM     16  N   UNL     1       2.255   3.355  19.208  0.00  0.00    +0.000 NA
ATOM     17  H   UNL     1       1.558   4.027  19.525  0.00  0.00    +0.000 HD
BRANCH  16  19
ATOM     18  C   UNL     1       4.009   2.456  20.778  0.00  0.00    +0.000 C 
ATOM     19  C   UNL     1       2.535   2.469  20.350  0.00  0.00    +0.000 C 
ATOM     20  C   UNL     1       1.692   2.950  21.538  0.00  0.00    +0.000 C 
ENDBRANCH  16  19
ENDBRANCH   1  16
BRANCH  12  21
ATOM     21  O   UNL     1       4.467   2.185  17.408  0.00  0.00    +0.000 OA
ATOM     22  H   UNL     1       5.397   2.173  17.131  0.00  0.00    +0.000 HD
ENDBRANCH  12  21
TORSDOF 4
ENDMDL
MODEL 9
REMARK VINA RESULT:      -6.5      3.796      7.006
REMARK  Name = 
REMARK  8 active torsions:
REMARK  status: ('A' for Active; 'I' for Inactive)
REMARK    1  A    between atoms: C_1  and  C_2
REMARK    2  A    between atoms: C_2  and  C_3
REMARK    3  A    between atoms: C_2  and  N_4
REMARK    4  A    between atoms: N_4  and  C_5
REMARK    5  A    between atoms: C_8  and  N_9
REMARK    6  A    between atoms: C_16  and  C_17
REMARK    7  A    between atoms: C_16  and  C_18
REMARK    8  A    between atoms: C_19  and  O_20
REMARK                            x       y       z     vdW  Elec       q    Type
REMARK                         _______ _______ _______ _____ _____    ______ ____
ROOT
ATOM      1  C   UNL     1       3.559   4.893  18.553  0.00  0.00    +0.000 C 
ATOM      2  C   UNL     1       2.808   6.054  19.211  0.00  0.00    +0.000 A 
ATOM      3  C   UNL     1       2.745   7.335  18.624  0.00  0.00    +0.000 A 
ATOM      4  C   UNL     1       1.919   8.336  19.164  0.00  0.00    +0.000 A 
ATOM      5  C   UNL     1       1.158   8.094  20.308  0.00  0.00    +0.000 A 
ATOM      6  C   UNL     1       1.244   6.846  20.918  0.00  0.00    +0.000 A 
ATOM      7  C   UNL     1       2.048   5.837  20.372  0.00  0.00    +0.000 A 
ATOM      8  O   UNL     1       2.011   4.661  21.068  0.00  0.00    +0.000 OA
ATOM      9  C   UNL     1       2.522   3.495  20.409  0.00  0.00    +0.000 C 
ATOM     10  C   UNL     1       1.401   2.914  19.525  0.00  0.00    +0.000 C 
ATOM     11  C   UNL     1       2.816   2.471  21.521  0.00  0.00    +0.000 C 
ATOM     12  C   UNL     1       3.829   3.803  19.638  0.00  0.00    +0.000 C 
ENDROOT
BRANCH   4  13
ATOM     13  N   UNL     1       1.819   9.639  18.488  0.00  0.00    +0.000 N 
ATOM     14  O   UNL     1       1.334  10.583  19.129  0.00  0.00    +0.000 OA
ATOM     15  O   UNL     1       2.238   9.721  17.327  0.00  0.00    +0.000 OA
ENDBRANCH   4  13
BRANCH   1  16
ATOM     16  N   UNL     1       4.748   5.342  17.785  0.00  0.00    +0.000 NA
ATOM     17  H   UNL     1       4.862   6.346  17.913  0.00  0.00    +0.000 HD
BRANCH  16  19
ATOM     18  C   UNL     1       5.246   6.287  15.502  0.00  0.00    +0.000 C 
ATOM     19  C   UNL     1       4.728   5.103  16.331  0.00  0.00    +0.000 C 
ATOM     20  C   UNL     1       5.613   3.885  16.041  0.00  0.00    +0.000 C 
ENDBRANCH  16  19
ENDBRANCH   1  16
BRANCH  12  21
ATOM     21  O   UNL     1       4.358   2.582  19.101  0.00  0.00    +0.000 OA
ATOM     22  H   UNL     1       5.210   2.776  18.679  0.00  0.00    +0.000 HD
ENDBRANCH  12  21
TORSDOF 4
ENDMDL
