MODEL 1
REMARK VINA RESULT:      -7.6      0.000      0.000
REMARK  Name = 
REMARK  4 active torsions:
REMARK  status: ('A' for Active; 'I' for Inactive)
REMARK    1  A    between atoms: C_1  and  C_2
REMARK    2  A    between atoms: C_6  and  C_7
REMARK    3  A    between atoms: C_7  and  N_8
REMARK    4  A    between atoms: C_13  and  C_15
REMARK                            x       y       z     vdW  Elec       q    Type
REMARK                         _______ _______ _______ _____ _____    ______ ____
ROOT
ATOM      1  N   UNL     1       5.871   4.830  17.993  0.00  0.00    +0.000 N 
ATOM      2  C   UNL     1       4.936   5.760  17.414  0.00  0.00    +0.000 C 
ATOM      3  C   UNL     1       5.465   5.910  16.006  0.00  0.00    +0.000 C 
ATOM      4  C   UNL     1       5.146   4.715  15.101  0.00  0.00    +0.000 C 
ATOM      5  N   UNL     1       6.285   4.646  14.207  0.00  0.00    +0.000 N 
ATOM      6  C   UNL     1       6.400   3.956  13.014  0.00  0.00    +0.000 C 
ATOM      7  O   UNL     1       7.433   4.038  12.348  0.00  0.00    +0.000 OA
ATOM      8  C   UNL     1       7.464   5.255  14.829  0.00  0.00    +0.000 C 
ATOM      9  C   UNL     1       6.984   5.799  16.168  0.00  0.00    +0.000 C 
ATOM     10  C   UNL     1       7.097   4.832  17.332  0.00  0.00    +0.000 C 
ATOM     11  O   UNL     1       8.085   4.180  17.637  0.00  0.00    +0.000 OA
ENDROOT
BRANCH   6  12
ATOM     12  C   UNL     1       5.247   3.024  12.614  0.00  0.00    +0.000 C 
ATOM     13  C   UNL     1       4.006   3.740  12.058  0.00  0.00    +0.000 C 
ATOM     14  C   UNL     1       3.795   3.160  10.703  0.00  0.00    +0.000 C 
ATOM     15  C   UNL     1       4.693   2.216  10.418  0.00  0.00    +0.000 C 
ATOM     16  C   UNL     1       5.655   1.993  11.538  0.00  0.00    +0.000 C 
ENDBRANCH   6  12
BRANCH   1  17
ATOM     17  C   UNL     1       5.508   3.945  19.094  0.00  0.00    +0.000 C 
BRANCH  17  23
ATOM     18  C   UNL     1       1.146   2.981  21.085  0.00  0.00    +0.000 C 
ATOM     19  C   UNL     1       2.072   2.833  19.913  0.00  0.00    +0.000 A 
ATOM     20  C   UNL     1       1.631   2.224  18.744  0.00  0.00    +0.000 A 
ATOM     21  C   UNL     1       2.492   2.167  17.655  0.00  0.00    +0.000 A 
ATOM     22  C   UNL     1       3.765   2.715  17.761  0.00  0.00    +0.000 A 
ATOM     23  C   UNL     1       4.154   3.286  18.967  0.00  0.00    +0.000 A 
ATOM     24  N   UNL     1       3.321   3.350  20.042  0.00  0.00    +0.000 NA
ENDBRANCH  17  23
ENDBRANCH   1  17
TORSDOF 3
ENDMDL
MODEL 2
REMARK VINA RESULT:      -7.1      0.918      1.437
REMARK  Name = 
REMARK  4 active torsions:
REMARK  status: ('A' for Active; 'I' for Inactive)
REMARK    1  A    between atoms: C_1  and  C_2
REMARK    2  A    between atoms: C_6  and  C_7
REMARK    3  A    between atoms: C_7  and  N_8
REMARK    4  A    between atoms: C_13  and  C_15
REMARK                            x       y       z     vdW  Elec       q    Type
REMARK                         _______ _______ _______ _____ _____    ______ ____
ROOT
ATOM      1  N   UNL     1       5.538   4.993  18.142  0.00  0.00    +0.000 N 
ATOM      2  C   UNL     1       4.655   5.924  17.488  0.00  0.00    +0.000 C 
ATOM      3  C   UNL     1       5.282   6.053  16.118  0.00  0.00    +0.000 C 
ATOM      4  C   UNL     1       5.014   4.850  15.207  0.00  0.00    +0.000 C 
ATOM      5  N   UNL     1       6.212   4.759  14.396  0.00  0.00    +0.000 N 
ATOM      6  C   UNL     1       6.403   4.054  13.222  0.00  0.00    +0.000 C 
ATOM      7  O   UNL     1       7.480   4.118  12.628  0.00  0.00    +0.000 OA
ATOM      8  C   UNL     1       7.351   5.365  15.091  0.00  0.00    +0.000 C 
ATOM      9  C   UNL     1       6.785   5.930  16.386  0.00  0.00    +0.000 C 
ATOM     10  C   UNL     1       6.807   4.975  17.567  0.00  0.00    +0.000 C 
ATOM     11  O   UNL     1       7.764   4.318  17.947  0.00  0.00    +0.000 OA
ENDROOT
BRANCH   6  12
ATOM     12  C   UNL     1       5.271   3.128  12.753  0.00  0.00    +0.000 C 
ATOM     13  C   UNL     1       4.099   3.844  12.064  0.00  0.00    +0.000 C 
ATOM     14  C   UNL     1       3.997   3.218  10.716  0.00  0.00    +0.000 C 
ATOM     15  C   UNL     1       4.897   2.248  10.546  0.00  0.00    +0.000 C 
ATOM     16  C   UNL     1       5.751   2.051  11.755  0.00  0.00    +0.000 C 
ENDBRANCH   6  12
BRANCH   1  17
ATOM     17  C   UNL     1       5.091   4.125  19.224  0.00  0.00    +0.000 C 
BRANCH  17  23
ATOM     18  C   UNL     1       0.676   2.072  18.757  0.00  0.00    +0.000 C 
ATOM     19  C   UNL     1       1.506   3.197  19.303  0.00  0.00    +0.000 A 
ATOM     20  C   UNL     1       0.933   4.152  20.134  0.00  0.00    +0.000 A 
ATOM     21  C   UNL     1       1.746   5.138  20.679  0.00  0.00    +0.000 A 
ATOM     22  C   UNL     1       3.104   5.147  20.379  0.00  0.00    +0.000 A 
ATOM     23  C   UNL     1       3.610   4.180  19.520  0.00  0.00    +0.000 A 
ATOM     24  N   UNL     1       2.825   3.206  18.979  0.00  0.00    +0.000 NA
ENDBRANCH  17  23
ENDBRANCH   1  17
TORSDOF 3
ENDMDL
MODEL 3
REMARK VINA RESULT:      -6.9      6.911      9.350
REMARK  Name = 
REMARK  4 active torsions:
REMARK  status: ('A' for Active; 'I' for Inactive)
REMARK    1  A    between atoms: C_1  and  C_2
REMARK    2  A    between atoms: C_6  and  C_7
REMARK    3  A    between atoms: C_7  and  N_8
REMARK    4  A    between atoms: C_13  and  C_15
REMARK                            x       y       z     vdW  Elec       q    Type
REMARK                         _______ _______ _______ _____ _____    ______ ____
ROOT
ATOM      1  N   UNL     1       1.808   8.241  19.076  0.00  0.00    +0.000 N 
ATOM      2  C   UNL     1       1.248   8.814  17.879  0.00  0.00    +0.000 C 
ATOM      3  C   UNL     1       0.722  10.141  18.375  0.00  0.00    +0.000 C 
ATOM      4  C   UNL     1       1.818  11.187  18.605  0.00  0.00    +0.000 C 
ATOM      5  N   UNL     1       1.320  11.967  19.721  0.00  0.00    +0.000 N 
ATOM      6  C   UNL     1       1.749  13.206  20.162  0.00  0.00    +0.000 C 
ATOM      7  O   UNL     1       1.186  13.756  21.109  0.00  0.00    +0.000 OA
ATOM      8  C   UNL     1       0.387  11.175  20.527  0.00  0.00    +0.000 C 
ATOM      9  C   UNL     1       0.253   9.843  19.803  0.00  0.00    +0.000 C 
ATOM     10  C   UNL     1       1.243   8.775  20.232  0.00  0.00    +0.000 C 
ATOM     11  O   UNL     1       1.493   8.441  21.381  0.00  0.00    +0.000 OA
ENDROOT
BRANCH   6  12
ATOM     12  C   UNL     1       2.995  13.809  19.497  0.00  0.00    +0.000 C 
ATOM     13  C   UNL     1       2.703  14.750  18.318  0.00  0.00    +0.000 C 
ATOM     14  C   UNL     1       3.338  16.046  18.687  0.00  0.00    +0.000 C 
ATOM     15  C   UNL     1       3.964  15.980  19.862  0.00  0.00    +0.000 C 
ATOM     16  C   UNL     1       3.865  14.624  20.480  0.00  0.00    +0.000 C 
ENDBRANCH   6  12
BRANCH   1  17
ATOM     17  C   UNL     1       2.899   7.275  19.040  0.00  0.00    +0.000 C 
BRANCH  17  23
ATOM     18  C   UNL     1       1.994   3.253  21.673  0.00  0.00    +0.000 C 
ATOM     19  C   UNL     1       2.035   3.910  20.325  0.00  0.00    +0.000 A 
ATOM     20  C   UNL     1       1.580   3.232  19.200  0.00  0.00    +0.000 A 
ATOM     21  C   UNL     1       1.565   3.895  17.979  0.00  0.00    +0.000 A 
ATOM     22  C   UNL     1       2.006   5.212  17.912  0.00  0.00    +0.000 A 
ATOM     23  C   UNL     1       2.473   5.825  19.069  0.00  0.00    +0.000 A 
ATOM     24  N   UNL     1       2.492   5.188  20.272  0.00  0.00    +0.000 NA
ENDBRANCH  17  23
ENDBRANCH   1  17
TORSDOF 3
ENDMDL
MODEL 4
REMARK VINA RESULT:      -6.8     12.159     15.135
REMARK  Name = 
REMARK  4 active torsions:
REMARK  status: ('A' for Active; 'I' for Inactive)
REMARK    1  A    between atoms: C_1  and  C_2
REMARK    2  A    between atoms: C_6  and  C_7
REMARK    3  A    between atoms: C_7  and  N_8
REMARK    4  A    between atoms: C_13  and  C_15
REMARK                            x       y       z     vdW  Elec       q    Type
REMARK                         _______ _______ _______ _____ _____    ______ ____
ROOT
ATOM      1  N   UNL     1      -6.009  11.859  17.663  0.00  0.00    +0.000 N 
ATOM      2  C   UNL     1      -6.487  13.217  17.708  0.00  0.00    +0.000 C 
ATOM      3  C   UNL     1      -6.924  13.356  19.148  0.00  0.00    +0.000 C 
ATOM      4  C   UNL     1      -5.758  13.522  20.128  0.00  0.00    +0.000 C 
ATOM      5  N   UNL     1      -6.226  12.868  21.334  0.00  0.00    +0.000 N 
ATOM      6  C   UNL     1      -5.716  12.963  22.616  0.00  0.00    +0.000 C 
ATOM      7  O   UNL     1      -6.262  12.370  23.547  0.00  0.00    +0.000 OA
ATOM      8  C   UNL     1      -7.241  11.861  21.012  0.00  0.00    +0.000 C 
ATOM      9  C   UNL     1      -7.457  11.966  19.509  0.00  0.00    +0.000 C 
ATOM     10  C   UNL     1      -6.566  11.070  18.668  0.00  0.00    +0.000 C 
ATOM     11  O   UNL     1      -6.377   9.875  18.837  0.00  0.00    +0.000 OA
ENDROOT
BRANCH   6  12
ATOM     12  C   UNL     1      -4.407  13.744  22.808  0.00  0.00    +0.000 C 
ATOM     13  C   UNL     1      -4.590  15.216  23.208  0.00  0.00    +0.000 C 
ATOM     14  C   UNL     1      -3.854  15.365  24.495  0.00  0.00    +0.000 C 
ATOM     15  C   UNL     1      -3.262  14.229  24.867  0.00  0.00    +0.000 C 
ATOM     16  C   UNL     1      -3.492  13.125  23.888  0.00  0.00    +0.000 C 
ENDBRANCH   6  12
BRANCH   1  17
ATOM     17  C   UNL     1      -4.996  11.421  16.712  0.00  0.00    +0.000 C 
BRANCH  17  23
ATOM     18  C   UNL     1      -1.757  12.298  20.272  0.00  0.00    +0.000 C 
ATOM     19  C   UNL     1      -2.093  11.561  19.008  0.00  0.00    +0.000 A 
ATOM     20  C   UNL     1      -1.226  10.596  18.508  0.00  0.00    +0.000 A 
ATOM     21  C   UNL     1      -1.601   9.884  17.375  0.00  0.00    +0.000 A 
ATOM     22  C   UNL     1      -2.824  10.153  16.773  0.00  0.00    +0.000 A 
ATOM     23  C   UNL     1      -3.633  11.149  17.307  0.00  0.00    +0.000 A 
ATOM     24  N   UNL     1      -3.279  11.854  18.416  0.00  0.00    +0.000 NA
ENDBRANCH  17  23
ENDBRANCH   1  17
TORSDOF 3
ENDMDL
MODEL 5
REMARK VINA RESULT:      -6.8      6.921      9.384
REMARK  Name = 
REMARK  4 active torsions:
REMARK  status: ('A' for Active; 'I' for Inactive)
REMARK    1  A    between atoms: C_1  and  C_2
REMARK    2  A    between atoms: C_6  and  C_7
REMARK    3  A    between atoms: C_7  and  N_8
REMARK    4  A    between atoms: C_13  and  C_15
REMARK                            x       y       z     vdW  Elec       q    Type
REMARK                         _______ _______ _______ _____ _____    ______ ____
ROOT
ATOM      1  N   UNL     1       1.740   8.297  19.218  0.00  0.00    +0.000 N 
ATOM      2  C   UNL     1       1.360   8.755  17.906  0.00  0.00    +0.000 C 
ATOM      3  C   UNL     1       0.838  10.144  18.190  0.00  0.00    +0.000 C 
ATOM      4  C   UNL     1       1.944  11.173  18.450  0.00  0.00    +0.000 C 
ATOM      5  N   UNL     1       1.348  12.085  19.406  0.00  0.00    +0.000 N 
ATOM      6  C   UNL     1       1.776  13.349  19.768  0.00  0.00    +0.000 C 
ATOM      7  O   UNL     1       1.125  14.017  20.572  0.00  0.00    +0.000 OA
ATOM      8  C   UNL     1       0.287  11.415  20.162  0.00  0.00    +0.000 C 
ATOM      9  C   UNL     1       0.182  10.018  19.568  0.00  0.00    +0.000 C 
ATOM     10  C   UNL     1       1.060   8.971  20.229  0.00  0.00    +0.000 C 
ATOM     11  O   UNL     1       1.149   8.756  21.429  0.00  0.00    +0.000 OA
ENDROOT
BRANCH   6  12
ATOM     12  C   UNL     1       3.122  13.835  19.210  0.00  0.00    +0.000 C 
ATOM     13  C   UNL     1       3.017  14.712  17.952  0.00  0.00    +0.000 C 
ATOM     14  C   UNL     1       3.690  15.992  18.312  0.00  0.00    +0.000 C 
ATOM     15  C   UNL     1       4.182  15.967  19.551  0.00  0.00    +0.000 C 
ATOM     16  C   UNL     1       3.932  14.662  20.233  0.00  0.00    +0.000 C 
ENDBRANCH   6  12
BRANCH   1  17
ATOM     17  C   UNL     1       2.781   7.297  19.423  0.00  0.00    +0.000 C 
BRANCH  17  23
ATOM     18  C   UNL     1       2.546   2.878  17.339  0.00  0.00    +0.000 C 
ATOM     19  C   UNL     1       2.189   3.759  18.500  0.00  0.00    +0.000 A 
ATOM     20  C   UNL     1       1.552   3.227  19.615  0.00  0.00    +0.000 A 
ATOM     21  C   UNL     1       1.300   4.057  20.700  0.00  0.00    +0.000 A 
ATOM     22  C   UNL     1       1.685   5.391  20.644  0.00  0.00    +0.000 A 
ATOM     23  C   UNL     1       2.294   5.868  19.490  0.00  0.00    +0.000 A 
ATOM     24  N   UNL     1       2.549   5.066  18.419  0.00  0.00    +0.000 NA
ENDBRANCH  17  23
ENDBRANCH   1  17
TORSDOF 3
ENDMDL
MODEL 6
REMARK VINA RESULT:      -6.7      3.684      7.547
REMARK  Name = 
REMARK  4 active torsions:
REMARK  status: ('A' for Active; 'I' for Inactive)
REMARK    1  A    between atoms: C_1  and  C_2
REMARK    2  A    between atoms: C_6  and  C_7
REMARK    3  A    between atoms: C_7  and  N_8
REMARK    4  A    between atoms: C_13  and  C_15
REMARK                            x       y       z     vdW  Elec       q    Type
REMARK                         _______ _______ _______ _____ _____    ______ ____
ROOT
ATOM      1  N   UNL     1       5.308   4.758  17.555  0.00  0.00    +0.000 N 
ATOM      2  C   UNL     1       4.109   4.521  16.793  0.00  0.00    +0.000 C 
ATOM      3  C   UNL     1       3.025   4.906  17.774  0.00  0.00    +0.000 C 
ATOM      4  C   UNL     1       2.861   6.420  17.941  0.00  0.00    +0.000 C 
ATOM      5  N   UNL     1       2.460   6.572  19.325  0.00  0.00    +0.000 N 
ATOM      6  C   UNL     1       1.899   7.676  19.941  0.00  0.00    +0.000 C 
ATOM      7  O   UNL     1       1.574   7.626  21.128  0.00  0.00    +0.000 OA
ATOM      8  C   UNL     1       2.925   5.434  20.123  0.00  0.00    +0.000 C 
ATOM      9  C   UNL     1       3.591   4.488  19.134  0.00  0.00    +0.000 C 
ATOM     10  C   UNL     1       5.078   4.717  18.928  0.00  0.00    +0.000 C 
ATOM     11  O   UNL     1       5.919   4.835  19.807  0.00  0.00    +0.000 OA
ENDROOT
BRANCH   6  12
ATOM     12  C   UNL     1       1.792   8.972  19.124  0.00  0.00    +0.000 C 
ATOM     13  C   UNL     1       1.033   8.834  17.795  0.00  0.00    +0.000 C 
ATOM     14  C   UNL     1      -0.082   9.818  17.878  0.00  0.00    +0.000 C 
ATOM     15  C   UNL     1      -0.056  10.507  19.019  0.00  0.00    +0.000 C 
ATOM     16  C   UNL     1       1.087  10.111  19.894  0.00  0.00    +0.000 C 
ENDBRANCH   6  12
BRANCH   1  17
ATOM     17  C   UNL     1       6.581   5.083  16.923  0.00  0.00    +0.000 C 
BRANCH  17  23
ATOM     18  C   UNL     1       8.674   6.015  12.602  0.00  0.00    +0.000 C 
ATOM     19  C   UNL     1       7.655   5.238  13.382  0.00  0.00    +0.000 A 
ATOM     20  C   UNL     1       6.919   4.232  12.767  0.00  0.00    +0.000 A 
ATOM     21  C   UNL     1       6.035   3.485  13.535  0.00  0.00    +0.000 A 
ATOM     22  C   UNL     1       5.907   3.762  14.891  0.00  0.00    +0.000 A 
ATOM     23  C   UNL     1       6.652   4.799  15.441  0.00  0.00    +0.000 A 
ATOM     24  N   UNL     1       7.523   5.538  14.700  0.00  0.00    +0.000 NA
ENDBRANCH  17  23
ENDBRANCH   1  17
TORSDOF 3
ENDMDL
MODEL 7
REMARK VINA RESULT:      -6.6     12.481     15.554
REMARK  Name = 
REMARK  4 active torsions:
REMARK  status: ('A' for Active; 'I' for Inactive)
REMARK    1  A    between atoms: C_1  and  C_2
REMARK    2  A    between atoms: C_6  and  C_7
REMARK    3  A    between atoms: C_7  and  N_8
REMARK    4  A    between atoms: C_13  and  C_15
REMARK                            x       y       z     vdW  Elec       q    Type
REMARK                         _______ _______ _______ _____ _____    ______ ____
ROOT
ATOM      1  N   UNL     1      -7.286  12.125  19.262  0.00  0.00    +0.000 N 
ATOM      2  C   UNL     1      -7.658  13.511  19.396  0.00  0.00    +0.000 C 
ATOM      3  C   UNL     1      -7.404  13.769  20.864  0.00  0.00    +0.000 C 
ATOM      4  C   UNL     1      -5.920  13.925  21.211  0.00  0.00    +0.000 C 
ATOM      5  N   UNL     1      -5.821  13.381  22.550  0.00  0.00    +0.000 N 
ATOM      6  C   UNL     1      -4.792  13.527  23.463  0.00  0.00    +0.000 C 
ATOM      7  O   UNL     1      -4.883  13.030  24.586  0.00  0.00    +0.000 OA
ATOM      8  C   UNL     1      -6.900  12.420  22.796  0.00  0.00    +0.000 C 
ATOM      9  C   UNL     1      -7.758  12.441  21.540  0.00  0.00    +0.000 C 
ATOM     10  C   UNL     1      -7.358  11.439  20.471  0.00  0.00    +0.000 C 
ATOM     11  O   UNL     1      -7.146  10.248  20.641  0.00  0.00    +0.000 OA
ENDROOT
BRANCH   6  12
ATOM     12  C   UNL     1      -3.514  14.236  22.991  0.00  0.00    +0.000 C 
ATOM     13  C   UNL     1      -2.779  15.030  24.082  0.00  0.00    +0.000 C 
ATOM     14  C   UNL     1      -1.406  14.455  24.125  0.00  0.00    +0.000 C 
ATOM     15  C   UNL     1      -1.238  13.492  23.217  0.00  0.00    +0.000 C 
ATOM     16  C   UNL     1      -2.469  13.262  22.403  0.00  0.00    +0.000 C 
ENDBRANCH   6  12
BRANCH   1  17
ATOM     17  C   UNL     1      -6.813  11.565  18.002  0.00  0.00    +0.000 C 
BRANCH  17  23
ATOM     18  C   UNL     1      -2.939  10.616  15.169  0.00  0.00    +0.000 C 
ATOM     19  C   UNL     1      -3.464  11.021  16.515  0.00  0.00    +0.000 A 
ATOM     20  C   UNL     1      -2.586  11.396  17.525  0.00  0.00    +0.000 A 
ATOM     21  C   UNL     1      -3.109  11.833  18.737  0.00  0.00    +0.000 A 
ATOM     22  C   UNL     1      -4.487  11.881  18.909  0.00  0.00    +0.000 A 
ATOM     23  C   UNL     1      -5.310  11.466  17.868  0.00  0.00    +0.000 A 
ATOM     24  N   UNL     1      -4.812  11.037  16.676  0.00  0.00    +0.000 NA
ENDBRANCH  17  23
ENDBRANCH   1  17
TORSDOF 3
ENDMDL
MODEL 8
REMARK VINA RESULT:      -6.6      1.356      1.934
REMARK  Name = 
REMARK  4 active torsions:
REMARK  status: ('A' for Active; 'I' for Inactive)
REMARK    1  A    between atoms: C_1  and  C_2
REMARK    2  A    between atoms: C_6  and  C_7
REMARK    3  A    between atoms: C_7  and  N_8
REMARK    4  A    between atoms: C_13  and  C_15
REMARK                            x       y       z     vdW  Elec       q    Type
REMARK                         _______ _______ _______ _____ _____    ______ ____
ROOT
ATOM      1  N   UNL     1       5.101   5.435  18.846  0.00  0.00    +0.000 N 
ATOM      2  C   UNL     1       4.117   6.089  18.020  0.00  0.00    +0.000 C 
ATOM      3  C   UNL     1       4.909   6.410  16.773  0.00  0.00    +0.000 C 
ATOM      4  C   UNL     1       5.151   5.194  15.872  0.00  0.00    +0.000 C 
ATOM      5  N   UNL     1       6.447   5.459  15.278  0.00  0.00    +0.000 N 
ATOM      6  C   UNL     1       7.027   4.854  14.178  0.00  0.00    +0.000 C 
ATOM      7  O   UNL     1       8.128   5.229  13.773  0.00  0.00    +0.000 OA
ATOM      8  C   UNL     1       7.232   6.351  16.135  0.00  0.00    +0.000 C 
ATOM      9  C   UNL     1       6.316   6.713  17.296  0.00  0.00    +0.000 C 
ATOM     10  C   UNL     1       6.402   5.786  18.495  0.00  0.00    +0.000 C 
ATOM     11  O   UNL     1       7.426   5.421  19.054  0.00  0.00    +0.000 OA
ENDROOT
BRANCH   6  12
ATOM     12  C   UNL     1       6.299   3.653  13.557  0.00  0.00    +0.000 C 
ATOM     13  C   UNL     1       4.801   3.874  13.296  0.00  0.00    +0.000 C 
ATOM     14  C   UNL     1       4.619   3.634  11.837  0.00  0.00    +0.000 C 
ATOM     15  C   UNL     1       5.760   3.286  11.242  0.00  0.00    +0.000 C 
ATOM     16  C   UNL     1       6.903   3.222  12.201  0.00  0.00    +0.000 C 
ENDBRANCH   6  12
BRANCH   1  17
ATOM     17  C   UNL     1       4.736   4.460  19.866  0.00  0.00    +0.000 C 
BRANCH  17  23
ATOM     18  C   UNL     1       1.123   1.470  18.475  0.00  0.00    +0.000 C 
ATOM     19  C   UNL     1       1.547   2.676  19.262  0.00  0.00    +0.000 A 
ATOM     20  C   UNL     1       0.638   3.332  20.083  0.00  0.00    +0.000 A 
ATOM     21  C   UNL     1       1.082   4.402  20.851  0.00  0.00    +0.000 A 
ATOM     22  C   UNL     1       2.415   4.787  20.780  0.00  0.00    +0.000 A 
ATOM     23  C   UNL     1       3.268   4.105  19.919  0.00  0.00    +0.000 A 
ATOM     24  N   UNL     1       2.847   3.055  19.162  0.00  0.00    +0.000 NA
ENDBRANCH  17  23
ENDBRANCH   1  17
TORSDOF 3
ENDMDL
MODEL 9
REMARK VINA RESULT:      -6.6      3.493      7.318
REMARK  Name = 
REMARK  4 active torsions:
REMARK  status: ('A' for Active; 'I' for Inactive)
REMARK    1  A    between atoms: C_1  and  C_2
REMARK    2  A    between atoms: C_6  and  C_7
REMARK    3  A    between atoms: C_7  and  N_8
REMARK    4  A    between atoms: C_13  and  C_15
REMARK                            x       y       z     vdW  Elec       q    Type
REMARK                         _______ _______ _______ _____ _____    ______ ____
ROOT
ATOM      1  N   UNL     1       7.309   6.590  17.678  0.00  0.00    +0.000 N 
ATOM      2  C   UNL     1       6.315   7.364  16.980  0.00  0.00    +0.000 C 
ATOM      3  C   UNL     1       5.296   6.313  16.604  0.00  0.00    +0.000 C 
ATOM      4  C   UNL     1       4.415   5.868  17.776  0.00  0.00    +0.000 C 
ATOM      5  N   UNL     1       4.143   4.473  17.492  0.00  0.00    +0.000 N 
ATOM      6  C   UNL     1       3.175   3.656  18.046  0.00  0.00    +0.000 C 
ATOM      7  O   UNL     1       3.047   2.494  17.659  0.00  0.00    +0.000 OA
ATOM      8  C   UNL     1       5.197   3.905  16.647  0.00  0.00    +0.000 C 
ATOM      9  C   UNL     1       6.137   5.062  16.335  0.00  0.00    +0.000 C 
ATOM     10  C   UNL     1       7.278   5.245  17.320  0.00  0.00    +0.000 C 
ATOM     11  O   UNL     1       8.036   4.372  17.718  0.00  0.00    +0.000 OA
ENDROOT
BRANCH   6  12
ATOM     12  C   UNL     1       2.347   4.219  19.211  0.00  0.00    +0.000 C 
ATOM     13  C   UNL     1       0.999   3.518  19.440  0.00  0.00    +0.000 C 
ATOM     14  C   UNL     1       1.046   3.032  20.847  0.00  0.00    +0.000 C 
ATOM     15  C   UNL     1       2.183   3.371  21.455  0.00  0.00    +0.000 C 
ATOM     16  C   UNL     1       3.091   4.151  20.564  0.00  0.00    +0.000 C 
ENDBRANCH   6  12
BRANCH   1  17
ATOM     17  C   UNL     1       8.172   7.171  18.699  0.00  0.00    +0.000 C 
BRANCH  17  23
ATOM     18  C   UNL     1      10.273  11.222  20.462  0.00  0.00    +0.000 C 
ATOM     19  C   UNL     1       9.403  10.591  19.414  0.00  0.00    +0.000 A 
ATOM     20  C   UNL     1       8.948  11.340  18.336  0.00  0.00    +0.000 A 
ATOM     21  C   UNL     1       8.204  10.707  17.347  0.00  0.00    +0.000 A 
ATOM     22  C   UNL     1       7.934   9.348  17.461  0.00  0.00    +0.000 A 
ATOM     23  C   UNL     1       8.396   8.661  18.578  0.00  0.00    +0.000 A 
ATOM     24  N   UNL     1       9.126   9.268  19.553  0.00  0.00    +0.000 NA
ENDBRANCH  17  23
ENDBRANCH   1  17
TORSDOF 3
ENDMDL
