MODEL 1
REMARK VINA RESULT:      -9.0      0.000      0.000
REMARK  Name = 
REMARK  9 active torsions:
REMARK  status: ('A' for Active; 'I' for Inactive)
REMARK    1  A    between atoms: C_1  and  C_2
REMARK    2  A    between atoms: C_5  and  O_6
REMARK    3  A    between atoms: O_6  and  C_7
REMARK    4  A    between atoms: C_7  and  C_8
REMARK    5  A    between atoms: C_8  and  C_10
REMARK    6  A    between atoms: C_12  and  C_13
REMARK    7  A    between atoms: C_17  and  C_18
REMARK    8  A    between atoms: C_21  and  C_22
REMARK    9  A    between atoms: C_23  and  N_24
REMARK                            x       y       z     vdW  Elec       q    Type
REMARK                         _______ _______ _______ _____ _____    ______ ____
ROOT
ATOM      1  C   UNL     1       3.190   5.650  18.043  0.00  0.00    +0.000 C 
ATOM      2  O   UNL     1       2.545   4.790  17.441  0.00  0.00    +0.000 OA
ENDROOT
BRANCH   1   3
ATOM      3  C   UNL     1       2.584   6.927  18.458  0.00  0.00    +0.000 A 
ATOM      4  C   UNL     1       2.470   8.127  17.717  0.00  0.00    +0.000 A 
ATOM      5  C   UNL     1       1.811   9.059  18.494  0.00  0.00    +0.000 A 
ATOM      6  C   UNL     1       1.506  10.475  18.131  0.00  0.00    +0.000 C 
ATOM      7  N   UNL     1       1.548   8.488  19.741  0.00  0.00    +0.000 N 
ATOM      8  C   UNL     1       0.934   9.156  20.853  0.00  0.00    +0.000 A 
ATOM      9  C   UNL     1       0.024  10.229  20.840  0.00  0.00    +0.000 A 
ATOM     10  C   UNL     1      -0.198  10.494  22.168  0.00  0.00    +0.000 A 
ATOM     11  C   UNL     1      -1.032  11.473  22.882  0.00  0.00    +0.000 C 
ATOM     12  O   UNL     1       0.534   9.640  22.929  0.00  0.00    +0.000 OA
ATOM     13  N   UNL     1       1.249   8.793  22.101  0.00  0.00    +0.000 NA
ATOM     14  C   UNL     1       2.003   7.167  19.701  0.00  0.00    +0.000 A 
ATOM     15  C   UNL     1       1.833   6.169  20.805  0.00  0.00    +0.000 C 
ENDBRANCH   1   3
BRANCH   1  16
ATOM     16  C   UNL     1       4.639   5.383  18.426  0.00  0.00    +0.000 C 
BRANCH  16  17
ATOM     17  O   UNL     1       5.124   4.229  17.752  0.00  0.00    +0.000 OA
BRANCH  17  22
ATOM     18  C   UNL     1       7.767   5.098  12.842  0.00  0.00    +0.000 C 
ATOM     19  C   UNL     1       7.014   4.853  14.114  0.00  0.00    +0.000 A 
ATOM     20  C   UNL     1       5.763   4.252  14.107  0.00  0.00    +0.000 A 
ATOM     21  C   UNL     1       5.103   4.033  15.317  0.00  0.00    +0.000 A 
ATOM     22  C   UNL     1       5.699   4.407  16.523  0.00  0.00    +0.000 A 
ATOM     23  C   UNL     1       6.965   5.006  16.442  0.00  0.00    +0.000 A 
ATOM     24  N   UNL     1       7.621   5.234  15.259  0.00  0.00    +0.000 NA
BRANCH  23  25
ATOM     25  N   UNL     1       7.599   5.394  17.712  0.00  0.00    +0.000 N 
ATOM     26  O   UNL     1       8.053   4.487  18.429  0.00  0.00    +0.000 OA
ATOM     27  O   UNL     1       7.673   6.609  17.957  0.00  0.00    +0.000 OA
ENDBRANCH  23  25
ENDBRANCH  17  22
ENDBRANCH  16  17
ENDBRANCH   1  16
TORSDOF 5
ENDMDL
MODEL 2
REMARK VINA RESULT:      -8.9      0.898      1.138
REMARK  Name = 
REMARK  9 active torsions:
REMARK  status: ('A' for Active; 'I' for Inactive)
REMARK    1  A    between atoms: C_1  and  C_2
REMARK    2  A    between atoms: C_5  and  O_6
REMARK    3  A    between atoms: O_6  and  C_7
REMARK    4  A    between atoms: C_7  and  C_8
REMARK    5  A    between atoms: C_8  and  C_10
REMARK    6  A    between atoms: C_12  and  C_13
REMARK    7  A    between atoms: C_17  and  C_18
REMARK    8  A    between atoms: C_21  and  C_22
REMARK    9  A    between atoms: C_23  and  N_24
REMARK                            x       y       z     vdW  Elec       q    Type
REMARK                         _______ _______ _______ _____ _____    ______ ____
ROOT
ATOM      1  C   UNL     1       3.710   4.857  18.560  0.00  0.00    +0.000 C 
ATOM      2  O   UNL     1       4.225   4.266  19.510  0.00  0.00    +0.000 OA
ENDROOT
BRANCH   1   3
ATOM      3  C   UNL     1       3.082   6.181  18.717  0.00  0.00    +0.000 A 
ATOM      4  C   UNL     1       3.124   7.283  17.831  0.00  0.00    +0.000 A 
ATOM      5  C   UNL     1       2.376   8.309  18.375  0.00  0.00    +0.000 A 
ATOM      6  C   UNL     1       2.174   9.673  17.803  0.00  0.00    +0.000 C 
ATOM      7  N   UNL     1       1.899   7.896  19.621  0.00  0.00    +0.000 N 
ATOM      8  C   UNL     1       1.134   8.699  20.531  0.00  0.00    +0.000 A 
ATOM      9  C   UNL     1       0.269   9.771  20.243  0.00  0.00    +0.000 A 
ATOM     10  C   UNL     1      -0.157  10.197  21.476  0.00  0.00    +0.000 A 
ATOM     11  C   UNL     1      -1.066  11.263  21.924  0.00  0.00    +0.000 C 
ATOM     12  O   UNL     1       0.419   9.434  22.442  0.00  0.00    +0.000 OA
ATOM     13  N   UNL     1       1.233   8.487  21.848  0.00  0.00    +0.000 NA
ATOM     14  C   UNL     1       2.316   6.575  19.812  0.00  0.00    +0.000 A 
ATOM     15  C   UNL     1       1.942   5.720  20.983  0.00  0.00    +0.000 C 
ENDBRANCH   1   3
BRANCH   1  16
ATOM     16  C   UNL     1       3.759   4.246  17.167  0.00  0.00    +0.000 C 
BRANCH  16  17
ATOM     17  O   UNL     1       5.020   3.627  16.943  0.00  0.00    +0.000 OA
BRANCH  17  22
ATOM     18  C   UNL     1       8.242   5.532  12.720  0.00  0.00    +0.000 C 
ATOM     19  C   UNL     1       7.346   5.006  13.800  0.00  0.00    +0.000 A 
ATOM     20  C   UNL     1       6.269   4.183  13.504  0.00  0.00    +0.000 A 
ATOM     21  C   UNL     1       5.467   3.707  14.543  0.00  0.00    +0.000 A 
ATOM     22  C   UNL     1       5.751   4.048  15.867  0.00  0.00    +0.000 A 
ATOM     23  C   UNL     1       6.860   4.884  16.078  0.00  0.00    +0.000 A 
ATOM     24  N   UNL     1       7.650   5.364  15.066  0.00  0.00    +0.000 NA
BRANCH  23  25
ATOM     25  N   UNL     1       7.165   5.239  17.473  0.00  0.00    +0.000 N 
ATOM     26  O   UNL     1       6.730   6.322  17.900  0.00  0.00    +0.000 OA
ATOM     27  O   UNL     1       7.802   4.409  18.140  0.00  0.00    +0.000 OA
ENDBRANCH  23  25
ENDBRANCH  17  22
ENDBRANCH  16  17
ENDBRANCH   1  16
TORSDOF 5
ENDMDL
MODEL 3
REMARK VINA RESULT:      -8.5      0.955      1.056
REMARK  Name = 
REMARK  9 active torsions:
REMARK  status: ('A' for Active; 'I' for Inactive)
REMARK    1  A    between atoms: C_1  and  C_2
REMARK    2  A    between atoms: C_5  and  O_6
REMARK    3  A    between atoms: O_6  and  C_7
REMARK    4  A    between atoms: C_7  and  C_8
REMARK    5  A    between atoms: C_8  and  C_10
REMARK    6  A    between atoms: C_12  and  C_13
REMARK    7  A    between atoms: C_17  and  C_18
REMARK    8  A    between atoms: C_21  and  C_22
REMARK    9  A    between atoms: C_23  and  N_24
REMARK                            x       y       z     vdW  Elec       q    Type
REMARK                         _______ _______ _______ _____ _____    ______ ____
ROOT
ATOM      1  C   UNL     1       2.716   5.803  18.466  0.00  0.00    +0.000 C 
ATOM      2  O   UNL     1       2.013   5.006  17.843  0.00  0.00    +0.000 OA
ENDROOT
BRANCH   1   3
ATOM      3  C   UNL     1       2.256   7.167  18.777  0.00  0.00    +0.000 A 
ATOM      4  C   UNL     1       2.329   8.324  17.967  0.00  0.00    +0.000 A 
ATOM      5  C   UNL     1       1.755   9.376  18.655  0.00  0.00    +0.000 A 
ATOM      6  C   UNL     1       1.647  10.794  18.200  0.00  0.00    +0.000 C 
ATOM      7  N   UNL     1       1.362   8.918  19.915  0.00  0.00    +0.000 N 
ATOM      8  C   UNL     1       0.784   9.722  20.953  0.00  0.00    +0.000 A 
ATOM      9  C   UNL     1       0.017  10.895  20.832  0.00  0.00    +0.000 A 
ATOM     10  C   UNL     1      -0.236  11.265  22.129  0.00  0.00    +0.000 A 
ATOM     11  C   UNL     1      -0.974  12.380  22.741  0.00  0.00    +0.000 C 
ATOM     12  O   UNL     1       0.347  10.376  22.974  0.00  0.00    +0.000 OA
ATOM     13  N   UNL     1       0.989   9.399  22.235  0.00  0.00    +0.000 NA
ATOM     14  C   UNL     1       1.650   7.551  19.972  0.00  0.00    +0.000 A 
ATOM     15  C   UNL     1       1.303   6.650  21.117  0.00  0.00    +0.000 C 
ENDBRANCH   1   3
BRANCH   1  16
ATOM     16  C   UNL     1       4.079   5.368  18.986  0.00  0.00    +0.000 C 
BRANCH  16  17
ATOM     17  O   UNL     1       5.109   6.136  18.377  0.00  0.00    +0.000 OA
BRANCH  17  22
ATOM     18  C   UNL     1       7.387   4.554  13.462  0.00  0.00    +0.000 C 
ATOM     19  C   UNL     1       6.730   4.947  14.750  0.00  0.00    +0.000 A 
ATOM     20  C   UNL     1       5.500   4.421  15.121  0.00  0.00    +0.000 A 
ATOM     21  C   UNL     1       4.930   4.806  16.335  0.00  0.00    +0.000 A 
ATOM     22  C   UNL     1       5.594   5.705  17.173  0.00  0.00    +0.000 A 
ATOM     23  C   UNL     1       6.833   6.188  16.723  0.00  0.00    +0.000 A 
ATOM     24  N   UNL     1       7.400   5.823  15.529  0.00  0.00    +0.000 NA
BRANCH  23  25
ATOM     25  N   UNL     1       7.538   7.129  17.607  0.00  0.00    +0.000 N 
ATOM     26  O   UNL     1       8.097   6.665  18.615  0.00  0.00    +0.000 OA
ATOM     27  O   UNL     1       7.563   8.320  17.258  0.00  0.00    +0.000 OA
ENDBRANCH  23  25
ENDBRANCH  17  22
ENDBRANCH  16  17
ENDBRANCH   1  16
TORSDOF 5
ENDMDL
MODEL 4
REMARK VINA RESULT:      -8.4      1.786      2.462
REMARK  Name = 
REMARK  9 active torsions:
REMARK  status: ('A' for Active; 'I' for Inactive)
REMARK    1  A    between atoms: C_1  and  C_2
REMARK    2  A    between atoms: C_5  and  O_6
REMARK    3  A    between atoms: O_6  and  C_7
REMARK    4  A    between atoms: C_7  and  C_8
REMARK    5  A    between atoms: C_8  and  C_10
REMARK    6  A    between atoms: C_12  and  C_13
REMARK    7  A    between atoms: C_17  and  C_18
REMARK    8  A    between atoms: C_21  and  C_22
REMARK    9  A    between atoms: C_23  and  N_24
REMARK                            x       y       z     vdW  Elec       q    Type
REMARK                         _______ _______ _______ _____ _____    ______ ____
ROOT
ATOM      1  C   UNL     1       2.735   5.676  19.103  0.00  0.00    +0.000 C 
ATOM      2  O   UNL     1       2.038   4.848  18.514  0.00  0.00    +0.000 OA
ENDROOT
BRANCH   1   3
ATOM      3  C   UNL     1       2.154   6.883  19.716  0.00  0.00    +0.000 A 
ATOM      4  C   UNL     1       1.693   7.060  21.042  0.00  0.00    +0.000 A 
ATOM      5  C   UNL     1       1.252   8.361  21.181  0.00  0.00    +0.000 A 
ATOM      6  C   UNL     1       0.647   8.978  22.399  0.00  0.00    +0.000 C 
ATOM      7  N   UNL     1       1.378   9.005  19.948  0.00  0.00    +0.000 N 
ATOM      8  C   UNL     1       0.967  10.349  19.662  0.00  0.00    +0.000 A 
ATOM      9  C   UNL     1       0.872  11.445  20.539  0.00  0.00    +0.000 A 
ATOM     10  C   UNL     1       0.391  12.462  19.754  0.00  0.00    +0.000 A 
ATOM     11  C   UNL     1       0.059  13.872  20.009  0.00  0.00    +0.000 C 
ATOM     12  O   UNL     1       0.204  12.006  18.488  0.00  0.00    +0.000 OA
ATOM     13  N   UNL     1       0.569  10.673  18.426  0.00  0.00    +0.000 NA
ATOM     14  C   UNL     1       1.959   8.096  19.059  0.00  0.00    +0.000 A 
ATOM     15  C   UNL     1       2.353   8.411  17.649  0.00  0.00    +0.000 C 
ENDBRANCH   1   3
BRANCH   1  16
ATOM     16  C   UNL     1       4.230   5.437  19.260  0.00  0.00    +0.000 C 
BRANCH  16  17
ATOM     17  O   UNL     1       4.962   6.317  18.417  0.00  0.00    +0.000 OA
BRANCH  17  22
ATOM     18  C   UNL     1       7.204   4.428  13.595  0.00  0.00    +0.000 C 
ATOM     19  C   UNL     1       6.555   4.905  14.858  0.00  0.00    +0.000 A 
ATOM     20  C   UNL     1       5.284   4.482  15.219  0.00  0.00    +0.000 A 
ATOM     21  C   UNL     1       4.722   4.944  16.411  0.00  0.00    +0.000 A 
ATOM     22  C   UNL     1       5.435   5.817  17.235  0.00  0.00    +0.000 A 
ATOM     23  C   UNL     1       6.715   6.194  16.796  0.00  0.00    +0.000 A 
ATOM     24  N   UNL     1       7.274   5.753  15.625  0.00  0.00    +0.000 NA
BRANCH  23  25
ATOM     25  N   UNL     1       7.471   7.107  17.667  0.00  0.00    +0.000 N 
ATOM     26  O   UNL     1       8.033   6.621  18.663  0.00  0.00    +0.000 OA
ATOM     27  O   UNL     1       7.531   8.298  17.319  0.00  0.00    +0.000 OA
ENDBRANCH  23  25
ENDBRANCH  17  22
ENDBRANCH  16  17
ENDBRANCH   1  16
TORSDOF 5
ENDMDL
MODEL 5
REMARK VINA RESULT:      -8.3      1.939      2.706
REMARK  Name = 
REMARK  9 active torsions:
REMARK  status: ('A' for Active; 'I' for Inactive)
REMARK    1  A    between atoms: C_1  and  C_2
REMARK    2  A    between atoms: C_5  and  O_6
REMARK    3  A    between atoms: O_6  and  C_7
REMARK    4  A    between atoms: C_7  and  C_8
REMARK    5  A    between atoms: C_8  and  C_10
REMARK    6  A    between atoms: C_12  and  C_13
REMARK    7  A    between atoms: C_17  and  C_18
REMARK    8  A    between atoms: C_21  and  C_22
REMARK    9  A    between atoms: C_23  and  N_24
REMARK                            x       y       z     vdW  Elec       q    Type
REMARK                         _______ _______ _______ _____ _____    ______ ____
ROOT
ATOM      1  C   UNL     1       3.450   4.373  18.249  0.00  0.00    +0.000 C 
ATOM      2  O   UNL     1       2.777   3.529  17.655  0.00  0.00    +0.000 OA
ENDROOT
BRANCH   1   3
ATOM      3  C   UNL     1       2.942   5.733  18.502  0.00  0.00    +0.000 A 
ATOM      4  C   UNL     1       2.988   6.860  17.649  0.00  0.00    +0.000 A 
ATOM      5  C   UNL     1       2.373   7.918  18.289  0.00  0.00    +0.000 A 
ATOM      6  C   UNL     1       2.226   9.313  17.779  0.00  0.00    +0.000 C 
ATOM      7  N   UNL     1       1.980   7.496  19.562  0.00  0.00    +0.000 N 
ATOM      8  C   UNL     1       1.364   8.320  20.561  0.00  0.00    +0.000 A 
ATOM      9  C   UNL     1       0.561   9.462  20.387  0.00  0.00    +0.000 A 
ATOM     10  C   UNL     1       0.282   9.873  21.666  0.00  0.00    +0.000 A 
ATOM     11  C   UNL     1      -0.499  10.986  22.226  0.00  0.00    +0.000 C 
ATOM     12  O   UNL     1       0.882   9.036  22.551  0.00  0.00    +0.000 OA
ATOM     13  N   UNL     1       1.564   8.053  21.857  0.00  0.00    +0.000 NA
ATOM     14  C   UNL     1       2.310   6.142  19.674  0.00  0.00    +0.000 A 
ATOM     15  C   UNL     1       1.978   5.274  20.849  0.00  0.00    +0.000 C 
ENDBRANCH   1   3
BRANCH   1  16
ATOM     16  C   UNL     1       4.823   4.005  18.792  0.00  0.00    +0.000 C 
BRANCH  16  17
ATOM     17  O   UNL     1       5.823   4.244  17.811  0.00  0.00    +0.000 OA
BRANCH  17  22
ATOM     18  C   UNL     1       8.653   9.127  17.878  0.00  0.00    +0.000 C 
ATOM     19  C   UNL     1       7.932   7.814  17.911  0.00  0.00    +0.000 A 
ATOM     20  C   UNL     1       8.006   6.979  19.017  0.00  0.00    +0.000 A 
ATOM     21  C   UNL     1       7.308   5.770  19.009  0.00  0.00    +0.000 A 
ATOM     22  C   UNL     1       6.537   5.408  17.903  0.00  0.00    +0.000 A 
ATOM     23  C   UNL     1       6.515   6.310  16.827  0.00  0.00    +0.000 A 
ATOM     24  N   UNL     1       7.202   7.497  16.820  0.00  0.00    +0.000 NA
BRANCH  23  25
ATOM     25  N   UNL     1       5.697   5.934  15.663  0.00  0.00    +0.000 N 
ATOM     26  O   UNL     1       5.671   4.734  15.341  0.00  0.00    +0.000 OA
ATOM     27  O   UNL     1       5.055   6.840  15.109  0.00  0.00    +0.000 OA
ENDBRANCH  23  25
ENDBRANCH  17  22
ENDBRANCH  16  17
ENDBRANCH   1  16
TORSDOF 5
ENDMDL
MODEL 6
REMARK VINA RESULT:      -8.1      1.238      1.588
REMARK  Name = 
REMARK  9 active torsions:
REMARK  status: ('A' for Active; 'I' for Inactive)
REMARK    1  A    between atoms: C_1  and  C_2
REMARK    2  A    between atoms: C_5  and  O_6
REMARK    3  A    between atoms: O_6  and  C_7
REMARK    4  A    between atoms: C_7  and  C_8
REMARK    5  A    between atoms: C_8  and  C_10
REMARK    6  A    between atoms: C_12  and  C_13
REMARK    7  A    between atoms: C_17  and  C_18
REMARK    8  A    between atoms: C_21  and  C_22
REMARK    9  A    between atoms: C_23  and  N_24
REMARK                            x       y       z     vdW  Elec       q    Type
REMARK                         _______ _______ _______ _____ _____    ______ ____
ROOT
ATOM      1  C   UNL     1       2.726   7.100  18.490  0.00  0.00    +0.000 C 
ATOM      2  O   UNL     1       2.447   5.987  18.937  0.00  0.00    +0.000 OA
ENDROOT
BRANCH   1   3
ATOM      3  C   UNL     1       1.997   8.311  18.907  0.00  0.00    +0.000 A 
ATOM      4  C   UNL     1       1.802   9.511  18.184  0.00  0.00    +0.000 A 
ATOM      5  C   UNL     1       1.038  10.366  18.954  0.00  0.00    +0.000 A 
ATOM      6  C   UNL     1       0.622  11.757  18.607  0.00  0.00    +0.000 C 
ATOM      7  N   UNL     1       0.785   9.748  20.181  0.00  0.00    +0.000 N 
ATOM      8  C   UNL     1       0.077  10.335  21.282  0.00  0.00    +0.000 A 
ATOM      9  C   UNL     1      -0.923  11.324  21.257  0.00  0.00    +0.000 A 
ATOM     10  C   UNL     1      -1.213  11.541  22.580  0.00  0.00    +0.000 A 
ATOM     11  C   UNL     1      -2.153  12.427  23.282  0.00  0.00    +0.000 C 
ATOM     12  O   UNL     1      -0.434  10.738  23.351  0.00  0.00    +0.000 OA
ATOM     13  N   UNL     1       0.380   9.974  22.534  0.00  0.00    +0.000 NA
ATOM     14  C   UNL     1       1.355   8.472  20.133  0.00  0.00    +0.000 A 
ATOM     15  C   UNL     1       1.237   7.440  21.211  0.00  0.00    +0.000 C 
ENDBRANCH   1   3
BRANCH   1  16
ATOM     16  C   UNL     1       3.890   7.260  17.522  0.00  0.00    +0.000 C 
BRANCH  16  17
ATOM     17  O   UNL     1       4.832   6.210  17.703  0.00  0.00    +0.000 OA
BRANCH  17  22
ATOM     18  C   UNL     1       7.576   4.216  13.193  0.00  0.00    +0.000 C 
ATOM     19  C   UNL     1       6.795   4.726  14.365  0.00  0.00    +0.000 A 
ATOM     20  C   UNL     1       5.457   4.402  14.535  0.00  0.00    +0.000 A 
ATOM     21  C   UNL     1       4.770   4.890  15.648  0.00  0.00    +0.000 A 
ATOM     22  C   UNL     1       5.426   5.690  16.586  0.00  0.00    +0.000 A 
ATOM     23  C   UNL     1       6.780   5.969  16.340  0.00  0.00    +0.000 A 
ATOM     24  N   UNL     1       7.463   5.502  15.246  0.00  0.00    +0.000 NA
BRANCH  23  25
ATOM     25  N   UNL     1       7.475   6.806  17.330  0.00  0.00    +0.000 N 
ATOM     26  O   UNL     1       7.574   8.022  17.089  0.00  0.00    +0.000 OA
ATOM     27  O   UNL     1       7.877   6.244  18.361  0.00  0.00    +0.000 OA
ENDBRANCH  23  25
ENDBRANCH  17  22
ENDBRANCH  16  17
ENDBRANCH   1  16
TORSDOF 5
ENDMDL
MODEL 7
REMARK VINA RESULT:      -8.1      1.622      2.372
REMARK  Name = 
REMARK  9 active torsions:
REMARK  status: ('A' for Active; 'I' for Inactive)
REMARK    1  A    between atoms: C_1  and  C_2
REMARK    2  A    between atoms: C_5  and  O_6
REMARK    3  A    between atoms: O_6  and  C_7
REMARK    4  A    between atoms: C_7  and  C_8
REMARK    5  A    between atoms: C_8  and  C_10
REMARK    6  A    between atoms: C_12  and  C_13
REMARK    7  A    between atoms: C_17  and  C_18
REMARK    8  A    between atoms: C_21  and  C_22
REMARK    9  A    between atoms: C_23  and  N_24
REMARK                            x       y       z     vdW  Elec       q    Type
REMARK                         _______ _______ _______ _____ _____    ______ ____
ROOT
ATOM      1  C   UNL     1       3.026   5.902  19.168  0.00  0.00    +0.000 C 
ATOM      2  O   UNL     1       2.639   4.736  19.254  0.00  0.00    +0.000 OA
ENDROOT
BRANCH   1   3
ATOM      3  C   UNL     1       2.258   7.020  19.744  0.00  0.00    +0.000 A 
ATOM      4  C   UNL     1       1.748   7.150  21.057  0.00  0.00    +0.000 A 
ATOM      5  C   UNL     1       1.113   8.372  21.160  0.00  0.00    +0.000 A 
ATOM      6  C   UNL     1       0.396   8.914  22.352  0.00  0.00    +0.000 C 
ATOM      7  N   UNL     1       1.166   9.004  19.915  0.00  0.00    +0.000 N 
ATOM      8  C   UNL     1       0.564  10.265  19.592  0.00  0.00    +0.000 A 
ATOM      9  C   UNL     1       0.287  11.350  20.443  0.00  0.00    +0.000 A 
ATOM     10  C   UNL     1      -0.325  12.268  19.627  0.00  0.00    +0.000 A 
ATOM     11  C   UNL     1      -0.871  13.616  19.845  0.00  0.00    +0.000 C 
ATOM     12  O   UNL     1      -0.415  11.765  18.368  0.00  0.00    +0.000 OA
ATOM     13  N   UNL     1       0.147  10.501  18.343  0.00  0.00    +0.000 NA
ATOM     14  C   UNL     1       1.896   8.176  19.057  0.00  0.00    +0.000 A 
ATOM     15  C   UNL     1       2.268   8.520  17.647  0.00  0.00    +0.000 C 
ENDBRANCH   1   3
BRANCH   1  16
ATOM     16  C   UNL     1       4.358   6.214  18.500  0.00  0.00    +0.000 C 
BRANCH  16  17
ATOM     17  O   UNL     1       5.017   5.011  18.127  0.00  0.00    +0.000 OA
BRANCH  17  22
ATOM     18  C   UNL     1       7.596   4.854  13.109  0.00  0.00    +0.000 C 
ATOM     19  C   UNL     1       6.858   4.890  14.412  0.00  0.00    +0.000 A 
ATOM     20  C   UNL     1       5.509   4.573  14.485  0.00  0.00    +0.000 A 
ATOM     21  C   UNL     1       4.863   4.608  15.722  0.00  0.00    +0.000 A 
ATOM     22  C   UNL     1       5.570   4.951  16.877  0.00  0.00    +0.000 A 
ATOM     23  C   UNL     1       6.931   5.256  16.716  0.00  0.00    +0.000 A 
ATOM     24  N   UNL     1       7.574   5.232  15.505  0.00  0.00    +0.000 NA
BRANCH  23  25
ATOM     25  N   UNL     1       7.679   5.611  17.931  0.00  0.00    +0.000 N 
ATOM     26  O   UNL     1       7.808   6.818  18.197  0.00  0.00    +0.000 OA
ATOM     27  O   UNL     1       8.094   4.674  18.632  0.00  0.00    +0.000 OA
ENDBRANCH  23  25
ENDBRANCH  17  22
ENDBRANCH  16  17
ENDBRANCH   1  16
TORSDOF 5
ENDMDL
MODEL 8
REMARK VINA RESULT:      -8.0      2.925      6.941
REMARK  Name = 
REMARK  9 active torsions:
REMARK  status: ('A' for Active; 'I' for Inactive)
REMARK    1  A    between atoms: C_1  and  C_2
REMARK    2  A    between atoms: C_5  and  O_6
REMARK    3  A    between atoms: O_6  and  C_7
REMARK    4  A    between atoms: C_7  and  C_8
REMARK    5  A    between atoms: C_8  and  C_10
REMARK    6  A    between atoms: C_12  and  C_13
REMARK    7  A    between atoms: C_17  and  C_18
REMARK    8  A    between atoms: C_21  and  C_22
REMARK    9  A    between atoms: C_23  and  N_24
REMARK                            x       y       z     vdW  Elec       q    Type
REMARK                         _______ _______ _______ _____ _____    ______ ____
ROOT
ATOM      1  C   UNL     1       3.710   2.003  17.799  0.00  0.00    +0.000 C 
ATOM      2  O   UNL     1       4.288   0.975  18.154  0.00  0.00    +0.000 OA
ENDROOT
BRANCH   1   3
ATOM      3  C   UNL     1       4.448   3.184  17.319  0.00  0.00    +0.000 A 
ATOM      4  C   UNL     1       4.549   3.679  15.998  0.00  0.00    +0.000 A 
ATOM      5  C   UNL     1       5.326   4.821  16.017  0.00  0.00    +0.000 A 
ATOM      6  C   UNL     1       5.729   5.653  14.845  0.00  0.00    +0.000 C 
ATOM      7  N   UNL     1       5.765   5.034  17.326  0.00  0.00    +0.000 N 
ATOM      8  C   UNL     1       6.648   6.083  17.751  0.00  0.00    +0.000 A 
ATOM      9  C   UNL     1       6.837   7.356  17.183  0.00  0.00    +0.000 A 
ATOM     10  C   UNL     1       7.819   7.924  17.956  0.00  0.00    +0.000 A 
ATOM     11  C   UNL     1       8.499   9.227  17.936  0.00  0.00    +0.000 C 
ATOM     12  O   UNL     1       8.198   7.047  18.922  0.00  0.00    +0.000 OA
ATOM     13  N   UNL     1       7.459   5.885  18.796  0.00  0.00    +0.000 NA
ATOM     14  C   UNL     1       5.198   4.037  18.126  0.00  0.00    +0.000 A 
ATOM     15  C   UNL     1       5.339   3.950  19.614  0.00  0.00    +0.000 C 
ENDBRANCH   1   3
BRANCH   1  16
ATOM     16  C   UNL     1       2.188   2.056  17.795  0.00  0.00    +0.000 C 
BRANCH  16  17
ATOM     17  O   UNL     1       1.703   2.408  19.084  0.00  0.00    +0.000 OA
BRANCH  17  22
ATOM     18  C   UNL     1       1.902   7.756  20.874  0.00  0.00    +0.000 C 
ATOM     19  C   UNL     1       1.833   6.357  20.343  0.00  0.00    +0.000 A 
ATOM     20  C   UNL     1       1.695   6.107  18.985  0.00  0.00    +0.000 A 
ATOM     21  C   UNL     1       1.646   4.787  18.534  0.00  0.00    +0.000 A 
ATOM     22  C   UNL     1       1.742   3.728  19.439  0.00  0.00    +0.000 A 
ATOM     23  C   UNL     1       1.881   4.068  20.794  0.00  0.00    +0.000 A 
ATOM     24  N   UNL     1       1.922   5.360  21.251  0.00  0.00    +0.000 NA
BRANCH  23  25
ATOM     25  N   UNL     1       1.989   2.954  21.749  0.00  0.00    +0.000 N 
ATOM     26  O   UNL     1       0.948   2.571  22.308  0.00  0.00    +0.000 OA
ATOM     27  O   UNL     1       3.112   2.445  21.897  0.00  0.00    +0.000 OA
ENDBRANCH  23  25
ENDBRANCH  17  22
ENDBRANCH  16  17
ENDBRANCH   1  16
TORSDOF 5
ENDMDL
MODEL 9
REMARK VINA RESULT:      -7.8      1.704      2.464
REMARK  Name = 
REMARK  9 active torsions:
REMARK  status: ('A' for Active; 'I' for Inactive)
REMARK    1  A    between atoms: C_1  and  C_2
REMARK    2  A    between atoms: C_5  and  O_6
REMARK    3  A    between atoms: O_6  and  C_7
REMARK    4  A    between atoms: C_7  and  C_8
REMARK    5  A    between atoms: C_8  and  C_10
REMARK    6  A    between atoms: C_12  and  C_13
REMARK    7  A    between atoms: C_17  and  C_18
REMARK    8  A    between atoms: C_21  and  C_22
REMARK    9  A    between atoms: C_23  and  N_24
REMARK                            x       y       z     vdW  Elec       q    Type
REMARK                         _______ _______ _______ _____ _____    ______ ____
ROOT
ATOM      1  C   UNL     1       3.572   4.747  19.109  0.00  0.00    +0.000 C 
ATOM      2  O   UNL     1       4.139   4.021  19.926  0.00  0.00    +0.000 OA
ENDROOT
BRANCH   1   3
ATOM      3  C   UNL     1       2.761   5.903  19.529  0.00  0.00    +0.000 A 
ATOM      4  C   UNL     1       1.896   6.011  20.642  0.00  0.00    +0.000 A 
ATOM      5  C   UNL     1       1.360   7.284  20.658  0.00  0.00    +0.000 A 
ATOM      6  C   UNL     1       0.368   7.828  21.632  0.00  0.00    +0.000 C 
ATOM      7  N   UNL     1       1.831   7.975  19.539  0.00  0.00    +0.000 N 
ATOM      8  C   UNL     1       1.455   9.307  19.161  0.00  0.00    +0.000 A 
ATOM      9  C   UNL     1       1.026  10.366  19.982  0.00  0.00    +0.000 A 
ATOM     10  C   UNL     1       0.760  11.385  19.103  0.00  0.00    +0.000 A 
ATOM     11  C   UNL     1       0.285  12.767  19.264  0.00  0.00    +0.000 C 
ATOM     12  O   UNL     1       1.008  10.964  17.835  0.00  0.00    +0.000 OA
ATOM     13  N   UNL     1       1.449   9.654  17.869  0.00  0.00    +0.000 NA
ATOM     14  C   UNL     1       2.714   7.127  18.864  0.00  0.00    +0.000 A 
ATOM     15  C   UNL     1       3.513   7.509  17.657  0.00  0.00    +0.000 C 
ENDBRANCH   1   3
BRANCH   1  16
ATOM     16  C   UNL     1       3.747   4.495  17.618  0.00  0.00    +0.000 C 
BRANCH  16  17
ATOM     17  O   UNL     1       4.987   3.846  17.369  0.00  0.00    +0.000 OA
BRANCH  17  22
ATOM     18  C   UNL     1       7.988   5.354  12.833  0.00  0.00    +0.000 C 
ATOM     19  C   UNL     1       7.146   4.936  14.000  0.00  0.00    +0.000 A 
ATOM     20  C   UNL     1       5.974   4.216  13.821  0.00  0.00    +0.000 A 
ATOM     21  C   UNL     1       5.226   3.838  14.937  0.00  0.00    +0.000 A 
ATOM     22  C   UNL     1       5.657   4.175  16.222  0.00  0.00    +0.000 A 
ATOM     23  C   UNL     1       6.854   4.903  16.315  0.00  0.00    +0.000 A 
ATOM     24  N   UNL     1       7.593   5.286  15.225  0.00  0.00    +0.000 NA
BRANCH  23  25
ATOM     25  N   UNL     1       7.314   5.252  17.667  0.00  0.00    +0.000 N 
ATOM     26  O   UNL     1       6.948   6.343  18.137  0.00  0.00    +0.000 OA
ATOM     27  O   UNL     1       8.004   4.410  18.264  0.00  0.00    +0.000 OA
ENDBRANCH  23  25
ENDBRANCH  17  22
ENDBRANCH  16  17
ENDBRANCH   1  16
TORSDOF 5
ENDMDL
