MODEL 1
REMARK VINA RESULT:      -8.1      0.000      0.000
REMARK  Name = 
REMARK  9 active torsions:
REMARK  status: ('A' for Active; 'I' for Inactive)
REMARK    1  A    between atoms: C_1  and  O_2
REMARK    2  A    between atoms: O_2  and  C_3
REMARK    3  A    between atoms: C_6  and  C_7
REMARK    4  A    between atoms: C_14  and  N_15
REMARK    5  A    between atoms: N_15  and  S_16
REMARK    6  A    between atoms: S_16  and  C_19
REMARK    7  A    between atoms: N_21  and  C_22
REMARK    8  A    between atoms: C_22  and  C_23
REMARK    9  A    between atoms: C_29  and  C_30
REMARK                            x       y       z     vdW  Elec       q    Type
REMARK                         _______ _______ _______ _____ _____    ______ ____
ROOT
ATOM      1  N   UNL     1      -0.492  10.387  17.771  0.00  0.00    +0.000 N 
ATOM      2  H   UNL     1       0.038  11.015  17.157  0.00  0.00    +0.000 HD
ENDROOT
BRANCH   1   8
ATOM      3  C   UNL     1      -2.907  10.454  17.120  0.00  0.00    +0.000 A 
ATOM      4  N   UNL     1      -4.192  10.809  17.347  0.00  0.00    +0.000 NA
ATOM      5  C   UNL     1      -4.430  11.602  18.414  0.00  0.00    +0.000 A 
ATOM      6  C   UNL     1      -3.454  12.079  19.287  0.00  0.00    +0.000 A 
ATOM      7  C   UNL     1      -2.138  11.662  19.038  0.00  0.00    +0.000 A 
ATOM      8  C   UNL     1      -1.851  10.822  17.961  0.00  0.00    +0.000 A 
BRANCH   6   9
ATOM      9  C   UNL     1      -3.807  12.963  20.420  0.00  0.00    +0.000 C 
ATOM     10  C   UNL     1      -4.928  12.771  21.139  0.00  0.00    +0.000 C 
ATOM     11  C   UNL     1      -5.283  13.587  22.346  0.00  0.00    +0.000 C 
ATOM     12  O   UNL     1      -4.182  14.359  22.828  0.00  0.00    +0.000 OA
ATOM     13  C   UNL     1      -3.519  15.060  21.779  0.00  0.00    +0.000 C 
ATOM     14  C   UNL     1      -2.857  14.069  20.820  0.00  0.00    +0.000 C 
ENDBRANCH   6   9
BRANCH   3  16
ATOM     15  C   UNL     1      -3.010  10.277  14.796  0.00  0.00    +0.000 C 
ATOM     16  O   UNL     1      -2.632   9.656  16.028  0.00  0.00    +0.000 OA
ENDBRANCH   3  16
ENDBRANCH   1   8
BRANCH   1  17
ATOM     17  S   UNL     1       0.436  10.169  19.179  0.00  0.00    +0.000 S 
ATOM     18  O   UNL     1       1.235  11.364  19.360  0.00  0.00    +0.000 OA
ATOM     19  O   UNL     1      -0.421   9.680  20.237  0.00  0.00    +0.000 OA
BRANCH  17  20
ATOM     20  C   UNL     1       1.592   8.879  18.917  0.00  0.00    +0.000 A 
ATOM     21  C   UNL     1       1.886   7.862  19.798  0.00  0.00    +0.000 A 
ATOM     22  N   UNL     1       2.827   7.089  19.166  0.00  0.00    +0.000 N 
ATOM     23  C   UNL     1       3.073   7.653  17.933  0.00  0.00    +0.000 A 
ATOM     24  C   UNL     1       4.065   7.144  16.950  0.00  0.00    +0.000 C 
ATOM     25  N   UNL     1       2.309   8.712  17.745  0.00  0.00    +0.000 NA
BRANCH  22  26
ATOM     26  C   UNL     1       3.371   5.845  19.693  0.00  0.00    +0.000 C 
BRANCH  26  27
ATOM     27  C   UNL     1       2.470   4.662  19.435  0.00  0.00    +0.000 A 
ATOM     28  C   UNL     1       2.506   3.982  18.208  0.00  0.00    +0.000 A 
ATOM     29  C   UNL     1       1.692   2.873  17.983  0.00  0.00    +0.000 A 
ATOM     30  C   UNL     1       0.849   2.412  18.990  0.00  0.00    +0.000 A 
ATOM     31  C   UNL     1       0.811   3.066  20.218  0.00  0.00    +0.000 A 
ATOM     32  C   UNL     1       1.611   4.190  20.439  0.00  0.00    +0.000 A 
ENDBRANCH  26  27
ENDBRANCH  22  26
ENDBRANCH  17  20
ENDBRANCH   1  17
TORSDOF 7
ENDMDL
MODEL 2
REMARK VINA RESULT:      -8.1      2.289      3.575
REMARK  Name = 
REMARK  9 active torsions:
REMARK  status: ('A' for Active; 'I' for Inactive)
REMARK    1  A    between atoms: C_1  and  O_2
REMARK    2  A    between atoms: O_2  and  C_3
REMARK    3  A    between atoms: C_6  and  C_7
REMARK    4  A    between atoms: C_14  and  N_15
REMARK    5  A    between atoms: N_15  and  S_16
REMARK    6  A    between atoms: S_16  and  C_19
REMARK    7  A    between atoms: N_21  and  C_22
REMARK    8  A    between atoms: C_22  and  C_23
REMARK    9  A    between atoms: C_29  and  C_30
REMARK                            x       y       z     vdW  Elec       q    Type
REMARK                         _______ _______ _______ _____ _____    ______ ____
ROOT
ATOM      1  N   UNL     1       0.934  10.012  20.049  0.00  0.00    +0.000 N 
ATOM      2  H   UNL     1       1.776  10.562  20.249  0.00  0.00    +0.000 HD
ENDROOT
BRANCH   1   8
ATOM      3  C   UNL     1      -1.142  10.867  18.946  0.00  0.00    +0.000 A 
ATOM      4  N   UNL     1      -2.296  11.571  18.962  0.00  0.00    +0.000 NA
ATOM      5  C   UNL     1      -2.555  12.297  20.072  0.00  0.00    +0.000 A 
ATOM      6  C   UNL     1      -1.722  12.373  21.187  0.00  0.00    +0.000 A 
ATOM      7  C   UNL     1      -0.551  11.603  21.145  0.00  0.00    +0.000 A 
ATOM      8  C   UNL     1      -0.258  10.819  20.028  0.00  0.00    +0.000 A 
BRANCH   6   9
ATOM      9  C   UNL     1      -2.079  13.215  22.351  0.00  0.00    +0.000 C 
ATOM     10  C   UNL     1      -3.360  13.391  22.725  0.00  0.00    +0.000 C 
ATOM     11  C   UNL     1      -3.762  14.163  23.946  0.00  0.00    +0.000 C 
ATOM     12  O   UNL     1      -2.663  14.416  24.822  0.00  0.00    +0.000 OA
ATOM     13  C   UNL     1      -1.524  14.912  24.123  0.00  0.00    +0.000 C 
ATOM     14  C   UNL     1      -0.979  13.840  23.178  0.00  0.00    +0.000 C 
ENDBRANCH   6   9
BRANCH   3  16
ATOM     15  C   UNL     1      -1.992   9.912  16.994  0.00  0.00    +0.000 C 
ATOM     16  O   UNL     1      -0.844  10.128  17.818  0.00  0.00    +0.000 OA
ENDBRANCH   3  16
ENDBRANCH   1   8
BRANCH   1  17
ATOM     17  S   UNL     1       0.936   8.693  21.121  0.00  0.00    +0.000 S 
ATOM     18  O   UNL     1       1.826   9.026  22.216  0.00  0.00    +0.000 OA
ATOM     19  O   UNL     1      -0.430   8.287  21.372  0.00  0.00    +0.000 OA
BRANCH  17  20
ATOM     20  C   UNL     1       1.671   7.309  20.337  0.00  0.00    +0.000 A 
ATOM     21  C   UNL     1       2.346   7.321  19.137  0.00  0.00    +0.000 A 
ATOM     22  N   UNL     1       2.753   6.027  18.932  0.00  0.00    +0.000 N 
ATOM     23  C   UNL     1       2.317   5.275  20.002  0.00  0.00    +0.000 A 
ATOM     24  C   UNL     1       2.514   3.809  20.146  0.00  0.00    +0.000 C 
ATOM     25  N   UNL     1       1.696   6.038  20.883  0.00  0.00    +0.000 NA
BRANCH  22  26
ATOM     26  C   UNL     1       3.583   5.582  17.820  0.00  0.00    +0.000 C 
BRANCH  26  27
ATOM     27  C   UNL     1       5.045   5.887  18.029  0.00  0.00    +0.000 A 
ATOM     28  C   UNL     1       5.713   6.809  17.209  0.00  0.00    +0.000 A 
ATOM     29  C   UNL     1       7.059   7.109  17.422  0.00  0.00    +0.000 A 
ATOM     30  C   UNL     1       7.748   6.511  18.473  0.00  0.00    +0.000 A 
ATOM     31  C   UNL     1       7.096   5.604  19.304  0.00  0.00    +0.000 A 
ATOM     32  C   UNL     1       5.754   5.287  19.081  0.00  0.00    +0.000 A 
ENDBRANCH  26  27
ENDBRANCH  22  26
ENDBRANCH  17  20
ENDBRANCH   1  17
TORSDOF 7
ENDMDL
MODEL 3
REMARK VINA RESULT:      -8.0      4.482     10.712
REMARK  Name = 
REMARK  9 active torsions:
REMARK  status: ('A' for Active; 'I' for Inactive)
REMARK    1  A    between atoms: C_1  and  O_2
REMARK    2  A    between atoms: O_2  and  C_3
REMARK    3  A    between atoms: C_6  and  C_7
REMARK    4  A    between atoms: C_14  and  N_15
REMARK    5  A    between atoms: N_15  and  S_16
REMARK    6  A    between atoms: S_16  and  C_19
REMARK    7  A    between atoms: N_21  and  C_22
REMARK    8  A    between atoms: C_22  and  C_23
REMARK    9  A    between atoms: C_29  and  C_30
REMARK                            x       y       z     vdW  Elec       q    Type
REMARK                         _______ _______ _______ _____ _____    ______ ____
ROOT
ATOM      1  N   UNL     1       4.412   7.020  17.111  0.00  0.00    +0.000 N 
ATOM      2  H   UNL     1       3.849   7.447  16.368  0.00  0.00    +0.000 HD
ENDROOT
BRANCH   1   8
ATOM      3  C   UNL     1       6.607   5.828  17.260  0.00  0.00    +0.000 A 
ATOM      4  N   UNL     1       7.507   4.929  16.804  0.00  0.00    +0.000 NA
ATOM      5  C   UNL     1       7.238   4.339  15.618  0.00  0.00    +0.000 A 
ATOM      6  C   UNL     1       6.111   4.594  14.839  0.00  0.00    +0.000 A 
ATOM      7  C   UNL     1       5.184   5.508  15.362  0.00  0.00    +0.000 A 
ATOM      8  C   UNL     1       5.412   6.121  16.595  0.00  0.00    +0.000 A 
BRANCH   6   9
ATOM      9  C   UNL     1       5.911   3.914  13.540  0.00  0.00    +0.000 C 
ATOM     10  C   UNL     1       6.952   3.530  12.779  0.00  0.00    +0.000 C 
ATOM     11  C   UNL     1       6.799   2.764  11.499  0.00  0.00    +0.000 C 
ATOM     12  O   UNL     1       5.488   2.221  11.339  0.00  0.00    +0.000 OA
ATOM     13  C   UNL     1       4.472   3.185  11.609  0.00  0.00    +0.000 C 
ATOM     14  C   UNL     1       4.506   3.585  13.085  0.00  0.00    +0.000 C 
ENDBRANCH   6   9
BRANCH   3  16
ATOM     15  C   UNL     1       7.817   5.743  19.253  0.00  0.00    +0.000 C 
ATOM     16  O   UNL     1       6.864   6.458  18.462  0.00  0.00    +0.000 OA
ENDBRANCH   3  16
ENDBRANCH   1   8
BRANCH   1  17
ATOM     17  S   UNL     1       3.326   6.371  18.247  0.00  0.00    +0.000 S 
ATOM     18  O   UNL     1       2.382   5.545  17.521  0.00  0.00    +0.000 OA
ATOM     19  O   UNL     1       4.075   5.837  19.364  0.00  0.00    +0.000 OA
BRANCH  17  20
ATOM     20  C   UNL     1       2.368   7.665  18.937  0.00  0.00    +0.000 A 
ATOM     21  C   UNL     1       2.081   8.872  18.337  0.00  0.00    +0.000 A 
ATOM     22  N   UNL     1       1.298   9.551  19.235  0.00  0.00    +0.000 N 
ATOM     23  C   UNL     1       1.133   8.746  20.341  0.00  0.00    +0.000 A 
ATOM     24  C   UNL     1       0.383   9.130  21.566  0.00  0.00    +0.000 C 
ATOM     25  N   UNL     1       1.737   7.586  20.166  0.00  0.00    +0.000 NA
BRANCH  22  26
ATOM     26  C   UNL     1       0.684  10.849  18.987  0.00  0.00    +0.000 C 
BRANCH  26  27
ATOM     27  C   UNL     1      -0.753  10.735  18.541  0.00  0.00    +0.000 A 
ATOM     28  C   UNL     1      -1.745  11.565  19.088  0.00  0.00    +0.000 A 
ATOM     29  C   UNL     1      -3.067  11.476  18.654  0.00  0.00    +0.000 A 
ATOM     30  C   UNL     1      -3.412  10.575  17.651  0.00  0.00    +0.000 A 
ATOM     31  C   UNL     1      -2.438   9.755  17.088  0.00  0.00    +0.000 A 
ATOM     32  C   UNL     1      -1.117   9.828  17.535  0.00  0.00    +0.000 A 
ENDBRANCH  26  27
ENDBRANCH  22  26
ENDBRANCH  17  20
ENDBRANCH   1  17
TORSDOF 7
ENDMDL
MODEL 4
REMARK VINA RESULT:      -8.0      2.457      4.517
REMARK  Name = 
REMARK  9 active torsions:
REMARK  status: ('A' for Active; 'I' for Inactive)
REMARK    1  A    between atoms: C_1  and  O_2
REMARK    2  A    between atoms: O_2  and  C_3
REMARK    3  A    between atoms: C_6  and  C_7
REMARK    4  A    between atoms: C_14  and  N_15
REMARK    5  A    between atoms: N_15  and  S_16
REMARK    6  A    between atoms: S_16  and  C_19
REMARK    7  A    between atoms: N_21  and  C_22
REMARK    8  A    between atoms: C_22  and  C_23
REMARK    9  A    between atoms: C_29  and  C_30
REMARK                            x       y       z     vdW  Elec       q    Type
REMARK                         _______ _______ _______ _____ _____    ______ ____
ROOT
ATOM      1  N   UNL     1       0.968  10.099  19.809  0.00  0.00    +0.000 N 
ATOM      2  H   UNL     1       1.934  10.431  19.719  0.00  0.00    +0.000 HD
ENDROOT
BRANCH   1   8
ATOM      3  C   UNL     1       0.333  12.328  20.751  0.00  0.00    +0.000 A 
ATOM      4  N   UNL     1      -0.524  13.366  20.879  0.00  0.00    +0.000 NA
ATOM      5  C   UNL     1      -1.740  13.234  20.304  0.00  0.00    +0.000 A 
ATOM      6  C   UNL     1      -2.169  12.111  19.598  0.00  0.00    +0.000 A 
ATOM      7  C   UNL     1      -1.240  11.069  19.458  0.00  0.00    +0.000 A 
ATOM      8  C   UNL     1       0.035  11.176  20.016  0.00  0.00    +0.000 A 
BRANCH   6   9
ATOM      9  C   UNL     1      -3.530  12.046  19.020  0.00  0.00    +0.000 C 
ATOM     10  C   UNL     1      -3.756  11.494  17.814  0.00  0.00    +0.000 C 
ATOM     11  C   UNL     1      -5.127  11.329  17.228  0.00  0.00    +0.000 C 
ATOM     12  O   UNL     1      -6.162  11.523  18.192  0.00  0.00    +0.000 OA
ATOM     13  C   UNL     1      -5.958  12.701  18.969  0.00  0.00    +0.000 C 
ATOM     14  C   UNL     1      -4.703  12.553  19.830  0.00  0.00    +0.000 C 
ENDBRANCH   6   9
BRANCH   3  16
ATOM     15  C   UNL     1       2.416  13.376  20.674  0.00  0.00    +0.000 C 
ATOM     16  O   UNL     1       1.576  12.431  21.341  0.00  0.00    +0.000 OA
ENDBRANCH   3  16
ENDBRANCH   1   8
BRANCH   1  17
ATOM     17  S   UNL     1       0.973   8.868  20.982  0.00  0.00    +0.000 S 
ATOM     18  O   UNL     1       1.871   9.283  22.041  0.00  0.00    +0.000 OA
ATOM     19  O   UNL     1      -0.392   8.487  21.271  0.00  0.00    +0.000 OA
BRANCH  17  20
ATOM     20  C   UNL     1       1.699   7.425  20.303  0.00  0.00    +0.000 A 
ATOM     21  C   UNL     1       2.410   7.351  19.125  0.00  0.00    +0.000 A 
ATOM     22  N   UNL     1       2.793   6.039  19.010  0.00  0.00    +0.000 N 
ATOM     23  C   UNL     1       2.311   5.362  20.110  0.00  0.00    +0.000 A 
ATOM     24  C   UNL     1       2.471   3.904  20.346  0.00  0.00    +0.000 C 
ATOM     25  N   UNL     1       1.682   6.189  20.924  0.00  0.00    +0.000 NA
BRANCH  22  26
ATOM     26  C   UNL     1       3.645   5.512  17.952  0.00  0.00    +0.000 C 
BRANCH  26  27
ATOM     27  C   UNL     1       5.097   5.871  18.143  0.00  0.00    +0.000 A 
ATOM     28  C   UNL     1       5.852   5.296  19.178  0.00  0.00    +0.000 A 
ATOM     29  C   UNL     1       7.202   5.610  19.334  0.00  0.00    +0.000 A 
ATOM     30  C   UNL     1       7.823   6.481  18.445  0.00  0.00    +0.000 A 
ATOM     31  C   UNL     1       7.092   7.050  17.405  0.00  0.00    +0.000 A 
ATOM     32  C   UNL     1       5.735   6.753  17.257  0.00  0.00    +0.000 A 
ENDBRANCH  26  27
ENDBRANCH  22  26
ENDBRANCH  17  20
ENDBRANCH   1  17
TORSDOF 7
ENDMDL
MODEL 5
REMARK VINA RESULT:      -7.9      0.545      1.207
REMARK  Name = 
REMARK  9 active torsions:
REMARK  status: ('A' for Active; 'I' for Inactive)
REMARK    1  A    between atoms: C_1  and  O_2
REMARK    2  A    between atoms: O_2  and  C_3
REMARK    3  A    between atoms: C_6  and  C_7
REMARK    4  A    between atoms: C_14  and  N_15
REMARK    5  A    between atoms: N_15  and  S_16
REMARK    6  A    between atoms: S_16  and  C_19
REMARK    7  A    between atoms: N_21  and  C_22
REMARK    8  A    between atoms: C_22  and  C_23
REMARK    9  A    between atoms: C_29  and  C_30
REMARK                            x       y       z     vdW  Elec       q    Type
REMARK                         _______ _______ _______ _____ _____    ______ ____
ROOT
ATOM      1  N   UNL     1      -0.479  10.335  18.020  0.00  0.00    +0.000 N 
ATOM      2  H   UNL     1       0.085  10.935  17.408  0.00  0.00    +0.000 HD
ENDROOT
BRANCH   1   8
ATOM      3  C   UNL     1      -2.906  10.503  17.439  0.00  0.00    +0.000 A 
ATOM      4  N   UNL     1      -4.162  10.940  17.685  0.00  0.00    +0.000 NA
ATOM      5  C   UNL     1      -4.323  11.797  18.717  0.00  0.00    +0.000 A 
ATOM      6  C   UNL     1      -3.294  12.263  19.534  0.00  0.00    +0.000 A 
ATOM      7  C   UNL     1      -2.011  11.762  19.268  0.00  0.00    +0.000 A 
ATOM      8  C   UNL     1      -1.805  10.854  18.228  0.00  0.00    +0.000 A 
BRANCH   6   9
ATOM      9  C   UNL     1      -3.562  13.221  20.629  0.00  0.00    +0.000 C 
ATOM     10  C   UNL     1      -2.676  13.420  21.623  0.00  0.00    +0.000 C 
ATOM     11  C   UNL     1      -2.867  14.441  22.704  0.00  0.00    +0.000 C 
ATOM     12  O   UNL     1      -3.903  15.375  22.400  0.00  0.00    +0.000 OA
ATOM     13  C   UNL     1      -5.089  14.729  21.942  0.00  0.00    +0.000 C 
ATOM     14  C   UNL     1      -4.830  14.044  20.599  0.00  0.00    +0.000 C 
ENDBRANCH   6   9
BRANCH   3  16
ATOM     15  C   UNL     1      -2.785  10.302  15.118  0.00  0.00    +0.000 C 
ATOM     16  O   UNL     1      -2.711   9.637  16.382  0.00  0.00    +0.000 OA
ENDBRANCH   3  16
ENDBRANCH   1   8
BRANCH   1  17
ATOM     17  S   UNL     1       0.445  10.041  19.416  0.00  0.00    +0.000 S 
ATOM     18  O   UNL     1       1.243  11.225  19.666  0.00  0.00    +0.000 OA
ATOM     19  O   UNL     1      -0.414   9.494  20.444  0.00  0.00    +0.000 OA
BRANCH  17  20
ATOM     20  C   UNL     1       1.604   8.768  19.087  0.00  0.00    +0.000 A 
ATOM     21  C   UNL     1       1.941   7.738  19.938  0.00  0.00    +0.000 A 
ATOM     22  N   UNL     1       2.864   6.987  19.257  0.00  0.00    +0.000 N 
ATOM     23  C   UNL     1       3.059   7.576  18.026  0.00  0.00    +0.000 A 
ATOM     24  C   UNL     1       4.019   7.096  16.997  0.00  0.00    +0.000 C 
ATOM     25  N   UNL     1       2.278   8.631  17.887  0.00  0.00    +0.000 NA
BRANCH  22  26
ATOM     26  C   UNL     1       3.440   5.739  19.739  0.00  0.00    +0.000 C 
BRANCH  26  27
ATOM     27  C   UNL     1       2.552   4.549  19.474  0.00  0.00    +0.000 A 
ATOM     28  C   UNL     1       1.576   4.157  20.403  0.00  0.00    +0.000 A 
ATOM     29  C   UNL     1       0.739   3.072  20.142  0.00  0.00    +0.000 A 
ATOM     30  C   UNL     1       0.847   2.382  18.939  0.00  0.00    +0.000 A 
ATOM     31  C   UNL     1       1.801   2.767  18.000  0.00  0.00    +0.000 A 
ATOM     32  C   UNL     1       2.654   3.840  18.268  0.00  0.00    +0.000 A 
ENDBRANCH  26  27
ENDBRANCH  22  26
ENDBRANCH  17  20
ENDBRANCH   1  17
TORSDOF 7
ENDMDL
MODEL 6
REMARK VINA RESULT:      -7.8      7.475     10.285
REMARK  Name = 
REMARK  9 active torsions:
REMARK  status: ('A' for Active; 'I' for Inactive)
REMARK    1  A    between atoms: C_1  and  O_2
REMARK    2  A    between atoms: O_2  and  C_3
REMARK    3  A    between atoms: C_6  and  C_7
REMARK    4  A    between atoms: C_14  and  N_15
REMARK    5  A    between atoms: N_15  and  S_16
REMARK    6  A    between atoms: S_16  and  C_19
REMARK    7  A    between atoms: N_21  and  C_22
REMARK    8  A    between atoms: C_22  and  C_23
REMARK    9  A    between atoms: C_29  and  C_30
REMARK                            x       y       z     vdW  Elec       q    Type
REMARK                         _______ _______ _______ _____ _____    ______ ____
ROOT
ATOM      1  N   UNL     1       5.931   7.471  17.483  0.00  0.00    +0.000 N 
ATOM      2  H   UNL     1       5.566   8.043  18.251  0.00  0.00    +0.000 HD
ENDROOT
BRANCH   1   8
ATOM      3  C   UNL     1       5.223   5.454  16.182  0.00  0.00    +0.000 A 
ATOM      4  N   UNL     1       4.631   4.242  16.093  0.00  0.00    +0.000 NA
ATOM      5  C   UNL     1       3.984   3.794  17.191  0.00  0.00    +0.000 A 
ATOM      6  C   UNL     1       3.881   4.488  18.395  0.00  0.00    +0.000 A 
ATOM      7  C   UNL     1       4.537   5.726  18.459  0.00  0.00    +0.000 A 
ATOM      8  C   UNL     1       5.238   6.215  17.356  0.00  0.00    +0.000 A 
BRANCH   6   9
ATOM      9  C   UNL     1       3.131   3.925  19.540  0.00  0.00    +0.000 C 
ATOM     10  C   UNL     1       3.613   2.895  20.259  0.00  0.00    +0.000 C 
ATOM     11  C   UNL     1       2.929   2.350  21.477  0.00  0.00    +0.000 C 
ATOM     12  O   UNL     1       1.907   3.218  21.967  0.00  0.00    +0.000 OA
ATOM     13  C   UNL     1       1.047   3.675  20.926  0.00  0.00    +0.000 C 
ATOM     14  C   UNL     1       1.824   4.563  19.953  0.00  0.00    +0.000 C 
ENDBRANCH   6   9
BRANCH   3  16
ATOM     15  C   UNL     1       6.508   4.907  14.313  0.00  0.00    +0.000 C 
ATOM     16  O   UNL     1       5.879   5.944  15.070  0.00  0.00    +0.000 OA
ENDBRANCH   3  16
ENDBRANCH   1   8
BRANCH   1  17
ATOM     17  S   UNL     1       7.617   7.387  17.684  0.00  0.00    +0.000 S 
ATOM     18  O   UNL     1       7.874   6.569  18.853  0.00  0.00    +0.000 OA
ATOM     19  O   UNL     1       8.229   7.076  16.411  0.00  0.00    +0.000 OA
BRANCH  17  20
ATOM     20  C   UNL     1       8.232   8.976  18.093  0.00  0.00    +0.000 A 
ATOM     21  C   UNL     1       9.143   9.263  19.085  0.00  0.00    +0.000 A 
ATOM     22  N   UNL     1       9.334  10.620  19.027  0.00  0.00    +0.000 N 
ATOM     23  C   UNL     1       8.543  11.112  18.011  0.00  0.00    +0.000 A 
ATOM     24  C   UNL     1       8.425  12.548  17.647  0.00  0.00    +0.000 C 
ATOM     25  N   UNL     1       7.899  10.131  17.407  0.00  0.00    +0.000 NA
BRANCH  22  26
ATOM     26  C   UNL     1      10.288  11.361  19.841  0.00  0.00    +0.000 C 
BRANCH  26  27
ATOM     27  C   UNL     1       9.631  12.092  20.985  0.00  0.00    +0.000 A 
ATOM     28  C   UNL     1       9.884  13.454  21.209  0.00  0.00    +0.000 A 
ATOM     29  C   UNL     1       9.253  14.134  22.251  0.00  0.00    +0.000 A 
ATOM     30  C   UNL     1       8.341  13.469  23.066  0.00  0.00    +0.000 A 
ATOM     31  C   UNL     1       8.069  12.121  22.848  0.00  0.00    +0.000 A 
ATOM     32  C   UNL     1       8.714  11.433  21.818  0.00  0.00    +0.000 A 
ENDBRANCH  26  27
ENDBRANCH  22  26
ENDBRANCH  17  20
ENDBRANCH   1  17
TORSDOF 7
ENDMDL
MODEL 7
REMARK VINA RESULT:      -7.8      7.494     10.273
REMARK  Name = 
REMARK  9 active torsions:
REMARK  status: ('A' for Active; 'I' for Inactive)
REMARK    1  A    between atoms: C_1  and  O_2
REMARK    2  A    between atoms: O_2  and  C_3
REMARK    3  A    between atoms: C_6  and  C_7
REMARK    4  A    between atoms: C_14  and  N_15
REMARK    5  A    between atoms: N_15  and  S_16
REMARK    6  A    between atoms: S_16  and  C_19
REMARK    7  A    between atoms: N_21  and  C_22
REMARK    8  A    between atoms: C_22  and  C_23
REMARK    9  A    between atoms: C_29  and  C_30
REMARK                            x       y       z     vdW  Elec       q    Type
REMARK                         _______ _______ _______ _____ _____    ______ ____
ROOT
ATOM      1  N   UNL     1       5.920   7.484  17.401  0.00  0.00    +0.000 N 
ATOM      2  H   UNL     1       5.533   8.056  18.159  0.00  0.00    +0.000 HD
ENDROOT
BRANCH   1   8
ATOM      3  C   UNL     1       5.271   5.464  16.077  0.00  0.00    +0.000 A 
ATOM      4  N   UNL     1       4.669   4.258  15.962  0.00  0.00    +0.000 NA
ATOM      5  C   UNL     1       3.947   3.829  17.020  0.00  0.00    +0.000 A 
ATOM      6  C   UNL     1       3.776   4.537  18.208  0.00  0.00    +0.000 A 
ATOM      7  C   UNL     1       4.443   5.768  18.302  0.00  0.00    +0.000 A 
ATOM      8  C   UNL     1       5.220   6.236  17.242  0.00  0.00    +0.000 A 
BRANCH   6   9
ATOM      9  C   UNL     1       2.946   3.996  19.308  0.00  0.00    +0.000 C 
ATOM     10  C   UNL     1       1.673   4.393  19.488  0.00  0.00    +0.000 C 
ATOM     11  C   UNL     1       0.769   3.810  20.533  0.00  0.00    +0.000 C 
ATOM     12  O   UNL     1       1.285   2.601  21.092  0.00  0.00    +0.000 OA
ATOM     13  C   UNL     1       2.658   2.724  21.458  0.00  0.00    +0.000 C 
ATOM     14  C   UNL     1       3.519   2.927  20.211  0.00  0.00    +0.000 C 
ENDBRANCH   6   9
BRANCH   3  16
ATOM     15  C   UNL     1       6.709   4.887  14.332  0.00  0.00    +0.000 C 
ATOM     16  O   UNL     1       6.003   5.933  15.005  0.00  0.00    +0.000 OA
ENDBRANCH   3  16
ENDBRANCH   1   8
BRANCH   1  17
ATOM     17  S   UNL     1       7.597   7.382  17.663  0.00  0.00    +0.000 S 
ATOM     18  O   UNL     1       7.803   6.565  18.842  0.00  0.00    +0.000 OA
ATOM     19  O   UNL     1       8.251   7.062  16.413  0.00  0.00    +0.000 OA
BRANCH  17  20
ATOM     20  C   UNL     1       8.215   8.966  18.089  0.00  0.00    +0.000 A 
ATOM     21  C   UNL     1       9.098   9.245  19.108  0.00  0.00    +0.000 A 
ATOM     22  N   UNL     1       9.304  10.600  19.055  0.00  0.00    +0.000 N 
ATOM     23  C   UNL     1       8.548  11.099  18.016  0.00  0.00    +0.000 A 
ATOM     24  C   UNL     1       8.455  12.536  17.648  0.00  0.00    +0.000 C 
ATOM     25  N   UNL     1       7.913  10.124  17.394  0.00  0.00    +0.000 NA
BRANCH  22  26
ATOM     26  C   UNL     1      10.240  11.332  19.897  0.00  0.00    +0.000 C 
BRANCH  26  27
ATOM     27  C   UNL     1       9.553  12.094  21.003  0.00  0.00    +0.000 A 
ATOM     28  C   UNL     1       8.687  11.444  21.896  0.00  0.00    +0.000 A 
ATOM     29  C   UNL     1       8.074  12.146  22.934  0.00  0.00    +0.000 A 
ATOM     30  C   UNL     1       8.339  13.501  23.109  0.00  0.00    +0.000 A 
ATOM     31  C   UNL     1       9.206  14.158  22.241  0.00  0.00    +0.000 A 
ATOM     32  C   UNL     1       9.805  13.462  21.189  0.00  0.00    +0.000 A 
ENDBRANCH  26  27
ENDBRANCH  22  26
ENDBRANCH  17  20
ENDBRANCH   1  17
TORSDOF 7
ENDMDL
MODEL 8
REMARK VINA RESULT:      -7.8      2.125      3.306
REMARK  Name = 
REMARK  9 active torsions:
REMARK  status: ('A' for Active; 'I' for Inactive)
REMARK    1  A    between atoms: C_1  and  O_2
REMARK    2  A    between atoms: O_2  and  C_3
REMARK    3  A    between atoms: C_6  and  C_7
REMARK    4  A    between atoms: C_14  and  N_15
REMARK    5  A    between atoms: N_15  and  S_16
REMARK    6  A    between atoms: S_16  and  C_19
REMARK    7  A    between atoms: N_21  and  C_22
REMARK    8  A    between atoms: C_22  and  C_23
REMARK    9  A    between atoms: C_29  and  C_30
REMARK                            x       y       z     vdW  Elec       q    Type
REMARK                         _______ _______ _______ _____ _____    ______ ____
ROOT
ATOM      1  N   UNL     1       0.715   9.882  19.787  0.00  0.00    +0.000 N 
ATOM      2  H   UNL     1       0.236   9.005  20.019  0.00  0.00    +0.000 HD
ENDROOT
BRANCH   1   8
ATOM      3  C   UNL     1       0.327  12.198  20.650  0.00  0.00    +0.000 A 
ATOM      4  N   UNL     1      -0.438  13.304  20.790  0.00  0.00    +0.000 NA
ATOM      5  C   UNL     1      -1.704  13.237  20.325  0.00  0.00    +0.000 A 
ATOM      6  C   UNL     1      -2.274  12.117  19.721  0.00  0.00    +0.000 A 
ATOM      7  C   UNL     1      -1.439  11.001  19.565  0.00  0.00    +0.000 A 
ATOM      8  C   UNL     1      -0.116  11.037  20.008  0.00  0.00    +0.000 A 
BRANCH   6   9
ATOM      9  C   UNL     1      -3.681  12.129  19.262  0.00  0.00    +0.000 C 
ATOM     10  C   UNL     1      -4.036  11.609  18.073  0.00  0.00    +0.000 C 
ATOM     11  C   UNL     1      -5.459  11.522  17.605  0.00  0.00    +0.000 C 
ATOM     12  O   UNL     1      -6.397  11.749  18.657  0.00  0.00    +0.000 OA
ATOM     13  C   UNL     1      -6.069  12.902  19.428  0.00  0.00    +0.000 C 
ATOM     14  C   UNL     1      -4.753  12.678  20.176  0.00  0.00    +0.000 C 
ENDBRANCH   6   9
BRANCH   3  16
ATOM     15  C   UNL     1       2.373  13.317  20.576  0.00  0.00    +0.000 C 
ATOM     16  O   UNL     1       1.621  12.234  21.129  0.00  0.00    +0.000 OA
ENDBRANCH   3  16
ENDBRANCH   1   8
BRANCH   1  17
ATOM     17  S   UNL     1       1.356   9.700  18.223  0.00  0.00    +0.000 S 
ATOM     18  O   UNL     1       0.265   9.317  17.349  0.00  0.00    +0.000 OA
ATOM     19  O   UNL     1       2.186  10.845  17.918  0.00  0.00    +0.000 OA
BRANCH  17  20
ATOM     20  C   UNL     1       2.459   8.339  18.204  0.00  0.00    +0.000 A 
ATOM     21  C   UNL     1       2.542   7.349  19.158  0.00  0.00    +0.000 A 
ATOM     22  N   UNL     1       3.525   6.498  18.719  0.00  0.00    +0.000 N 
ATOM     23  C   UNL     1       4.004   6.991  17.524  0.00  0.00    +0.000 A 
ATOM     24  C   UNL     1       5.110   6.384  16.738  0.00  0.00    +0.000 C 
ATOM     25  N   UNL     1       3.346   8.080  17.174  0.00  0.00    +0.000 NA
BRANCH  22  26
ATOM     26  C   UNL     1       3.899   5.251  19.373  0.00  0.00    +0.000 C 
BRANCH  26  27
ATOM     27  C   UNL     1       2.746   4.284  19.480  0.00  0.00    +0.000 A 
ATOM     28  C   UNL     1       2.204   3.680  18.335  0.00  0.00    +0.000 A 
ATOM     29  C   UNL     1       1.156   2.765  18.441  0.00  0.00    +0.000 A 
ATOM     30  C   UNL     1       0.654   2.421  19.693  0.00  0.00    +0.000 A 
ATOM     31  C   UNL     1       1.191   3.001  20.840  0.00  0.00    +0.000 A 
ATOM     32  C   UNL     1       2.226   3.933  20.735  0.00  0.00    +0.000 A 
ENDBRANCH  26  27
ENDBRANCH  22  26
ENDBRANCH  17  20
ENDBRANCH   1  17
TORSDOF 7
ENDMDL
MODEL 9
REMARK VINA RESULT:      -7.8      2.528      4.846
REMARK  Name = 
REMARK  9 active torsions:
REMARK  status: ('A' for Active; 'I' for Inactive)
REMARK    1  A    between atoms: C_1  and  O_2
REMARK    2  A    between atoms: O_2  and  C_3
REMARK    3  A    between atoms: C_6  and  C_7
REMARK    4  A    between atoms: C_14  and  N_15
REMARK    5  A    between atoms: N_15  and  S_16
REMARK    6  A    between atoms: S_16  and  C_19
REMARK    7  A    between atoms: N_21  and  C_22
REMARK    8  A    between atoms: C_22  and  C_23
REMARK    9  A    between atoms: C_29  and  C_30
REMARK                            x       y       z     vdW  Elec       q    Type
REMARK                         _______ _______ _______ _____ _____    ______ ____
ROOT
ATOM      1  N   UNL     1       1.507  10.052  19.933  0.00  0.00    +0.000 N 
ATOM      2  H   UNL     1       2.397  10.444  20.258  0.00  0.00    +0.000 HD
ENDROOT
BRANCH   1   8
ATOM      3  C   UNL     1       0.488  12.277  20.448  0.00  0.00    +0.000 A 
ATOM      4  N   UNL     1      -0.429  13.247  20.229  0.00  0.00    +0.000 NA
ATOM      5  C   UNL     1      -1.407  12.975  19.338  0.00  0.00    +0.000 A 
ATOM      6  C   UNL     1      -1.539  11.777  18.639  0.00  0.00    +0.000 A 
ATOM      7  C   UNL     1      -0.550  10.809  18.868  0.00  0.00    +0.000 A 
ATOM      8  C   UNL     1       0.492  11.058  19.762  0.00  0.00    +0.000 A 
BRANCH   6   9
ATOM      9  C   UNL     1      -2.660  11.561  17.697  0.00  0.00    +0.000 C 
ATOM     10  C   UNL     1      -2.446  11.171  16.427  0.00  0.00    +0.000 C 
ATOM     11  C   UNL     1      -3.552  10.858  15.464  0.00  0.00    +0.000 C 
ATOM     12  O   UNL     1      -4.817  10.712  16.111  0.00  0.00    +0.000 OA
ATOM     13  C   UNL     1      -5.076  11.773  17.028  0.00  0.00    +0.000 C 
ATOM     14  C   UNL     1      -4.081  11.719  18.189  0.00  0.00    +0.000 C 
ENDBRANCH   6   9
BRANCH   3  16
ATOM     15  C   UNL     1       1.969  13.868  21.298  0.00  0.00    +0.000 C 
ATOM     16  O   UNL     1       1.491  12.522  21.365  0.00  0.00    +0.000 OA
ENDBRANCH   3  16
ENDBRANCH   1   8
BRANCH   1  17
ATOM     17  S   UNL     1       1.125   8.760  20.970  0.00  0.00    +0.000 S 
ATOM     18  O   UNL     1       1.857   8.965  22.205  0.00  0.00    +0.000 OA
ATOM     19  O   UNL     1      -0.309   8.571  20.979  0.00  0.00    +0.000 OA
BRANCH  17  20
ATOM     20  C   UNL     1       1.762   7.271  20.301  0.00  0.00    +0.000 A 
ATOM     21  C   UNL     1       2.511   7.153  19.151  0.00  0.00    +0.000 A 
ATOM     22  N   UNL     1       2.794   5.817  19.033  0.00  0.00    +0.000 N 
ATOM     23  C   UNL     1       2.215   5.169  20.103  0.00  0.00    +0.000 A 
ATOM     24  C   UNL     1       2.250   3.699  20.325  0.00  0.00    +0.000 C 
ATOM     25  N   UNL     1       1.620   6.033  20.903  0.00  0.00    +0.000 NA
BRANCH  22  26
ATOM     26  C   UNL     1       3.643   5.235  18.003  0.00  0.00    +0.000 C 
BRANCH  26  27
ATOM     27  C   UNL     1       5.081   5.677  18.117  0.00  0.00    +0.000 A 
ATOM     28  C   UNL     1       5.626   6.595  17.206  0.00  0.00    +0.000 A 
ATOM     29  C   UNL     1       6.948   7.023  17.331  0.00  0.00    +0.000 A 
ATOM     30  C   UNL     1       7.735   6.560  18.381  0.00  0.00    +0.000 A 
ATOM     31  C   UNL     1       7.205   5.659  19.301  0.00  0.00    +0.000 A 
ATOM     32  C   UNL     1       5.887   5.214  19.167  0.00  0.00    +0.000 A 
ENDBRANCH  26  27
ENDBRANCH  22  26
ENDBRANCH  17  20
ENDBRANCH   1  17
TORSDOF 7
ENDMDL
