MODEL 1
REMARK VINA RESULT:      -8.6      0.000      0.000
REMARK  Name = 
REMARK  11 active torsions:
REMARK  status: ('A' for Active; 'I' for Inactive)
REMARK    1  A    between atoms: C_1  and  C_2
REMARK    2  A    between atoms: C_2  and  C_4
REMARK    3  A    between atoms: C_7  and  O_8
REMARK    4  A    between atoms: O_8  and  C_9
REMARK    5  A    between atoms: C_9  and  C_10
REMARK    6  A    between atoms: C_15  and  O_16
REMARK    7  A    between atoms: O_16  and  C_17
REMARK    8  A    between atoms: C_19  and  C_20
REMARK    9  A    between atoms: C_21  and  N_22
REMARK   10  A    between atoms: C_23  and  C_24
REMARK   11  A    between atoms: N_28  and  C_29
REMARK                            x       y       z     vdW  Elec       q    Type
REMARK                         _______ _______ _______ _____ _____    ______ ____
ROOT
ATOM      1  C   UNL     1       0.480  10.625  20.407  0.00  0.00    +0.000 A 
ATOM      2  N   UNL     1       0.873  10.552  19.149  0.00  0.00    +0.000 NA
ATOM      3  C   UNL     1       1.437   9.317  19.003  0.00  0.00    +0.000 A 
ATOM      4  C   UNL     1       2.010   8.745  17.859  0.00  0.00    +0.000 A 
ATOM      5  C   UNL     1       2.473   7.429  17.924  0.00  0.00    +0.000 A 
ATOM      6  C   UNL     1       2.349   6.682  19.098  0.00  0.00    +0.000 A 
ATOM      7  C   UNL     1       1.823   7.254  20.272  0.00  0.00    +0.000 A 
ATOM      8  C   UNL     1       1.383   8.590  20.191  0.00  0.00    +0.000 A 
ATOM      9  N   UNL     1       0.884   9.501  21.100  0.00  0.00    +0.000 N 
ATOM     10  C   UNL     1       0.883   9.362  22.537  0.00  0.00    +0.000 C 
ENDROOT
BRANCH   1  11
ATOM     11  C   UNL     1      -0.377  11.725  20.956  0.00  0.00    +0.000 C 
BRANCH  11  12
ATOM     12  O   UNL     1      -0.931  12.467  19.866  0.00  0.00    +0.000 OA
BRANCH  12  16
ATOM     13  C   UNL     1      -5.041  12.026  19.171  0.00  0.00    +0.000 A 
ATOM     14  C   UNL     1      -4.079  11.504  18.300  0.00  0.00    +0.000 A 
ATOM     15  C   UNL     1      -2.714  11.664  18.580  0.00  0.00    +0.000 A 
ATOM     16  C   UNL     1      -2.291  12.355  19.718  0.00  0.00    +0.000 A 
ATOM     17  C   UNL     1      -3.251  12.836  20.611  0.00  0.00    +0.000 A 
ATOM     18  C   UNL     1      -4.617  12.678  20.337  0.00  0.00    +0.000 A 
BRANCH  13  20
ATOM     19  C   UNL     1      -7.473  12.166  20.042  0.00  0.00    +0.000 C 
ATOM     20  C   UNL     1      -6.510  11.920  18.908  0.00  0.00    +0.000 C 
ATOM     21  O   UNL     1      -6.910  11.639  17.784  0.00  0.00    +0.000 OA
ENDBRANCH  13  20
ENDBRANCH  12  16
ENDBRANCH  11  12
ENDBRANCH   1  11
BRANCH   6  22
ATOM     22  O   UNL     1       2.891   5.414  19.037  0.00  0.00    +0.000 OA
BRANCH  22  23
ATOM     23  C   UNL     1       4.156   5.223  18.533  0.00  0.00    +0.000 A 
ATOM     24  C   UNL     1       5.332   5.445  19.237  0.00  0.00    +0.000 A 
ATOM     25  C   UNL     1       6.581   5.247  18.620  0.00  0.00    +0.000 A 
ATOM     26  C   UNL     1       7.817   5.666  19.370  0.00  0.00    +0.000 C 
ATOM     27  C   UNL     1       6.653   4.696  17.318  0.00  0.00    +0.000 A 
ATOM     28  C   UNL     1       5.458   4.493  16.599  0.00  0.00    +0.000 A 
ATOM     29  C   UNL     1       5.408   4.069  15.153  0.00  0.00    +0.000 C 
ATOM     30  C   UNL     1       4.222   4.732  17.230  0.00  0.00    +0.000 A 
BRANCH  27  31
ATOM     31  N   UNL     1       7.906   4.569  16.685  0.00  0.00    +0.000 N 
ATOM     32  H   UNL     1       8.117   5.334  16.056  0.00  0.00    +0.000 HD
ATOM     33  H   UNL     1       8.672   4.424  17.332  0.00  0.00    +0.000 HD
ENDBRANCH  27  31
ENDBRANCH  22  23
ENDBRANCH   6  22
TORSDOF 7
ENDMDL
MODEL 2
REMARK VINA RESULT:      -8.6      2.179     10.558
REMARK  Name = 
REMARK  11 active torsions:
REMARK  status: ('A' for Active; 'I' for Inactive)
REMARK    1  A    between atoms: C_1  and  C_2
REMARK    2  A    between atoms: C_2  and  C_4
REMARK    3  A    between atoms: C_7  and  O_8
REMARK    4  A    between atoms: O_8  and  C_9
REMARK    5  A    between atoms: C_9  and  C_10
REMARK    6  A    between atoms: C_15  and  O_16
REMARK    7  A    between atoms: O_16  and  C_17
REMARK    8  A    between atoms: C_19  and  C_20
REMARK    9  A    between atoms: C_21  and  N_22
REMARK   10  A    between atoms: C_23  and  C_24
REMARK   11  A    between atoms: N_28  and  C_29
REMARK                            x       y       z     vdW  Elec       q    Type
REMARK                         _______ _______ _______ _____ _____    ______ ____
ROOT
ATOM      1  C   UNL     1       2.338   6.754  19.754  0.00  0.00    +0.000 A 
ATOM      2  N   UNL     1       1.824   6.982  20.948  0.00  0.00    +0.000 NA
ATOM      3  C   UNL     1       1.244   8.217  20.877  0.00  0.00    +0.000 A 
ATOM      4  C   UNL     1       0.564   8.923  21.878  0.00  0.00    +0.000 A 
ATOM      5  C   UNL     1      -0.010  10.157  21.560  0.00  0.00    +0.000 A 
ATOM      6  C   UNL     1       0.069  10.671  20.263  0.00  0.00    +0.000 A 
ATOM      7  C   UNL     1       0.790  10.001  19.257  0.00  0.00    +0.000 A 
ATOM      8  C   UNL     1       1.381   8.770  19.606  0.00  0.00    +0.000 A 
ATOM      9  N   UNL     1       2.195   7.868  18.951  0.00  0.00    +0.000 N 
ATOM     10  C   UNL     1       2.877   8.086  17.697  0.00  0.00    +0.000 C 
ENDROOT
BRANCH   1  11
ATOM     11  C   UNL     1       2.889   5.431  19.317  0.00  0.00    +0.000 C 
BRANCH  11  12
ATOM     12  O   UNL     1       4.315   5.469  19.415  0.00  0.00    +0.000 OA
BRANCH  12  16
ATOM     13  C   UNL     1       6.188   5.017  15.693  0.00  0.00    +0.000 A 
ATOM     14  C   UNL     1       4.992   4.364  16.008  0.00  0.00    +0.000 A 
ATOM     15  C   UNL     1       4.393   4.555  17.262  0.00  0.00    +0.000 A 
ATOM     16  C   UNL     1       4.982   5.385  18.219  0.00  0.00    +0.000 A 
ATOM     17  C   UNL     1       6.152   6.072  17.887  0.00  0.00    +0.000 A 
ATOM     18  C   UNL     1       6.755   5.885  16.635  0.00  0.00    +0.000 A 
BRANCH  13  20
ATOM     19  C   UNL     1       6.318   3.856  13.384  0.00  0.00    +0.000 C 
ATOM     20  C   UNL     1       6.893   4.824  14.387  0.00  0.00    +0.000 C 
ATOM     21  O   UNL     1       7.919   5.451  14.149  0.00  0.00    +0.000 OA
ENDBRANCH  13  20
ENDBRANCH  12  16
ENDBRANCH  11  12
ENDBRANCH   1  11
BRANCH   6  22
ATOM     22  O   UNL     1      -0.498  11.919  20.101  0.00  0.00    +0.000 OA
BRANCH  22  23
ATOM     23  C   UNL     1      -1.856  12.049  19.930  0.00  0.00    +0.000 A 
ATOM     24  C   UNL     1      -2.718  12.643  20.842  0.00  0.00    +0.000 A 
ATOM     25  C   UNL     1      -4.100  12.700  20.585  0.00  0.00    +0.000 A 
ATOM     26  C   UNL     1      -5.005  13.198  21.680  0.00  0.00    +0.000 C 
ATOM     27  C   UNL     1      -4.611  12.269  19.337  0.00  0.00    +0.000 A 
ATOM     28  C   UNL     1      -3.737  11.646  18.423  0.00  0.00    +0.000 A 
ATOM     29  C   UNL     1      -4.186  10.999  17.138  0.00  0.00    +0.000 C 
ATOM     30  C   UNL     1      -2.363  11.572  18.721  0.00  0.00    +0.000 A 
BRANCH  27  31
ATOM     31  N   UNL     1      -6.004  12.265  19.119  0.00  0.00    +0.000 N 
ATOM     32  H   UNL     1      -6.543  12.142  19.969  0.00  0.00    +0.000 HD
ATOM     33  H   UNL     1      -6.334  13.075  18.608  0.00  0.00    +0.000 HD
ENDBRANCH  27  31
ENDBRANCH  22  23
ENDBRANCH   6  22
TORSDOF 7
ENDMDL
MODEL 3
REMARK VINA RESULT:      -8.5      2.562     10.641
REMARK  Name = 
REMARK  11 active torsions:
REMARK  status: ('A' for Active; 'I' for Inactive)
REMARK    1  A    between atoms: C_1  and  C_2
REMARK    2  A    between atoms: C_2  and  C_4
REMARK    3  A    between atoms: C_7  and  O_8
REMARK    4  A    between atoms: O_8  and  C_9
REMARK    5  A    between atoms: C_9  and  C_10
REMARK    6  A    between atoms: C_15  and  O_16
REMARK    7  A    between atoms: O_16  and  C_17
REMARK    8  A    between atoms: C_19  and  C_20
REMARK    9  A    between atoms: C_21  and  N_22
REMARK   10  A    between atoms: C_23  and  C_24
REMARK   11  A    between atoms: N_28  and  C_29
REMARK                            x       y       z     vdW  Elec       q    Type
REMARK                         _______ _______ _______ _____ _____    ______ ____
ROOT
ATOM      1  C   UNL     1       3.126   5.555  18.934  0.00  0.00    +0.000 A 
ATOM      2  N   UNL     1       2.526   5.663  20.106  0.00  0.00    +0.000 NA
ATOM      3  C   UNL     1       2.014   6.929  20.149  0.00  0.00    +0.000 A 
ATOM      4  C   UNL     1       1.288   7.544  21.178  0.00  0.00    +0.000 A 
ATOM      5  C   UNL     1       0.803   8.839  20.977  0.00  0.00    +0.000 A 
ATOM      6  C   UNL     1       1.013   9.504  19.768  0.00  0.00    +0.000 A 
ATOM      7  C   UNL     1       1.783   8.924  18.742  0.00  0.00    +0.000 A 
ATOM      8  C   UNL     1       2.283   7.627  18.974  0.00  0.00    +0.000 A 
ATOM      9  N   UNL     1       3.104   6.767  18.273  0.00  0.00    +0.000 N 
ATOM     10  C   UNL     1       3.899   7.099  17.113  0.00  0.00    +0.000 C 
ENDROOT
BRANCH   1  11
ATOM     11  C   UNL     1       3.648   4.267  18.375  0.00  0.00    +0.000 C 
BRANCH  11  12
ATOM     12  O   UNL     1       5.076   4.278  18.444  0.00  0.00    +0.000 OA
BRANCH  12  16
ATOM     13  C   UNL     1       6.853   4.778  14.680  0.00  0.00    +0.000 A 
ATOM     14  C   UNL     1       5.648   4.087  14.849  0.00  0.00    +0.000 A 
ATOM     15  C   UNL     1       5.083   3.955  16.125  0.00  0.00    +0.000 A 
ATOM     16  C   UNL     1       5.714   4.496  17.249  0.00  0.00    +0.000 A 
ATOM     17  C   UNL     1       6.893   5.225  17.074  0.00  0.00    +0.000 A 
ATOM     18  C   UNL     1       7.462   5.360  15.800  0.00  0.00    +0.000 A 
BRANCH  13  20
ATOM     19  C   UNL     1       7.054   4.062  12.203  0.00  0.00    +0.000 C 
ATOM     20  C   UNL     1       7.523   4.920  13.350  0.00  0.00    +0.000 C 
ATOM     21  O   UNL     1       8.436   5.726  13.209  0.00  0.00    +0.000 OA
ENDBRANCH  13  20
ENDBRANCH  12  16
ENDBRANCH  11  12
ENDBRANCH   1  11
BRANCH   6  22
ATOM     22  O   UNL     1       0.522  10.794  19.724  0.00  0.00    +0.000 OA
BRANCH  22  23
ATOM     23  C   UNL     1      -0.733  11.043  19.222  0.00  0.00    +0.000 A 
ATOM     24  C   UNL     1      -1.241  10.499  18.050  0.00  0.00    +0.000 A 
ATOM     25  C   UNL     1      -2.531  10.842  17.606  0.00  0.00    +0.000 A 
ATOM     26  C   UNL     1      -2.964  10.361  16.246  0.00  0.00    +0.000 C 
ATOM     27  C   UNL     1      -3.375  11.641  18.414  0.00  0.00    +0.000 A 
ATOM     28  C   UNL     1      -2.848  12.208  19.592  0.00  0.00    +0.000 A 
ATOM     29  C   UNL     1      -3.587  13.204  20.449  0.00  0.00    +0.000 C 
ATOM     30  C   UNL     1      -1.541  11.876  19.995  0.00  0.00    +0.000 A 
BRANCH  27  31
ATOM     31  N   UNL     1      -4.637  12.034  17.926  0.00  0.00    +0.000 N 
ATOM     32  H   UNL     1      -5.382  11.396  18.180  0.00  0.00    +0.000 HD
ATOM     33  H   UNL     1      -4.888  12.984  18.177  0.00  0.00    +0.000 HD
ENDBRANCH  27  31
ENDBRANCH  22  23
ENDBRANCH   6  22
TORSDOF 7
ENDMDL
MODEL 4
REMARK VINA RESULT:      -8.4      2.538     10.552
REMARK  Name = 
REMARK  11 active torsions:
REMARK  status: ('A' for Active; 'I' for Inactive)
REMARK    1  A    between atoms: C_1  and  C_2
REMARK    2  A    between atoms: C_2  and  C_4
REMARK    3  A    between atoms: C_7  and  O_8
REMARK    4  A    between atoms: O_8  and  C_9
REMARK    5  A    between atoms: C_9  and  C_10
REMARK    6  A    between atoms: C_15  and  O_16
REMARK    7  A    between atoms: O_16  and  C_17
REMARK    8  A    between atoms: C_19  and  C_20
REMARK    9  A    between atoms: C_21  and  N_22
REMARK   10  A    between atoms: C_23  and  C_24
REMARK   11  A    between atoms: N_28  and  C_29
REMARK                            x       y       z     vdW  Elec       q    Type
REMARK                         _______ _______ _______ _____ _____    ______ ____
ROOT
ATOM      1  C   UNL     1       2.975   5.568  18.988  0.00  0.00    +0.000 A 
ATOM      2  N   UNL     1       2.337   5.679  20.138  0.00  0.00    +0.000 NA
ATOM      3  C   UNL     1       1.871   6.962  20.186  0.00  0.00    +0.000 A 
ATOM      4  C   UNL     1       1.130   7.586  21.198  0.00  0.00    +0.000 A 
ATOM      5  C   UNL     1       0.701   8.902  21.004  0.00  0.00    +0.000 A 
ATOM      6  C   UNL     1       0.980   9.579  19.814  0.00  0.00    +0.000 A 
ATOM      7  C   UNL     1       1.766   8.987  18.807  0.00  0.00    +0.000 A 
ATOM      8  C   UNL     1       2.209   7.669  19.034  0.00  0.00    +0.000 A 
ATOM      9  N   UNL     1       3.023   6.790  18.348  0.00  0.00    +0.000 N 
ATOM     10  C   UNL     1       3.871   7.111  17.224  0.00  0.00    +0.000 C 
ENDROOT
BRANCH   1  11
ATOM     11  C   UNL     1       3.470   4.270  18.425  0.00  0.00    +0.000 C 
BRANCH  11  12
ATOM     12  O   UNL     1       4.899   4.288  18.408  0.00  0.00    +0.000 OA
BRANCH  12  16
ATOM     13  C   UNL     1       6.832   4.691  14.711  0.00  0.00    +0.000 A 
ATOM     14  C   UNL     1       7.458   5.021  15.917  0.00  0.00    +0.000 A 
ATOM     15  C   UNL     1       6.777   4.857  17.133  0.00  0.00    +0.000 A 
ATOM     16  C   UNL     1       5.465   4.378  17.161  0.00  0.00    +0.000 A 
ATOM     17  C   UNL     1       4.857   4.006  15.960  0.00  0.00    +0.000 A 
ATOM     18  C   UNL     1       5.532   4.167  14.742  0.00  0.00    +0.000 A 
BRANCH  13  20
ATOM     19  C   UNL     1       7.054   4.020  12.222  0.00  0.00    +0.000 C 
ATOM     20  C   UNL     1       7.492   4.878  13.381  0.00  0.00    +0.000 C 
ATOM     21  O   UNL     1       8.372   5.722  13.250  0.00  0.00    +0.000 OA
ENDBRANCH  13  20
ENDBRANCH  12  16
ENDBRANCH  11  12
ENDBRANCH   1  11
BRANCH   6  22
ATOM     22  O   UNL     1       0.539  10.886  19.776  0.00  0.00    +0.000 OA
BRANCH  22  23
ATOM     23  C   UNL     1      -0.746  11.175  19.385  0.00  0.00    +0.000 A 
ATOM     24  C   UNL     1      -1.607  12.031  20.058  0.00  0.00    +0.000 A 
ATOM     25  C   UNL     1      -2.918  12.237  19.591  0.00  0.00    +0.000 A 
ATOM     26  C   UNL     1      -3.861  13.036  20.451  0.00  0.00    +0.000 C 
ATOM     27  C   UNL     1      -3.332  11.677  18.358  0.00  0.00    +0.000 A 
ATOM     28  C   UNL     1      -2.463  10.792  17.688  0.00  0.00    +0.000 A 
ATOM     29  C   UNL     1      -2.845  10.006  16.460  0.00  0.00    +0.000 C 
ATOM     30  C   UNL     1      -1.168  10.577  18.198  0.00  0.00    +0.000 A 
BRANCH  27  31
ATOM     31  N   UNL     1      -4.667  11.833  17.936  0.00  0.00    +0.000 N 
ATOM     32  H   UNL     1      -4.929  11.200  17.188  0.00  0.00    +0.000 HD
ATOM     33  H   UNL     1      -5.338  11.778  18.693  0.00  0.00    +0.000 HD
ENDBRANCH  27  31
ENDBRANCH  22  23
ENDBRANCH   6  22
TORSDOF 7
ENDMDL
MODEL 5
REMARK VINA RESULT:      -8.4      2.197     10.775
REMARK  Name = 
REMARK  11 active torsions:
REMARK  status: ('A' for Active; 'I' for Inactive)
REMARK    1  A    between atoms: C_1  and  C_2
REMARK    2  A    between atoms: C_2  and  C_4
REMARK    3  A    between atoms: C_7  and  O_8
REMARK    4  A    between atoms: O_8  and  C_9
REMARK    5  A    between atoms: C_9  and  C_10
REMARK    6  A    between atoms: C_15  and  O_16
REMARK    7  A    between atoms: O_16  and  C_17
REMARK    8  A    between atoms: C_19  and  C_20
REMARK    9  A    between atoms: C_21  and  N_22
REMARK   10  A    between atoms: C_23  and  C_24
REMARK   11  A    between atoms: N_28  and  C_29
REMARK                            x       y       z     vdW  Elec       q    Type
REMARK                         _______ _______ _______ _____ _____    ______ ____
ROOT
ATOM      1  C   UNL     1       2.138   7.010  19.789  0.00  0.00    +0.000 A 
ATOM      2  N   UNL     1       1.698   7.213  21.017  0.00  0.00    +0.000 NA
ATOM      3  C   UNL     1       1.091   8.436  21.000  0.00  0.00    +0.000 A 
ATOM      4  C   UNL     1       0.463   9.116  22.053  0.00  0.00    +0.000 A 
ATOM      5  C   UNL     1      -0.153  10.342  21.789  0.00  0.00    +0.000 A 
ATOM      6  C   UNL     1      -0.168  10.874  20.497  0.00  0.00    +0.000 A 
ATOM      7  C   UNL     1       0.500  10.232  19.438  0.00  0.00    +0.000 A 
ATOM      8  C   UNL     1       1.136   9.009  19.731  0.00  0.00    +0.000 A 
ATOM      9  N   UNL     1       1.923   8.131  19.013  0.00  0.00    +0.000 N 
ATOM     10  C   UNL     1       2.519   8.378  17.721  0.00  0.00    +0.000 C 
ENDROOT
BRANCH   1  11
ATOM     11  C   UNL     1       2.685   5.704  19.299  0.00  0.00    +0.000 C 
BRANCH  11  12
ATOM     12  O   UNL     1       4.114   5.759  19.333  0.00  0.00    +0.000 OA
BRANCH  12  16
ATOM     13  C   UNL     1       6.120   5.045  15.723  0.00  0.00    +0.000 A 
ATOM     14  C   UNL     1       6.360   6.187  16.494  0.00  0.00    +0.000 A 
ATOM     15  C   UNL     1       5.675   6.378  17.703  0.00  0.00    +0.000 A 
ATOM     16  C   UNL     1       4.736   5.446  18.151  0.00  0.00    +0.000 A 
ATOM     17  C   UNL     1       4.530   4.284  17.403  0.00  0.00    +0.000 A 
ATOM     18  C   UNL     1       5.212   4.088  16.194  0.00  0.00    +0.000 A 
BRANCH  13  20
ATOM     19  C   UNL     1       6.182   3.813  13.449  0.00  0.00    +0.000 C 
ATOM     20  C   UNL     1       6.791   4.804  14.408  0.00  0.00    +0.000 C 
ATOM     21  O   UNL     1       7.819   5.411  14.126  0.00  0.00    +0.000 OA
ENDBRANCH  13  20
ENDBRANCH  12  16
ENDBRANCH  11  12
ENDBRANCH   1  11
BRANCH   6  22
ATOM     22  O   UNL     1      -0.768  12.113  20.389  0.00  0.00    +0.000 OA
BRANCH  22  23
ATOM     23  C   UNL     1      -2.111  12.212  20.115  0.00  0.00    +0.000 A 
ATOM     24  C   UNL     1      -2.715  11.785  18.940  0.00  0.00    +0.000 A 
ATOM     25  C   UNL     1      -4.097  11.960  18.745  0.00  0.00    +0.000 A 
ATOM     26  C   UNL     1      -4.668  11.637  17.389  0.00  0.00    +0.000 C 
ATOM     27  C   UNL     1      -4.909  12.454  19.794  0.00  0.00    +0.000 A 
ATOM     28  C   UNL     1      -4.290  12.907  20.976  0.00  0.00    +0.000 A 
ATOM     29  C   UNL     1      -5.021  13.603  22.095  0.00  0.00    +0.000 C 
ATOM     30  C   UNL     1      -2.899  12.751  21.132  0.00  0.00    +0.000 A 
BRANCH  27  31
ATOM     31  N   UNL     1      -6.279  12.690  19.561  0.00  0.00    +0.000 N 
ATOM     32  H   UNL     1      -6.820  12.784  20.413  0.00  0.00    +0.000 HD
ATOM     33  H   UNL     1      -6.454  13.476  18.946  0.00  0.00    +0.000 HD
ENDBRANCH  27  31
ENDBRANCH  22  23
ENDBRANCH   6  22
TORSDOF 7
ENDMDL
MODEL 6
REMARK VINA RESULT:      -8.4      2.338      3.608
REMARK  Name = 
REMARK  11 active torsions:
REMARK  status: ('A' for Active; 'I' for Inactive)
REMARK    1  A    between atoms: C_1  and  C_2
REMARK    2  A    between atoms: C_2  and  C_4
REMARK    3  A    between atoms: C_7  and  O_8
REMARK    4  A    between atoms: O_8  and  C_9
REMARK    5  A    between atoms: C_9  and  C_10
REMARK    6  A    between atoms: C_15  and  O_16
REMARK    7  A    between atoms: O_16  and  C_17
REMARK    8  A    between atoms: C_19  and  C_20
REMARK    9  A    between atoms: C_21  and  N_22
REMARK   10  A    between atoms: C_23  and  C_24
REMARK   11  A    between atoms: N_28  and  C_29
REMARK                            x       y       z     vdW  Elec       q    Type
REMARK                         _______ _______ _______ _____ _____    ______ ____
ROOT
ATOM      1  C   UNL     1       1.205   9.171  20.232  0.00  0.00    +0.000 A 
ATOM      2  N   UNL     1       1.069   8.147  21.055  0.00  0.00    +0.000 NA
ATOM      3  C   UNL     1       1.648   7.082  20.427  0.00  0.00    +0.000 A 
ATOM      4  C   UNL     1       1.767   5.760  20.876  0.00  0.00    +0.000 A 
ATOM      5  C   UNL     1       2.463   4.841  20.087  0.00  0.00    +0.000 A 
ATOM      6  C   UNL     1       3.053   5.232  18.882  0.00  0.00    +0.000 A 
ATOM      7  C   UNL     1       2.901   6.542  18.389  0.00  0.00    +0.000 A 
ATOM      8  C   UNL     1       2.175   7.447  19.190  0.00  0.00    +0.000 A 
ATOM      9  N   UNL     1       1.763   8.755  19.040  0.00  0.00    +0.000 N 
ATOM     10  C   UNL     1       1.797   9.528  17.821  0.00  0.00    +0.000 C 
ENDROOT
BRANCH   1  11
ATOM     11  C   UNL     1       0.899  10.590  20.602  0.00  0.00    +0.000 C 
BRANCH  11  12
ATOM     12  O   UNL     1      -0.403  10.924  20.115  0.00  0.00    +0.000 OA
BRANCH  12  16
ATOM     13  C   UNL     1      -2.915  12.373  23.142  0.00  0.00    +0.000 A 
ATOM     14  C   UNL     1      -1.923  11.419  23.391  0.00  0.00    +0.000 A 
ATOM     15  C   UNL     1      -1.096  10.972  22.350  0.00  0.00    +0.000 A 
ATOM     16  C   UNL     1      -1.254  11.458  21.049  0.00  0.00    +0.000 A 
ATOM     17  C   UNL     1      -2.214  12.444  20.811  0.00  0.00    +0.000 A 
ATOM     18  C   UNL     1      -3.043  12.894  21.848  0.00  0.00    +0.000 A 
BRANCH  13  20
ATOM     19  C   UNL     1      -3.859  14.327  24.549  0.00  0.00    +0.000 C 
ATOM     20  C   UNL     1      -3.851  12.860  24.202  0.00  0.00    +0.000 C 
ATOM     21  O   UNL     1      -4.596  12.068  24.770  0.00  0.00    +0.000 OA
ENDBRANCH  13  20
ENDBRANCH  12  16
ENDBRANCH  11  12
ENDBRANCH   1  11
BRANCH   6  22
ATOM     22  O   UNL     1       3.667   4.213  18.182  0.00  0.00    +0.000 OA
BRANCH  22  23
ATOM     23  C   UNL     1       4.641   4.497  17.255  0.00  0.00    +0.000 A 
ATOM     24  C   UNL     1       4.707   3.950  15.980  0.00  0.00    +0.000 A 
ATOM     25  C   UNL     1       5.765   4.284  15.115  0.00  0.00    +0.000 A 
ATOM     26  C   UNL     1       5.882   3.534  13.814  0.00  0.00    +0.000 C 
ATOM     27  C   UNL     1       6.703   5.278  15.485  0.00  0.00    +0.000 A 
ATOM     28  C   UNL     1       6.646   5.814  16.788  0.00  0.00    +0.000 A 
ATOM     29  C   UNL     1       7.679   6.752  17.357  0.00  0.00    +0.000 C 
ATOM     30  C   UNL     1       5.595   5.436  17.645  0.00  0.00    +0.000 A 
BRANCH  27  31
ATOM     31  N   UNL     1       7.797   5.552  14.640  0.00  0.00    +0.000 N 
ATOM     32  H   UNL     1       8.328   4.725  14.390  0.00  0.00    +0.000 HD
ATOM     33  H   UNL     1       7.544   6.071  13.808  0.00  0.00    +0.000 HD
ENDBRANCH  27  31
ENDBRANCH  22  23
ENDBRANCH   6  22
TORSDOF 7
ENDMDL
MODEL 7
REMARK VINA RESULT:      -8.4      0.522      1.883
REMARK  Name = 
REMARK  11 active torsions:
REMARK  status: ('A' for Active; 'I' for Inactive)
REMARK    1  A    between atoms: C_1  and  C_2
REMARK    2  A    between atoms: C_2  and  C_4
REMARK    3  A    between atoms: C_7  and  O_8
REMARK    4  A    between atoms: O_8  and  C_9
REMARK    5  A    between atoms: C_9  and  C_10
REMARK    6  A    between atoms: C_15  and  O_16
REMARK    7  A    between atoms: O_16  and  C_17
REMARK    8  A    between atoms: C_19  and  C_20
REMARK    9  A    between atoms: C_21  and  N_22
REMARK   10  A    between atoms: C_23  and  C_24
REMARK   11  A    between atoms: N_28  and  C_29
REMARK                            x       y       z     vdW  Elec       q    Type
REMARK                         _______ _______ _______ _____ _____    ______ ____
ROOT
ATOM      1  C   UNL     1       0.576  10.689  20.605  0.00  0.00    +0.000 A 
ATOM      2  N   UNL     1       1.006  10.647  19.357  0.00  0.00    +0.000 NA
ATOM      3  C   UNL     1       1.534   9.399  19.184  0.00  0.00    +0.000 A 
ATOM      4  C   UNL     1       2.124   8.850  18.038  0.00  0.00    +0.000 A 
ATOM      5  C   UNL     1       2.542   7.517  18.070  0.00  0.00    +0.000 A 
ATOM      6  C   UNL     1       2.357   6.734  19.211  0.00  0.00    +0.000 A 
ATOM      7  C   UNL     1       1.813   7.282  20.389  0.00  0.00    +0.000 A 
ATOM      8  C   UNL     1       1.420   8.634  20.343  0.00  0.00    +0.000 A 
ATOM      9  N   UNL     1       0.921   9.528  21.268  0.00  0.00    +0.000 N 
ATOM     10  C   UNL     1       0.871   9.339  22.699  0.00  0.00    +0.000 C 
ENDROOT
BRANCH   1  11
ATOM     11  C   UNL     1      -0.262  11.797  21.167  0.00  0.00    +0.000 C 
BRANCH  11  12
ATOM     12  O   UNL     1      -0.762  12.591  20.088  0.00  0.00    +0.000 OA
BRANCH  12  16
ATOM     13  C   UNL     1      -4.887  12.158  19.480  0.00  0.00    +0.000 A 
ATOM     14  C   UNL     1      -4.365  12.820  20.596  0.00  0.00    +0.000 A 
ATOM     15  C   UNL     1      -2.977  12.953  20.752  0.00  0.00    +0.000 A 
ATOM     16  C   UNL     1      -2.095  12.419  19.810  0.00  0.00    +0.000 A 
ATOM     17  C   UNL     1      -2.618  11.798  18.673  0.00  0.00    +0.000 A 
ATOM     18  C   UNL     1      -4.004  11.663  18.512  0.00  0.00    +0.000 A 
BRANCH  13  20
ATOM     19  C   UNL     1      -6.826  10.706  18.573  0.00  0.00    +0.000 C 
ATOM     20  C   UNL     1      -6.355  11.953  19.277  0.00  0.00    +0.000 C 
ATOM     21  O   UNL     1      -7.151  12.792  19.685  0.00  0.00    +0.000 OA
ENDBRANCH  13  20
ENDBRANCH  12  16
ENDBRANCH  11  12
ENDBRANCH   1  11
BRANCH   6  22
ATOM     22  O   UNL     1       2.860   5.452  19.121  0.00  0.00    +0.000 OA
BRANCH  22  23
ATOM     23  C   UNL     1       4.058   5.218  18.489  0.00  0.00    +0.000 A 
ATOM     24  C   UNL     1       4.191   4.751  17.189  0.00  0.00    +0.000 A 
ATOM     25  C   UNL     1       5.466   4.516  16.643  0.00  0.00    +0.000 A 
ATOM     26  C   UNL     1       5.549   3.849  15.295  0.00  0.00    +0.000 C 
ATOM     27  C   UNL     1       6.629   4.876  17.366  0.00  0.00    +0.000 A 
ATOM     28  C   UNL     1       6.490   5.329  18.693  0.00  0.00    +0.000 A 
ATOM     29  C   UNL     1       7.651   5.586  19.620  0.00  0.00    +0.000 C 
ATOM     30  C   UNL     1       5.202   5.523  19.227  0.00  0.00    +0.000 A 
BRANCH  27  31
ATOM     31  N   UNL     1       7.899   4.571  16.838  0.00  0.00    +0.000 N 
ATOM     32  H   UNL     1       8.327   5.347  16.345  0.00  0.00    +0.000 HD
ATOM     33  H   UNL     1       8.542   4.194  17.525  0.00  0.00    +0.000 HD
ENDBRANCH  27  31
ENDBRANCH  22  23
ENDBRANCH   6  22
TORSDOF 7
ENDMDL
MODEL 8
REMARK VINA RESULT:      -8.3      1.489      1.887
REMARK  Name = 
REMARK  11 active torsions:
REMARK  status: ('A' for Active; 'I' for Inactive)
REMARK    1  A    between atoms: C_1  and  C_2
REMARK    2  A    between atoms: C_2  and  C_4
REMARK    3  A    between atoms: C_7  and  O_8
REMARK    4  A    between atoms: O_8  and  C_9
REMARK    5  A    between atoms: C_9  and  C_10
REMARK    6  A    between atoms: C_15  and  O_16
REMARK    7  A    between atoms: O_16  and  C_17
REMARK    8  A    between atoms: C_19  and  C_20
REMARK    9  A    between atoms: C_21  and  N_22
REMARK   10  A    between atoms: C_23  and  C_24
REMARK   11  A    between atoms: N_28  and  C_29
REMARK                            x       y       z     vdW  Elec       q    Type
REMARK                         _______ _______ _______ _____ _____    ______ ____
ROOT
ATOM      1  C   UNL     1       0.548  10.629  20.484  0.00  0.00    +0.000 A 
ATOM      2  N   UNL     1       0.999  10.607  19.243  0.00  0.00    +0.000 NA
ATOM      3  C   UNL     1       1.538   9.366  19.061  0.00  0.00    +0.000 A 
ATOM      4  C   UNL     1       2.150   8.836  17.916  0.00  0.00    +0.000 A 
ATOM      5  C   UNL     1       2.576   7.506  17.936  0.00  0.00    +0.000 A 
ATOM      6  C   UNL     1       2.376   6.705  19.063  0.00  0.00    +0.000 A 
ATOM      7  C   UNL     1       1.809   7.232  20.239  0.00  0.00    +0.000 A 
ATOM      8  C   UNL     1       1.408   8.583  20.206  0.00  0.00    +0.000 A 
ATOM      9  N   UNL     1       0.889   9.460  21.136  0.00  0.00    +0.000 N 
ATOM     10  C   UNL     1       0.817   9.250  22.563  0.00  0.00    +0.000 C 
ENDROOT
BRANCH   1  11
ATOM     11  C   UNL     1      -0.306  11.723  21.047  0.00  0.00    +0.000 C 
BRANCH  11  12
ATOM     12  O   UNL     1      -1.354  12.016  20.120  0.00  0.00    +0.000 OA
BRANCH  12  16
ATOM     13  C   UNL     1      -4.932  12.942  22.096  0.00  0.00    +0.000 A 
ATOM     14  C   UNL     1      -3.717  12.816  22.778  0.00  0.00    +0.000 A 
ATOM     15  C   UNL     1      -2.542  12.518  22.073  0.00  0.00    +0.000 A 
ATOM     16  C   UNL     1      -2.563  12.329  20.689  0.00  0.00    +0.000 A 
ATOM     17  C   UNL     1      -3.768  12.500  20.004  0.00  0.00    +0.000 A 
ATOM     18  C   UNL     1      -4.946  12.798  20.703  0.00  0.00    +0.000 A 
BRANCH  13  20
ATOM     19  C   UNL     1      -7.416  12.345  22.505  0.00  0.00    +0.000 C 
ATOM     20  C   UNL     1      -6.225  13.222  22.796  0.00  0.00    +0.000 C 
ATOM     21  O   UNL     1      -6.300  14.151  23.593  0.00  0.00    +0.000 OA
ENDBRANCH  13  20
ENDBRANCH  12  16
ENDBRANCH  11  12
ENDBRANCH   1  11
BRANCH   6  22
ATOM     22  O   UNL     1       2.888   5.427  18.963  0.00  0.00    +0.000 OA
BRANCH  22  23
ATOM     23  C   UNL     1       4.155   5.223  18.469  0.00  0.00    +0.000 A 
ATOM     24  C   UNL     1       5.328   5.454  19.175  0.00  0.00    +0.000 A 
ATOM     25  C   UNL     1       6.579   5.241  18.568  0.00  0.00    +0.000 A 
ATOM     26  C   UNL     1       7.813   5.669  19.317  0.00  0.00    +0.000 C 
ATOM     27  C   UNL     1       6.657   4.666  17.277  0.00  0.00    +0.000 A 
ATOM     28  C   UNL     1       5.465   4.454  16.555  0.00  0.00    +0.000 A 
ATOM     29  C   UNL     1       5.421   4.004  15.117  0.00  0.00    +0.000 C 
ATOM     30  C   UNL     1       4.226   4.708  17.175  0.00  0.00    +0.000 A 
BRANCH  27  31
ATOM     31  N   UNL     1       7.912   4.524  16.653  0.00  0.00    +0.000 N 
ATOM     32  H   UNL     1       8.655   4.279  17.297  0.00  0.00    +0.000 HD
ATOM     33  H   UNL     1       7.901   3.882  15.868  0.00  0.00    +0.000 HD
ENDBRANCH  27  31
ENDBRANCH  22  23
ENDBRANCH   6  22
TORSDOF 7
ENDMDL
MODEL 9
REMARK VINA RESULT:      -8.3      2.677     10.428
REMARK  Name = 
REMARK  11 active torsions:
REMARK  status: ('A' for Active; 'I' for Inactive)
REMARK    1  A    between atoms: C_1  and  C_2
REMARK    2  A    between atoms: C_2  and  C_4
REMARK    3  A    between atoms: C_7  and  O_8
REMARK    4  A    between atoms: O_8  and  C_9
REMARK    5  A    between atoms: C_9  and  C_10
REMARK    6  A    between atoms: C_15  and  O_16
REMARK    7  A    between atoms: O_16  and  C_17
REMARK    8  A    between atoms: C_19  and  C_20
REMARK    9  A    between atoms: C_21  and  N_22
REMARK   10  A    between atoms: C_23  and  C_24
REMARK   11  A    between atoms: N_28  and  C_29
REMARK                            x       y       z     vdW  Elec       q    Type
REMARK                         _______ _______ _______ _____ _____    ______ ____
ROOT
ATOM      1  C   UNL     1       3.479   5.576  18.691  0.00  0.00    +0.000 A 
ATOM      2  N   UNL     1       3.399   6.563  17.817  0.00  0.00    +0.000 NA
ATOM      3  C   UNL     1       2.634   7.527  18.409  0.00  0.00    +0.000 A 
ATOM      4  C   UNL     1       2.249   8.774  17.898  0.00  0.00    +0.000 A 
ATOM      5  C   UNL     1       1.510   9.636  18.714  0.00  0.00    +0.000 A 
ATOM      6  C   UNL     1       1.180   9.277  20.023  0.00  0.00    +0.000 A 
ATOM      7  C   UNL     1       1.513   8.009  20.536  0.00  0.00    +0.000 A 
ATOM      8  C   UNL     1       2.238   7.146  19.689  0.00  0.00    +0.000 A 
ATOM      9  N   UNL     1       2.685   5.845  19.788  0.00  0.00    +0.000 N 
ATOM     10  C   UNL     1       2.304   4.884  20.797  0.00  0.00    +0.000 C 
ENDROOT
BRANCH   1  11
ATOM     11  C   UNL     1       4.392   4.398  18.545  0.00  0.00    +0.000 C 
BRANCH  11  12
ATOM     12  O   UNL     1       5.676   4.858  18.115  0.00  0.00    +0.000 OA
BRANCH  12  16
ATOM     13  C   UNL     1       6.289   4.127  14.033  0.00  0.00    +0.000 A 
ATOM     14  C   UNL     1       5.174   3.633  14.718  0.00  0.00    +0.000 A 
ATOM     15  C   UNL     1       5.003   3.914  16.082  0.00  0.00    +0.000 A 
ATOM     16  C   UNL     1       5.942   4.676  16.781  0.00  0.00    +0.000 A 
ATOM     17  C   UNL     1       7.032   5.206  16.086  0.00  0.00    +0.000 A 
ATOM     18  C   UNL     1       7.208   4.929  14.723  0.00  0.00    +0.000 A 
BRANCH  13  20
ATOM     19  C   UNL     1       5.654   2.846  11.877  0.00  0.00    +0.000 C 
ATOM     20  C   UNL     1       6.546   3.831  12.590  0.00  0.00    +0.000 C 
ATOM     21  O   UNL     1       7.470   4.388  12.006  0.00  0.00    +0.000 OA
ENDBRANCH  13  20
ENDBRANCH  12  16
ENDBRANCH  11  12
ENDBRANCH   1  11
BRANCH   6  22
ATOM     22  O   UNL     1       0.408  10.200  20.698  0.00  0.00    +0.000 OA
BRANCH  22  23
ATOM     23  C   UNL     1      -0.707  10.742  20.103  0.00  0.00    +0.000 A 
ATOM     24  C   UNL     1      -1.392  11.857  20.568  0.00  0.00    +0.000 A 
ATOM     25  C   UNL     1      -2.542  12.316  19.901  0.00  0.00    +0.000 A 
ATOM     26  C   UNL     1      -3.342  13.419  20.543  0.00  0.00    +0.000 C 
ATOM     27  C   UNL     1      -2.940  11.726  18.677  0.00  0.00    +0.000 A 
ATOM     28  C   UNL     1      -2.256  10.582  18.220  0.00  0.00    +0.000 A 
ATOM     29  C   UNL     1      -2.682   9.768  17.025  0.00  0.00    +0.000 C 
ATOM     30  C   UNL     1      -1.127  10.123  18.926  0.00  0.00    +0.000 A 
BRANCH  27  31
ATOM     31  N   UNL     1      -4.133  12.149  18.056  0.00  0.00    +0.000 N 
ATOM     32  H   UNL     1      -4.969  11.812  18.521  0.00  0.00    +0.000 HD
ATOM     33  H   UNL     1      -4.185  13.152  17.924  0.00  0.00    +0.000 HD
ENDBRANCH  27  31
ENDBRANCH  22  23
ENDBRANCH   6  22
TORSDOF 7
ENDMDL
