MODEL 1
REMARK VINA RESULT:      -7.8      0.000      0.000
REMARK  Name = 
REMARK  6 active torsions:
REMARK  status: ('A' for Active; 'I' for Inactive)
REMARK    1  A    between atoms: C_1  and  N_2
REMARK    2  A    between atoms: C_6  and  C_7
REMARK    3  A    between atoms: C_7  and  C_8
REMARK    4  A    between atoms: C_13  and  C_14
REMARK    5  A    between atoms: C_18  and  C_19
REMARK    6  A    between atoms: N_30  and  C_31
REMARK                            x       y       z     vdW  Elec       q    Type
REMARK                         _______ _______ _______ _____ _____    ______ ____
ROOT
ATOM      1  C   UNL     1       0.792   9.855  21.901  0.00  0.00    +0.000 C 
ATOM      2  O   UNL     1       1.689   9.340  22.580  0.00  0.00    +0.000 OA
ATOM      3  N   UNL     1       0.412  11.139  22.198  0.00  0.00    +0.000 N 
ATOM      4  C   UNL     1      -0.580  11.814  21.553  0.00  0.00    +0.000 A 
ATOM      5  N   UNL     1      -1.417  11.330  20.677  0.00  0.00    +0.000 NA
ATOM      6  C   UNL     1      -2.181  12.334  20.133  0.00  0.00    +0.000 A 
ATOM      7  C   UNL     1      -1.906  13.594  20.629  0.00  0.00    +0.000 A 
ATOM      8  S   UNL     1      -0.709  13.479  21.873  0.00  0.00    +0.000 S 
ATOM      9  H   UNL     1       0.913  11.602  22.943  0.00  0.00    +0.000 HD
ENDROOT
BRANCH   6  10
ATOM     10  C   UNL     1      -3.162  11.997  19.119  0.00  0.00    +0.000 A 
ATOM     11  C   UNL     1      -4.519  12.278  19.354  0.00  0.00    +0.000 A 
ATOM     12  C   UNL     1      -5.492  11.967  18.404  0.00  0.00    +0.000 A 
ATOM     13  C   UNL     1      -5.120  11.359  17.208  0.00  0.00    +0.000 A 
ATOM     14  C   UNL     1      -3.775  11.042  16.963  0.00  0.00    +0.000 A 
ATOM     15  C   UNL     1      -2.813  11.361  17.924  0.00  0.00    +0.000 A 
ATOM     16  F   UNL     1      -1.534  11.027  17.691  0.00  0.00    +0.000 F 
BRANCH  14  17
ATOM     17  C   UNL     1      -3.337  10.379  15.693  0.00  0.00    +0.000 C 
ATOM     18  F   UNL     1      -4.374  10.123  14.843  0.00  0.00    +0.000 F 
ATOM     19  F   UNL     1      -2.461  11.138  14.980  0.00  0.00    +0.000 F 
ATOM     20  F   UNL     1      -2.729   9.179  15.899  0.00  0.00    +0.000 F 
ENDBRANCH  14  17
ENDBRANCH   6  10
BRANCH   1  21
ATOM     21  C   UNL     1       0.170   9.090  20.731  0.00  0.00    +0.000 C 
BRANCH  21  27
ATOM     22  C   UNL     1       2.955   4.122  20.306  0.00  0.00    +0.000 C 
ATOM     23  N   UNL     1       2.859   5.418  19.660  0.00  0.00    +0.000 N 
ATOM     24  C   UNL     1       1.988   6.378  20.199  0.00  0.00    +0.000 A 
ATOM     25  O   UNL     1       1.327   6.216  21.214  0.00  0.00    +0.000 OA
ATOM     26  C   UNL     1       1.942   7.607  19.454  0.00  0.00    +0.000 A 
ATOM     27  C   UNL     1       1.150   8.810  19.629  0.00  0.00    +0.000 A 
ATOM     28  N   UNL     1       1.366   9.761  18.707  0.00  0.00    +0.000 NA
ATOM     29  S   UNL     1       2.519   9.262  17.646  0.00  0.00    +0.000 S 
ATOM     30  C   UNL     1       2.739   7.747  18.348  0.00  0.00    +0.000 A 
ATOM     31  N   UNL     1       3.617   6.804  17.858  0.00  0.00    +0.000 N 
ATOM     32  C   UNL     1       4.457   6.954  16.682  0.00  0.00    +0.000 C 
ATOM     33  C   UNL     1       3.673   5.583  18.528  0.00  0.00    +0.000 A 
ATOM     34  O   UNL     1       4.424   4.679  18.140  0.00  0.00    +0.000 OA
ENDBRANCH  21  27
ENDBRANCH   1  21
TORSDOF 4
ENDMDL
MODEL 2
REMARK VINA RESULT:      -7.6      4.265      8.606
REMARK  Name = 
REMARK  6 active torsions:
REMARK  status: ('A' for Active; 'I' for Inactive)
REMARK    1  A    between atoms: C_1  and  N_2
REMARK    2  A    between atoms: C_6  and  C_7
REMARK    3  A    between atoms: C_7  and  C_8
REMARK    4  A    between atoms: C_13  and  C_14
REMARK    5  A    between atoms: C_18  and  C_19
REMARK    6  A    between atoms: N_30  and  C_31
REMARK                            x       y       z     vdW  Elec       q    Type
REMARK                         _______ _______ _______ _____ _____    ______ ____
ROOT
ATOM      1  C   UNL     1       2.165   9.925  18.157  0.00  0.00    +0.000 C 
ATOM      2  O   UNL     1       2.097  11.155  18.036  0.00  0.00    +0.000 OA
ATOM      3  N   UNL     1       3.133   9.258  17.451  0.00  0.00    +0.000 N 
ATOM      4  C   UNL     1       3.300   7.905  17.469  0.00  0.00    +0.000 A 
ATOM      5  N   UNL     1       2.509   7.024  18.015  0.00  0.00    +0.000 NA
ATOM      6  C   UNL     1       3.070   5.771  17.960  0.00  0.00    +0.000 A 
ATOM      7  C   UNL     1       4.308   5.726  17.348  0.00  0.00    +0.000 A 
ATOM      8  S   UNL     1       4.721   7.299  16.757  0.00  0.00    +0.000 S 
ATOM      9  H   UNL     1       3.757   9.819  16.890  0.00  0.00    +0.000 HD
ENDROOT
BRANCH   6  10
ATOM     10  C   UNL     1       2.347   4.654  18.537  0.00  0.00    +0.000 A 
ATOM     11  C   UNL     1       1.378   3.990  17.767  0.00  0.00    +0.000 A 
ATOM     12  C   UNL     1       0.660   2.912  18.287  0.00  0.00    +0.000 A 
ATOM     13  C   UNL     1       0.896   2.491  19.593  0.00  0.00    +0.000 A 
ATOM     14  C   UNL     1       1.840   3.157  20.392  0.00  0.00    +0.000 A 
ATOM     15  C   UNL     1       2.550   4.233  19.855  0.00  0.00    +0.000 A 
ATOM     16  F   UNL     1       3.428   4.880  20.637  0.00  0.00    +0.000 F 
BRANCH  14  17
ATOM     17  C   UNL     1       2.116   2.740  21.804  0.00  0.00    +0.000 C 
ATOM     18  F   UNL     1       2.284   3.800  22.647  0.00  0.00    +0.000 F 
ATOM     19  F   UNL     1       1.104   2.005  22.341  0.00  0.00    +0.000 F 
ATOM     20  F   UNL     1       3.245   1.991  21.929  0.00  0.00    +0.000 F 
ENDBRANCH  14  17
ENDBRANCH   6  10
BRANCH   1  21
ATOM     21  C   UNL     1       1.226   9.188  19.114  0.00  0.00    +0.000 C 
BRANCH  21  27
ATOM     22  C   UNL     1      -3.790  11.100  17.164  0.00  0.00    +0.000 C 
ATOM     23  N   UNL     1      -2.902  11.231  18.304  0.00  0.00    +0.000 N 
ATOM     24  C   UNL     1      -1.686  10.529  18.296  0.00  0.00    +0.000 A 
ATOM     25  O   UNL     1      -1.294   9.840  17.366  0.00  0.00    +0.000 OA
ATOM     26  C   UNL     1      -0.907  10.697  19.493  0.00  0.00    +0.000 A 
ATOM     27  C   UNL     1       0.355  10.117  19.911  0.00  0.00    +0.000 A 
ATOM     28  N   UNL     1       0.771  10.499  21.127  0.00  0.00    +0.000 NA
ATOM     29  S   UNL     1      -0.302  11.562  21.779  0.00  0.00    +0.000 S 
ATOM     30  C   UNL     1      -1.378  11.517  20.485  0.00  0.00    +0.000 A 
ATOM     31  N   UNL     1      -2.559  12.229  20.456  0.00  0.00    +0.000 N 
ATOM     32  C   UNL     1      -3.058  13.093  21.512  0.00  0.00    +0.000 C 
ATOM     33  C   UNL     1      -3.364  12.072  19.328  0.00  0.00    +0.000 A 
ATOM     34  O   UNL     1      -4.447  12.663  19.234  0.00  0.00    +0.000 OA
ENDBRANCH  21  27
ENDBRANCH   1  21
TORSDOF 4
ENDMDL
MODEL 3
REMARK VINA RESULT:      -7.3      1.681      2.125
REMARK  Name = 
REMARK  6 active torsions:
REMARK  status: ('A' for Active; 'I' for Inactive)
REMARK    1  A    between atoms: C_1  and  N_2
REMARK    2  A    between atoms: C_6  and  C_7
REMARK    3  A    between atoms: C_7  and  C_8
REMARK    4  A    between atoms: C_13  and  C_14
REMARK    5  A    between atoms: C_18  and  C_19
REMARK    6  A    between atoms: N_30  and  C_31
REMARK                            x       y       z     vdW  Elec       q    Type
REMARK                         _______ _______ _______ _____ _____    ______ ____
ROOT
ATOM      1  C   UNL     1       0.975   9.529  21.760  0.00  0.00    +0.000 C 
ATOM      2  O   UNL     1       1.793   8.992  22.517  0.00  0.00    +0.000 OA
ATOM      3  N   UNL     1       0.662  10.847  21.977  0.00  0.00    +0.000 N 
ATOM      4  C   UNL     1      -0.242  11.552  21.239  0.00  0.00    +0.000 A 
ATOM      5  N   UNL     1      -1.051  11.081  20.331  0.00  0.00    +0.000 NA
ATOM      6  C   UNL     1      -1.713  12.104  19.697  0.00  0.00    +0.000 A 
ATOM      7  C   UNL     1      -1.389  13.366  20.157  0.00  0.00    +0.000 A 
ATOM      8  S   UNL     1      -0.282  13.235  21.480  0.00  0.00    +0.000 S 
ATOM      9  H   UNL     1       1.143  11.312  22.732  0.00  0.00    +0.000 HD
ENDROOT
BRANCH   6  10
ATOM     10  C   UNL     1      -2.648  11.783  18.635  0.00  0.00    +0.000 A 
ATOM     11  C   UNL     1      -2.154  11.410  17.374  0.00  0.00    +0.000 A 
ATOM     12  C   UNL     1      -3.021  11.096  16.327  0.00  0.00    +0.000 A 
ATOM     13  C   UNL     1      -4.398  11.162  16.526  0.00  0.00    +0.000 A 
ATOM     14  C   UNL     1      -4.914  11.559  17.770  0.00  0.00    +0.000 A 
ATOM     15  C   UNL     1      -4.033  11.870  18.808  0.00  0.00    +0.000 A 
ATOM     16  F   UNL     1      -4.538  12.276  19.983  0.00  0.00    +0.000 F 
BRANCH  14  17
ATOM     17  C   UNL     1      -6.389  11.652  18.020  0.00  0.00    +0.000 C 
ATOM     18  F   UNL     1      -6.966  10.436  18.245  0.00  0.00    +0.000 F 
ATOM     19  F   UNL     1      -6.688  12.405  19.114  0.00  0.00    +0.000 F 
ATOM     20  F   UNL     1      -7.074  12.195  16.978  0.00  0.00    +0.000 F 
ENDBRANCH  14  17
ENDBRANCH   6  10
BRANCH   1  21
ATOM     21  C   UNL     1       0.380   8.751  20.584  0.00  0.00    +0.000 C 
BRANCH  21  27
ATOM     22  C   UNL     1       3.144   3.775  20.129  0.00  0.00    +0.000 C 
ATOM     23  N   UNL     1       3.067   5.081  19.502  0.00  0.00    +0.000 N 
ATOM     24  C   UNL     1       2.192   6.037  20.041  0.00  0.00    +0.000 A 
ATOM     25  O   UNL     1       1.512   5.864  21.041  0.00  0.00    +0.000 OA
ATOM     26  C   UNL     1       2.166   7.279  19.315  0.00  0.00    +0.000 A 
ATOM     27  C   UNL     1       1.377   8.484  19.495  0.00  0.00    +0.000 A 
ATOM     28  N   UNL     1       1.615   9.447  18.593  0.00  0.00    +0.000 NA
ATOM     29  S   UNL     1       2.784   8.959  17.544  0.00  0.00    +0.000 S 
ATOM     30  C   UNL     1       2.984   7.432  18.226  0.00  0.00    +0.000 A 
ATOM     31  N   UNL     1       3.865   6.491  17.736  0.00  0.00    +0.000 N 
ATOM     32  C   UNL     1       4.726   6.655  16.578  0.00  0.00    +0.000 C 
ATOM     33  C   UNL     1       3.902   5.259  18.388  0.00  0.00    +0.000 A 
ATOM     34  O   UNL     1       4.655   4.357  17.999  0.00  0.00    +0.000 OA
ENDBRANCH  21  27
ENDBRANCH   1  21
TORSDOF 4
ENDMDL
MODEL 4
REMARK VINA RESULT:      -7.2      4.096      8.821
REMARK  Name = 
REMARK  6 active torsions:
REMARK  status: ('A' for Active; 'I' for Inactive)
REMARK    1  A    between atoms: C_1  and  N_2
REMARK    2  A    between atoms: C_6  and  C_7
REMARK    3  A    between atoms: C_7  and  C_8
REMARK    4  A    between atoms: C_13  and  C_14
REMARK    5  A    between atoms: C_18  and  C_19
REMARK    6  A    between atoms: N_30  and  C_31
REMARK                            x       y       z     vdW  Elec       q    Type
REMARK                         _______ _______ _______ _____ _____    ______ ____
ROOT
ATOM      1  C   UNL     1       2.578   9.026  17.754  0.00  0.00    +0.000 C 
ATOM      2  O   UNL     1       2.291  10.212  17.546  0.00  0.00    +0.000 OA
ATOM      3  N   UNL     1       3.769   8.554  17.265  0.00  0.00    +0.000 N 
ATOM      4  C   UNL     1       4.195   7.265  17.396  0.00  0.00    +0.000 A 
ATOM      5  N   UNL     1       3.509   6.255  17.854  0.00  0.00    +0.000 NA
ATOM      6  C   UNL     1       4.307   5.144  17.974  0.00  0.00    +0.000 A 
ATOM      7  C   UNL     1       5.619   5.338  17.584  0.00  0.00    +0.000 A 
ATOM      8  S   UNL     1       5.811   6.945  16.975  0.00  0.00    +0.000 S 
ATOM      9  H   UNL     1       4.360   9.216  16.784  0.00  0.00    +0.000 HD
ENDROOT
BRANCH   6  10
ATOM     10  C   UNL     1       3.729   3.917  18.489  0.00  0.00    +0.000 A 
ATOM     11  C   UNL     1       3.805   2.744  17.719  0.00  0.00    +0.000 A 
ATOM     12  C   UNL     1       3.259   1.545  18.179  0.00  0.00    +0.000 A 
ATOM     13  C   UNL     1       2.618   1.508  19.415  0.00  0.00    +0.000 A 
ATOM     14  C   UNL     1       2.504   2.673  20.189  0.00  0.00    +0.000 A 
ATOM     15  C   UNL     1       3.057   3.865  19.714  0.00  0.00    +0.000 A 
ATOM     16  F   UNL     1       2.917   4.979  20.449  0.00  0.00    +0.000 F 
BRANCH  14  17
ATOM     17  C   UNL     1       1.813   2.675  21.518  0.00  0.00    +0.000 C 
ATOM     18  F   UNL     1       2.297   3.629  22.366  0.00  0.00    +0.000 F 
ATOM     19  F   UNL     1       0.479   2.923  21.415  0.00  0.00    +0.000 F 
ATOM     20  F   UNL     1       1.936   1.496  22.185  0.00  0.00    +0.000 F 
ENDBRANCH  14  17
ENDBRANCH   6  10
BRANCH   1  21
ATOM     21  C   UNL     1       1.648   8.138  18.583  0.00  0.00    +0.000 C 
BRANCH  21  27
ATOM     22  C   UNL     1      -2.714  11.821  18.437  0.00  0.00    +0.000 C 
ATOM     23  N   UNL     1      -1.759  11.245  19.364  0.00  0.00    +0.000 N 
ATOM     24  C   UNL     1      -0.799  10.345  18.872  0.00  0.00    +0.000 A 
ATOM     25  O   UNL     1      -0.679  10.042  17.694  0.00  0.00    +0.000 OA
ATOM     26  C   UNL     1       0.067   9.804  19.884  0.00  0.00    +0.000 A 
ATOM     27  C   UNL     1       1.132   8.821  19.816  0.00  0.00    +0.000 A 
ATOM     28  N   UNL     1       1.713   8.544  20.993  0.00  0.00    +0.000 NA
ATOM     29  S   UNL     1       1.033   9.452  22.182  0.00  0.00    +0.000 S 
ATOM     30  C   UNL     1      -0.088  10.215  21.182  0.00  0.00    +0.000 A 
ATOM     31  N   UNL     1      -1.013  11.129  21.639  0.00  0.00    +0.000 N 
ATOM     32  C   UNL     1      -1.177  11.558  23.017  0.00  0.00    +0.000 C 
ATOM     33  C   UNL     1      -1.896  11.658  20.698  0.00  0.00    +0.000 A 
ATOM     34  O   UNL     1      -2.767  12.472  21.032  0.00  0.00    +0.000 OA
ENDBRANCH  21  27
ENDBRANCH   1  21
TORSDOF 4
ENDMDL
MODEL 5
REMARK VINA RESULT:      -7.2      3.907      5.958
REMARK  Name = 
REMARK  6 active torsions:
REMARK  status: ('A' for Active; 'I' for Inactive)
REMARK    1  A    between atoms: C_1  and  N_2
REMARK    2  A    between atoms: C_6  and  C_7
REMARK    3  A    between atoms: C_7  and  C_8
REMARK    4  A    between atoms: C_13  and  C_14
REMARK    5  A    between atoms: C_18  and  C_19
REMARK    6  A    between atoms: N_30  and  C_31
REMARK                            x       y       z     vdW  Elec       q    Type
REMARK                         _______ _______ _______ _____ _____    ______ ____
ROOT
ATOM      1  C   UNL     1      -3.384  14.450  24.781  0.00  0.00    +0.000 C 
ATOM      2  O   UNL     1      -2.674  14.872  25.703  0.00  0.00    +0.000 OA
ATOM      3  N   UNL     1      -4.630  14.999  24.620  0.00  0.00    +0.000 N 
ATOM      4  C   UNL     1      -5.523  14.608  23.667  0.00  0.00    +0.000 A 
ATOM      5  N   UNL     1      -5.420  13.582  22.869  0.00  0.00    +0.000 NA
ATOM      6  C   UNL     1      -6.437  13.584  21.946  0.00  0.00    +0.000 A 
ATOM      7  C   UNL     1      -7.321  14.638  22.073  0.00  0.00    +0.000 A 
ATOM      8  S   UNL     1      -6.892  15.594  23.449  0.00  0.00    +0.000 S 
ATOM      9  H   UNL     1      -4.886  15.743  25.253  0.00  0.00    +0.000 HD
ENDROOT
BRANCH   6  10
ATOM     10  C   UNL     1      -6.484  12.528  20.953  0.00  0.00    +0.000 A 
ATOM     11  C   UNL     1      -7.403  11.477  21.109  0.00  0.00    +0.000 A 
ATOM     12  C   UNL     1      -7.477  10.441  20.177  0.00  0.00    +0.000 A 
ATOM     13  C   UNL     1      -6.622  10.440  19.078  0.00  0.00    +0.000 A 
ATOM     14  C   UNL     1      -5.677  11.464  18.915  0.00  0.00    +0.000 A 
ATOM     15  C   UNL     1      -5.616  12.493  19.857  0.00  0.00    +0.000 A 
ATOM     16  F   UNL     1      -4.688  13.452  19.707  0.00  0.00    +0.000 F 
BRANCH  14  17
ATOM     17  C   UNL     1      -4.733  11.492  17.751  0.00  0.00    +0.000 C 
ATOM     18  F   UNL     1      -4.707  10.315  17.061  0.00  0.00    +0.000 F 
ATOM     19  F   UNL     1      -5.058  12.445  16.835  0.00  0.00    +0.000 F 
ATOM     20  F   UNL     1      -3.444  11.731  18.115  0.00  0.00    +0.000 F 
ENDBRANCH  14  17
ENDBRANCH   6  10
BRANCH   1  21
ATOM     21  C   UNL     1      -2.852  13.384  23.821  0.00  0.00    +0.000 C 
BRANCH  21  27
ATOM     22  C   UNL     1       0.873  10.243  20.843  0.00  0.00    +0.000 C 
ATOM     23  N   UNL     1       0.387  11.605  20.955  0.00  0.00    +0.000 N 
ATOM     24  C   UNL     1      -0.580  11.898  21.930  0.00  0.00    +0.000 A 
ATOM     25  O   UNL     1      -1.016  11.087  22.734  0.00  0.00    +0.000 OA
ATOM     26  C   UNL     1      -1.020  13.267  21.923  0.00  0.00    +0.000 A 
ATOM     27  C   UNL     1      -2.024  13.960  22.708  0.00  0.00    +0.000 A 
ATOM     28  N   UNL     1      -2.178  15.256  22.400  0.00  0.00    +0.000 NA
ATOM     29  S   UNL     1      -1.128  15.678  21.207  0.00  0.00    +0.000 S 
ATOM     30  C   UNL     1      -0.463  14.141  21.027  0.00  0.00    +0.000 A 
ATOM     31  N   UNL     1       0.514  13.841  20.102  0.00  0.00    +0.000 N 
ATOM     32  C   UNL     1       1.099  14.770  19.151  0.00  0.00    +0.000 C 
ATOM     33  C   UNL     1       0.950  12.518  20.050  0.00  0.00    +0.000 A 
ATOM     34  O   UNL     1       1.813  12.165  19.235  0.00  0.00    +0.000 OA
ENDBRANCH  21  27
ENDBRANCH   1  21
TORSDOF 4
ENDMDL
MODEL 6
REMARK VINA RESULT:      -7.1      7.393     10.288
REMARK  Name = 
REMARK  6 active torsions:
REMARK  status: ('A' for Active; 'I' for Inactive)
REMARK    1  A    between atoms: C_1  and  N_2
REMARK    2  A    between atoms: C_6  and  C_7
REMARK    3  A    between atoms: C_7  and  C_8
REMARK    4  A    between atoms: C_13  and  C_14
REMARK    5  A    between atoms: C_18  and  C_19
REMARK    6  A    between atoms: N_30  and  C_31
REMARK                            x       y       z     vdW  Elec       q    Type
REMARK                         _______ _______ _______ _____ _____    ______ ____
ROOT
ATOM      1  C   UNL     1       4.369  16.892  19.742  0.00  0.00    +0.000 C 
ATOM      2  O   UNL     1       3.340  17.570  19.630  0.00  0.00    +0.000 OA
ATOM      3  N   UNL     1       5.543  17.415  19.263  0.00  0.00    +0.000 N 
ATOM      4  C   UNL     1       6.741  16.766  19.295  0.00  0.00    +0.000 A 
ATOM      5  N   UNL     1       6.951  15.524  19.632  0.00  0.00    +0.000 NA
ATOM      6  C   UNL     1       8.298  15.259  19.685  0.00  0.00    +0.000 A 
ATOM      7  C   UNL     1       9.105  16.336  19.370  0.00  0.00    +0.000 A 
ATOM      8  S   UNL     1       8.121  17.684  18.916  0.00  0.00    +0.000 S 
ATOM      9  H   UNL     1       5.501  18.343  18.869  0.00  0.00    +0.000 HD
ENDROOT
BRANCH   6  10
ATOM     10  C   UNL     1       8.737  13.929  20.063  0.00  0.00    +0.000 A 
ATOM     11  C   UNL     1       9.162  13.694  21.381  0.00  0.00    +0.000 A 
ATOM     12  C   UNL     1       9.594  12.429  21.783  0.00  0.00    +0.000 A 
ATOM     13  C   UNL     1       9.616  11.383  20.864  0.00  0.00    +0.000 A 
ATOM     14  C   UNL     1       9.223  11.601  19.534  0.00  0.00    +0.000 A 
ATOM     15  C   UNL     1       8.793  12.872  19.149  0.00  0.00    +0.000 A 
ATOM     16  F   UNL     1       8.448  13.076  17.868  0.00  0.00    +0.000 F 
BRANCH  14  17
ATOM     17  C   UNL     1       9.242  10.503  18.515  0.00  0.00    +0.000 C 
ATOM     18  F   UNL     1       9.459   9.273  19.063  0.00  0.00    +0.000 F 
ATOM     19  F   UNL     1       8.068  10.398  17.836  0.00  0.00    +0.000 F 
ATOM     20  F   UNL     1      10.216  10.662  17.578  0.00  0.00    +0.000 F 
ENDBRANCH  14  17
ENDBRANCH   6  10
BRANCH   1  21
ATOM     21  C   UNL     1       4.329  15.535  20.448  0.00  0.00    +0.000 C 
BRANCH  21  27
ATOM     22  C   UNL     1      -0.642  14.231  22.936  0.00  0.00    +0.000 C 
ATOM     23  N   UNL     1       0.150  13.903  21.766  0.00  0.00    +0.000 N 
ATOM     24  C   UNL     1       1.405  14.513  21.609  0.00  0.00    +0.000 A 
ATOM     25  O   UNL     1       1.907  15.277  22.421  0.00  0.00    +0.000 OA
ATOM     26  C   UNL     1       2.084  14.148  20.395  0.00  0.00    +0.000 A 
ATOM     27  C   UNL     1       3.347  14.583  19.829  0.00  0.00    +0.000 A 
ATOM     28  N   UNL     1       3.649  14.031  18.644  0.00  0.00    +0.000 NA
ATOM     29  S   UNL     1       2.467  12.978  18.198  0.00  0.00    +0.000 S 
ATOM     30  C   UNL     1       1.491  13.252  19.544  0.00  0.00    +0.000 A 
ATOM     31  N   UNL     1       0.273  12.636  19.736  0.00  0.00    +0.000 N 
ATOM     32  C   UNL     1      -0.354  11.691  18.828  0.00  0.00    +0.000 C 
ATOM     33  C   UNL     1      -0.437  12.982  20.885  0.00  0.00    +0.000 A 
ATOM     34  O   UNL     1      -1.546  12.485  21.120  0.00  0.00    +0.000 OA
ENDBRANCH  21  27
ENDBRANCH   1  21
TORSDOF 4
ENDMDL
MODEL 7
REMARK VINA RESULT:      -7.0      4.471      7.876
REMARK  Name = 
REMARK  6 active torsions:
REMARK  status: ('A' for Active; 'I' for Inactive)
REMARK    1  A    between atoms: C_1  and  N_2
REMARK    2  A    between atoms: C_6  and  C_7
REMARK    3  A    between atoms: C_7  and  C_8
REMARK    4  A    between atoms: C_13  and  C_14
REMARK    5  A    between atoms: C_18  and  C_19
REMARK    6  A    between atoms: N_30  and  C_31
REMARK                            x       y       z     vdW  Elec       q    Type
REMARK                         _______ _______ _______ _____ _____    ______ ____
ROOT
ATOM      1  C   UNL     1      -1.522  15.052  20.863  0.00  0.00    +0.000 C 
ATOM      2  O   UNL     1      -2.257  15.962  21.265  0.00  0.00    +0.000 OA
ATOM      3  N   UNL     1      -0.495  15.377  20.014  0.00  0.00    +0.000 N 
ATOM      4  C   UNL     1       0.370  14.472  19.473  0.00  0.00    +0.000 A 
ATOM      5  N   UNL     1       0.287  13.172  19.539  0.00  0.00    +0.000 NA
ATOM      6  C   UNL     1       1.409  12.589  19.004  0.00  0.00    +0.000 A 
ATOM      7  C   UNL     1       2.344  13.485  18.522  0.00  0.00    +0.000 A 
ATOM      8  S   UNL     1       1.737  15.097  18.679  0.00  0.00    +0.000 S 
ATOM      9  H   UNL     1      -0.382  16.354  19.788  0.00  0.00    +0.000 HD
ENDROOT
BRANCH   6  10
ATOM     10  C   UNL     1       1.515  11.142  19.003  0.00  0.00    +0.000 A 
ATOM     11  C   UNL     1       1.964  10.486  17.844  0.00  0.00    +0.000 A 
ATOM     12  C   UNL     1       2.077   9.096  17.803  0.00  0.00    +0.000 A 
ATOM     13  C   UNL     1       1.730   8.342  18.921  0.00  0.00    +0.000 A 
ATOM     14  C   UNL     1       1.252   8.973  20.080  0.00  0.00    +0.000 A 
ATOM     15  C   UNL     1       1.146  10.365  20.105  0.00  0.00    +0.000 A 
ATOM     16  F   UNL     1       0.660  10.955  21.209  0.00  0.00    +0.000 F 
BRANCH  14  17
ATOM     17  C   UNL     1       0.860   8.195  21.300  0.00  0.00    +0.000 C 
ATOM     18  F   UNL     1       1.212   6.879  21.225  0.00  0.00    +0.000 F 
ATOM     19  F   UNL     1       1.448   8.666  22.433  0.00  0.00    +0.000 F 
ATOM     20  F   UNL     1      -0.481   8.203  21.530  0.00  0.00    +0.000 F 
ENDBRANCH  14  17
ENDBRANCH   6  10
BRANCH   1  21
ATOM     21  C   UNL     1      -1.729  13.616  21.350  0.00  0.00    +0.000 C 
BRANCH  21  27
ATOM     22  C   UNL     1      -4.565  10.991  17.146  0.00  0.00    +0.000 C 
ATOM     23  N   UNL     1      -4.775  11.540  18.472  0.00  0.00    +0.000 N 
ATOM     24  C   UNL     1      -3.693  12.150  19.128  0.00  0.00    +0.000 A 
ATOM     25  O   UNL     1      -2.582  12.294  18.638  0.00  0.00    +0.000 OA
ATOM     26  C   UNL     1      -4.003  12.620  20.451  0.00  0.00    +0.000 A 
ATOM     27  C   UNL     1      -3.179  13.243  21.470  0.00  0.00    +0.000 A 
ATOM     28  N   UNL     1      -3.822  13.529  22.612  0.00  0.00    +0.000 NA
ATOM     29  S   UNL     1      -5.403  13.094  22.489  0.00  0.00    +0.000 S 
ATOM     30  C   UNL     1      -5.278  12.470  20.930  0.00  0.00    +0.000 A 
ATOM     31  N   UNL     1      -6.336  11.902  20.253  0.00  0.00    +0.000 N 
ATOM     32  C   UNL     1      -7.686  11.740  20.767  0.00  0.00    +0.000 C 
ATOM     33  C   UNL     1      -6.076  11.402  18.978  0.00  0.00    +0.000 A 
ATOM     34  O   UNL     1      -6.970  10.863  18.313  0.00  0.00    +0.000 OA
ENDBRANCH  21  27
ENDBRANCH   1  21
TORSDOF 4
ENDMDL
MODEL 8
REMARK VINA RESULT:      -6.9      5.356      7.190
REMARK  Name = 
REMARK  6 active torsions:
REMARK  status: ('A' for Active; 'I' for Inactive)
REMARK    1  A    between atoms: C_1  and  N_2
REMARK    2  A    between atoms: C_6  and  C_7
REMARK    3  A    between atoms: C_7  and  C_8
REMARK    4  A    between atoms: C_13  and  C_14
REMARK    5  A    between atoms: C_18  and  C_19
REMARK    6  A    between atoms: N_30  and  C_31
REMARK                            x       y       z     vdW  Elec       q    Type
REMARK                         _______ _______ _______ _____ _____    ______ ____
ROOT
ATOM      1  C   UNL     1       1.745  16.071  21.715  0.00  0.00    +0.000 C 
ATOM      2  O   UNL     1       2.102  17.250  21.843  0.00  0.00    +0.000 OA
ATOM      3  N   UNL     1       0.555  15.692  22.280  0.00  0.00    +0.000 N 
ATOM      4  C   UNL     1       0.057  14.423  22.242  0.00  0.00    +0.000 A 
ATOM      5  N   UNL     1       0.668  13.354  21.814  0.00  0.00    +0.000 NA
ATOM      6  C   UNL     1      -0.191  12.283  21.792  0.00  0.00    +0.000 A 
ATOM      7  C   UNL     1      -1.472  12.569  22.224  0.00  0.00    +0.000 A 
ATOM      8  S   UNL     1      -1.553  14.216  22.748  0.00  0.00    +0.000 S 
ATOM      9  H   UNL     1       0.021  16.411  22.747  0.00  0.00    +0.000 HD
ENDROOT
BRANCH   6  10
ATOM     10  C   UNL     1       0.300  11.000  21.324  0.00  0.00    +0.000 A 
ATOM     11  C   UNL     1       0.573   9.986  22.258  0.00  0.00    +0.000 A 
ATOM     12  C   UNL     1       1.048   8.740  21.848  0.00  0.00    +0.000 A 
ATOM     13  C   UNL     1       1.267   8.496  20.495  0.00  0.00    +0.000 A 
ATOM     14  C   UNL     1       1.028   9.502  19.546  0.00  0.00    +0.000 A 
ATOM     15  C   UNL     1       0.552  10.744  19.973  0.00  0.00    +0.000 A 
ATOM     16  F   UNL     1       0.356  11.709  19.061  0.00  0.00    +0.000 F 
BRANCH  14  17
ATOM     17  C   UNL     1       1.261   9.281  18.083  0.00  0.00    +0.000 C 
ATOM     18  F   UNL     1       1.736   8.033  17.804  0.00  0.00    +0.000 F 
ATOM     19  F   UNL     1       0.124   9.411  17.345  0.00  0.00    +0.000 F 
ATOM     20  F   UNL     1       2.167  10.145  17.550  0.00  0.00    +0.000 F 
ENDBRANCH  14  17
ENDBRANCH   6  10
BRANCH   1  21
ATOM     21  C   UNL     1       2.591  15.090  20.901  0.00  0.00    +0.000 C 
BRANCH  21  27
ATOM     22  C   UNL     1       7.434  15.259  17.880  0.00  0.00    +0.000 C 
ATOM     23  N   UNL     1       6.952  14.976  19.219  0.00  0.00    +0.000 N 
ATOM     24  C   UNL     1       5.573  15.049  19.469  0.00  0.00    +0.000 A 
ATOM     25  O   UNL     1       4.730  15.293  18.618  0.00  0.00    +0.000 OA
ATOM     26  C   UNL     1       5.213  14.792  20.838  0.00  0.00    +0.000 A 
ATOM     27  C   UNL     1       3.932  14.821  21.519  0.00  0.00    +0.000 A 
ATOM     28  N   UNL     1       3.990  14.543  22.830  0.00  0.00    +0.000 NA
ATOM     29  S   UNL     1       5.542  14.219  23.267  0.00  0.00    +0.000 S 
ATOM     30  C   UNL     1       6.198  14.480  21.738  0.00  0.00    +0.000 A 
ATOM     31  N   UNL     1       7.545  14.377  21.463  0.00  0.00    +0.000 N 
ATOM     32  C   UNL     1       8.586  14.052  22.422  0.00  0.00    +0.000 C 
ATOM     33  C   UNL     1       7.945  14.649  20.155  0.00  0.00    +0.000 A 
ATOM     34  O   UNL     1       9.139  14.594  19.832  0.00  0.00    +0.000 OA
ENDBRANCH  21  27
ENDBRANCH   1  21
TORSDOF 4
ENDMDL
MODEL 9
REMARK VINA RESULT:      -6.9      7.364     10.031
REMARK  Name = 
REMARK  6 active torsions:
REMARK  status: ('A' for Active; 'I' for Inactive)
REMARK    1  A    between atoms: C_1  and  N_2
REMARK    2  A    between atoms: C_6  and  C_7
REMARK    3  A    between atoms: C_7  and  C_8
REMARK    4  A    between atoms: C_13  and  C_14
REMARK    5  A    between atoms: C_18  and  C_19
REMARK    6  A    between atoms: N_30  and  C_31
REMARK                            x       y       z     vdW  Elec       q    Type
REMARK                         _______ _______ _______ _____ _____    ______ ____
ROOT
ATOM      1  C   UNL     1       4.137  16.501  18.351  0.00  0.00    +0.000 C 
ATOM      2  O   UNL     1       3.238  17.093  17.740  0.00  0.00    +0.000 OA
ATOM      3  N   UNL     1       5.184  17.241  18.836  0.00  0.00    +0.000 N 
ATOM      4  C   UNL     1       6.253  16.715  19.499  0.00  0.00    +0.000 A 
ATOM      5  N   UNL     1       6.537  15.451  19.650  0.00  0.00    +0.000 NA
ATOM      6  C   UNL     1       7.608  15.295  20.496  0.00  0.00    +0.000 A 
ATOM      7  C   UNL     1       8.135  16.479  20.975  0.00  0.00    +0.000 A 
ATOM      8  S   UNL     1       7.299  17.816  20.265  0.00  0.00    +0.000 S 
ATOM      9  H   UNL     1       5.145  18.239  18.690  0.00  0.00    +0.000 HD
ENDROOT
BRANCH   6  10
ATOM     10  C   UNL     1       8.067  13.954  20.807  0.00  0.00    +0.000 A 
ATOM     11  C   UNL     1       7.763  13.398  22.061  0.00  0.00    +0.000 A 
ATOM     12  C   UNL     1       8.188  12.112  22.399  0.00  0.00    +0.000 A 
ATOM     13  C   UNL     1       8.934  11.370  21.487  0.00  0.00    +0.000 A 
ATOM     14  C   UNL     1       9.273  11.915  20.239  0.00  0.00    +0.000 A 
ATOM     15  C   UNL     1       8.840  13.203  19.916  0.00  0.00    +0.000 A 
ATOM     16  F   UNL     1       9.195  13.725  18.732  0.00  0.00    +0.000 F 
BRANCH  14  17
ATOM     17  C   UNL     1      10.081  11.151  19.236  0.00  0.00    +0.000 C 
ATOM     18  F   UNL     1      11.416  11.152  19.519  0.00  0.00    +0.000 F 
ATOM     19  F   UNL     1       9.725   9.839  19.164  0.00  0.00    +0.000 F 
ATOM     20  F   UNL     1       9.975  11.649  17.974  0.00  0.00    +0.000 F 
ENDBRANCH  14  17
ENDBRANCH   6  10
BRANCH   1  21
ATOM     21  C   UNL     1       4.042  14.994  18.598  0.00  0.00    +0.000 C 
BRANCH  21  27
ATOM     22  C   UNL     1       1.076  10.119  18.402  0.00  0.00    +0.000 C 
ATOM     23  N   UNL     1       1.195  11.332  19.187  0.00  0.00    +0.000 N 
ATOM     24  C   UNL     1       2.116  12.311  18.781  0.00  0.00    +0.000 A 
ATOM     25  O   UNL     1       2.803  12.235  17.773  0.00  0.00    +0.000 OA
ATOM     26  C   UNL     1       2.180  13.451  19.656  0.00  0.00    +0.000 A 
ATOM     27  C   UNL     1       3.019  14.635  19.635  0.00  0.00    +0.000 A 
ATOM     28  N   UNL     1       2.806  15.488  20.648  0.00  0.00    +0.000 NA
ATOM     29  S   UNL     1       1.603  14.922  21.616  0.00  0.00    +0.000 S 
ATOM     30  C   UNL     1       1.353  13.501  20.747  0.00  0.00    +0.000 A 
ATOM     31  N   UNL     1       0.428  12.544  21.107  0.00  0.00    +0.000 N 
ATOM     32  C   UNL     1      -0.444  12.599  22.268  0.00  0.00    +0.000 C 
ATOM     33  C   UNL     1       0.351  11.405  20.307  0.00  0.00    +0.000 A 
ATOM     34  O   UNL     1      -0.443  10.494  20.573  0.00  0.00    +0.000 OA
ENDBRANCH  21  27
ENDBRANCH   1  21
TORSDOF 4
ENDMDL
