MODEL 1
REMARK VINA RESULT:      -7.3      0.000      0.000
REMARK  Name = 
REMARK  7 active torsions:
REMARK  status: ('A' for Active; 'I' for Inactive)
REMARK    1  A    between atoms: C_2  and  C_3
REMARK    2  A    between atoms: C_3  and  S_4
REMARK    3  A    between atoms: S_4  and  C_5
REMARK    4  A    between atoms: C_7  and  C_8
REMARK    5  A    between atoms: N_16  and  C_17
REMARK    6  A    between atoms: C_17  and  C_18
REMARK    7  A    between atoms: C_18  and  N_19
REMARK                            x       y       z     vdW  Elec       q    Type
REMARK                         _______ _______ _______ _____ _____    ______ ____
ROOT
ATOM      1  O   UNL     1       7.220   7.772  17.213  0.00  0.00    +0.000 OA
ATOM      2  C   UNL     1       7.888   7.518  18.212  0.00  0.00    +0.000 C 
ATOM      3  N   UNL     1       8.661   8.471  18.848  0.00  0.00    +0.000 N 
ATOM      4  H   UNL     1       9.242   8.179  19.626  0.00  0.00    +0.000 HD
ENDROOT
BRANCH   2   5
ATOM      5  C   UNL     1       7.874   6.143  18.873  0.00  0.00    +0.000 C 
BRANCH   5   6
ATOM      6  S   UNL     1       7.828   4.857  17.598  0.00  0.00    +0.000 S 
BRANCH   6   7
ATOM      7  C   UNL     1       6.130   4.439  17.538  0.00  0.00    +0.000 A 
ATOM      8  N   UNL     1       5.365   4.315  18.602  0.00  0.00    +0.000 NA
ATOM      9  C   UNL     1       4.078   3.945  18.210  0.00  0.00    +0.000 A 
ATOM     10  C   UNL     1       3.899   3.830  16.843  0.00  0.00    +0.000 A 
ATOM     11  S   UNL     1       5.367   4.148  16.027  0.00  0.00    +0.000 S 
BRANCH   9  12
ATOM     12  C   UNL     1       2.999   3.722  19.170  0.00  0.00    +0.000 A 
ATOM     13  C   UNL     1       2.222   4.798  19.617  0.00  0.00    +0.000 A 
ATOM     14  C   UNL     1       1.175   4.593  20.522  0.00  0.00    +0.000 A 
ATOM     15  C   UNL     1       0.899   3.312  20.998  0.00  0.00    +0.000 A 
ATOM     16  C   UNL     1       1.667   2.232  20.567  0.00  0.00    +0.000 A 
ATOM     17  C   UNL     1       2.710   2.437  19.661  0.00  0.00    +0.000 A 
ENDBRANCH   9  12
ENDBRANCH   6   7
ENDBRANCH   5   6
ENDBRANCH   2   5
BRANCH   3  18
ATOM     18  C   UNL     1       8.837   9.814  18.314  0.00  0.00    +0.000 C 
BRANCH  18  19
ATOM     19  C   UNL     1       9.283  10.820  19.383  0.00  0.00    +0.000 C 
BRANCH  19  20
ATOM     20  N   UNL     1      10.061  11.915  18.820  0.00  0.00    +0.000 N 
ATOM     21  C   UNL     1       9.505  12.827  17.959  0.00  0.00    +0.000 C 
ATOM     22  O   UNL     1       8.337  12.825  17.588  0.00  0.00    +0.000 OA
ATOM     23  C   UNL     1      10.501  13.856  17.493  0.00  0.00    +0.000 C 
ATOM     24  S   UNL     1      12.075  13.406  18.244  0.00  0.00    +0.000 S 
ATOM     25  C   UNL     1      11.403  12.010  19.050  0.00  0.00    +0.000 C 
ATOM     26  O   UNL     1      12.087  11.237  19.703  0.00  0.00    +0.000 OA
ENDBRANCH  19  20
ENDBRANCH  18  19
ENDBRANCH   3  18
TORSDOF 7
ENDMDL
MODEL 2
REMARK VINA RESULT:      -7.1      1.679      1.886
REMARK  Name = 
REMARK  7 active torsions:
REMARK  status: ('A' for Active; 'I' for Inactive)
REMARK    1  A    between atoms: C_2  and  C_3
REMARK    2  A    between atoms: C_3  and  S_4
REMARK    3  A    between atoms: S_4  and  C_5
REMARK    4  A    between atoms: C_7  and  C_8
REMARK    5  A    between atoms: N_16  and  C_17
REMARK    6  A    between atoms: C_17  and  C_18
REMARK    7  A    between atoms: C_18  and  N_19
REMARK                            x       y       z     vdW  Elec       q    Type
REMARK                         _______ _______ _______ _____ _____    ______ ____
ROOT
ATOM      1  O   UNL     1       7.586   8.473  17.068  0.00  0.00    +0.000 OA
ATOM      2  C   UNL     1       8.096   8.085  18.116  0.00  0.00    +0.000 C 
ATOM      3  N   UNL     1       8.776   8.935  18.968  0.00  0.00    +0.000 N 
ATOM      4  H   UNL     1       9.233   8.536  19.780  0.00  0.00    +0.000 HD
ENDROOT
BRANCH   2   5
ATOM      5  C   UNL     1       7.973   6.642  18.595  0.00  0.00    +0.000 C 
BRANCH   5   6
ATOM      6  S   UNL     1       7.242   5.626  17.286  0.00  0.00    +0.000 S 
BRANCH   6   7
ATOM      7  C   UNL     1       5.542   5.632  17.701  0.00  0.00    +0.000 A 
ATOM      8  N   UNL     1       4.989   4.791  18.548  0.00  0.00    +0.000 NA
ATOM      9  C   UNL     1       3.619   5.045  18.631  0.00  0.00    +0.000 A 
ATOM     10  C   UNL     1       3.178   6.105  17.857  0.00  0.00    +0.000 A 
ATOM     11  S   UNL     1       4.482   6.774  16.978  0.00  0.00    +0.000 S 
BRANCH   9  12
ATOM     12  C   UNL     1       2.727   4.267  19.488  0.00  0.00    +0.000 A 
ATOM     13  C   UNL     1       1.674   3.535  18.925  0.00  0.00    +0.000 A 
ATOM     14  C   UNL     1       0.824   2.773  19.734  0.00  0.00    +0.000 A 
ATOM     15  C   UNL     1       1.012   2.740  21.115  0.00  0.00    +0.000 A 
ATOM     16  C   UNL     1       2.053   3.468  21.690  0.00  0.00    +0.000 A 
ATOM     17  C   UNL     1       2.902   4.227  20.881  0.00  0.00    +0.000 A 
ENDBRANCH   9  12
ENDBRANCH   6   7
ENDBRANCH   5   6
ENDBRANCH   2   5
BRANCH   3  18
ATOM     18  C   UNL     1       9.040  10.326  18.632  0.00  0.00    +0.000 C 
BRANCH  18  19
ATOM     19  C   UNL     1      10.079  10.969  19.559  0.00  0.00    +0.000 C 
BRANCH  19  20
ATOM     20  N   UNL     1      10.091  12.422  19.453  0.00  0.00    +0.000 N 
ATOM     21  C   UNL     1      10.904  13.073  18.560  0.00  0.00    +0.000 C 
ATOM     22  O   UNL     1      11.673  12.526  17.779  0.00  0.00    +0.000 OA
ATOM     23  C   UNL     1      10.760  14.570  18.641  0.00  0.00    +0.000 C 
ATOM     24  S   UNL     1       9.582  14.890  19.967  0.00  0.00    +0.000 S 
ATOM     25  C   UNL     1       9.368  13.192  20.317  0.00  0.00    +0.000 C 
ATOM     26  O   UNL     1       8.671  12.796  21.239  0.00  0.00    +0.000 OA
ENDBRANCH  19  20
ENDBRANCH  18  19
ENDBRANCH   3  18
TORSDOF 7
ENDMDL
MODEL 3
REMARK VINA RESULT:      -7.1      1.509      1.652
REMARK  Name = 
REMARK  7 active torsions:
REMARK  status: ('A' for Active; 'I' for Inactive)
REMARK    1  A    between atoms: C_2  and  C_3
REMARK    2  A    between atoms: C_3  and  S_4
REMARK    3  A    between atoms: S_4  and  C_5
REMARK    4  A    between atoms: C_7  and  C_8
REMARK    5  A    between atoms: N_16  and  C_17
REMARK    6  A    between atoms: C_17  and  C_18
REMARK    7  A    between atoms: C_18  and  N_19
REMARK                            x       y       z     vdW  Elec       q    Type
REMARK                         _______ _______ _______ _____ _____    ______ ____
ROOT
ATOM      1  O   UNL     1       7.575   8.552  17.106  0.00  0.00    +0.000 OA
ATOM      2  C   UNL     1       8.130   8.133  18.118  0.00  0.00    +0.000 C 
ATOM      3  N   UNL     1       8.849   8.958  18.963  0.00  0.00    +0.000 N 
ATOM      4  H   UNL     1       9.341   8.536  19.743  0.00  0.00    +0.000 HD
ENDROOT
BRANCH   2   5
ATOM      5  C   UNL     1       8.027   6.677  18.560  0.00  0.00    +0.000 C 
BRANCH   5   6
ATOM      6  S   UNL     1       7.255   5.696  17.247  0.00  0.00    +0.000 S 
BRANCH   6   7
ATOM      7  C   UNL     1       5.564   5.723  17.694  0.00  0.00    +0.000 A 
ATOM      8  N   UNL     1       4.996   4.831  18.477  0.00  0.00    +0.000 NA
ATOM      9  C   UNL     1       3.637   5.122  18.607  0.00  0.00    +0.000 A 
ATOM     10  C   UNL     1       3.221   6.258  17.935  0.00  0.00    +0.000 A 
ATOM     11  S   UNL     1       4.533   6.957  17.091  0.00  0.00    +0.000 S 
BRANCH   9  12
ATOM     12  C   UNL     1       2.732   4.303  19.411  0.00  0.00    +0.000 A 
ATOM     13  C   UNL     1       1.873   3.388  18.790  0.00  0.00    +0.000 A 
ATOM     14  C   UNL     1       1.016   2.587  19.551  0.00  0.00    +0.000 A 
ATOM     15  C   UNL     1       1.001   2.696  20.941  0.00  0.00    +0.000 A 
ATOM     16  C   UNL     1       1.846   3.607  21.573  0.00  0.00    +0.000 A 
ATOM     17  C   UNL     1       2.704   4.405  20.813  0.00  0.00    +0.000 A 
ENDBRANCH   9  12
ENDBRANCH   6   7
ENDBRANCH   5   6
ENDBRANCH   2   5
BRANCH   3  18
ATOM     18  C   UNL     1       9.100  10.358  18.657  0.00  0.00    +0.000 C 
BRANCH  18  19
ATOM     19  C   UNL     1       9.914  11.063  19.748  0.00  0.00    +0.000 C 
BRANCH  19  20
ATOM     20  N   UNL     1      10.190  12.456  19.420  0.00  0.00    +0.000 N 
ATOM     21  C   UNL     1       9.407  13.478  19.895  0.00  0.00    +0.000 C 
ATOM     22  O   UNL     1       8.434  13.338  20.626  0.00  0.00    +0.000 OA
ATOM     23  C   UNL     1       9.870  14.826  19.411  0.00  0.00    +0.000 C 
ATOM     24  S   UNL     1      11.273  14.514  18.324  0.00  0.00    +0.000 S 
ATOM     25  C   UNL     1      11.178  12.784  18.537  0.00  0.00    +0.000 C 
ATOM     26  O   UNL     1      11.906  12.008  17.937  0.00  0.00    +0.000 OA
ENDBRANCH  19  20
ENDBRANCH  18  19
ENDBRANCH   3  18
TORSDOF 7
ENDMDL
MODEL 4
REMARK VINA RESULT:      -7.0      5.685      7.991
REMARK  Name = 
REMARK  7 active torsions:
REMARK  status: ('A' for Active; 'I' for Inactive)
REMARK    1  A    between atoms: C_2  and  C_3
REMARK    2  A    between atoms: C_3  and  S_4
REMARK    3  A    between atoms: S_4  and  C_5
REMARK    4  A    between atoms: C_7  and  C_8
REMARK    5  A    between atoms: N_16  and  C_17
REMARK    6  A    between atoms: C_17  and  C_18
REMARK    7  A    between atoms: C_18  and  N_19
REMARK                            x       y       z     vdW  Elec       q    Type
REMARK                         _______ _______ _______ _____ _____    ______ ____
ROOT
ATOM      1  O   UNL     1       1.126   4.456  17.503  0.00  0.00    +0.000 OA
ATOM      2  C   UNL     1       1.689   3.748  18.334  0.00  0.00    +0.000 C 
ATOM      3  N   UNL     1       1.772   4.096  19.669  0.00  0.00    +0.000 N 
ATOM      4  H   UNL     1       2.311   3.502  20.289  0.00  0.00    +0.000 HD
ENDROOT
BRANCH   2   5
ATOM      5  C   UNL     1       2.295   2.395  17.974  0.00  0.00    +0.000 C 
BRANCH   5   6
ATOM      6  S   UNL     1       3.984   2.295  18.619  0.00  0.00    +0.000 S 
BRANCH   6   7
ATOM      7  C   UNL     1       4.845   3.442  17.617  0.00  0.00    +0.000 A 
ATOM      8  N   UNL     1       5.167   3.224  16.360  0.00  0.00    +0.000 NA
ATOM      9  C   UNL     1       5.872   4.320  15.861  0.00  0.00    +0.000 A 
ATOM     10  C   UNL     1       6.035   5.361  16.758  0.00  0.00    +0.000 A 
ATOM     11  S   UNL     1       5.337   4.955  18.265  0.00  0.00    +0.000 S 
BRANCH   9  12
ATOM     12  C   UNL     1       6.374   4.373  14.490  0.00  0.00    +0.000 A 
ATOM     13  C   UNL     1       5.818   3.546  13.505  0.00  0.00    +0.000 A 
ATOM     14  C   UNL     1       6.279   3.601  12.186  0.00  0.00    +0.000 A 
ATOM     15  C   UNL     1       7.307   4.476  11.837  0.00  0.00    +0.000 A 
ATOM     16  C   UNL     1       7.874   5.301  12.807  0.00  0.00    +0.000 A 
ATOM     17  C   UNL     1       7.411   5.248  14.123  0.00  0.00    +0.000 A 
ENDBRANCH   9  12
ENDBRANCH   6   7
ENDBRANCH   5   6
ENDBRANCH   2   5
BRANCH   3  18
ATOM     18  C   UNL     1       1.304   5.380  20.169  0.00  0.00    +0.000 C 
BRANCH  18  19
ATOM     19  C   UNL     1       2.423   6.425  20.250  0.00  0.00    +0.000 C 
BRANCH  19  20
ATOM     20  N   UNL     1       2.015   7.715  19.711  0.00  0.00    +0.000 N 
ATOM     21  C   UNL     1       1.250   8.592  20.438  0.00  0.00    +0.000 C 
ATOM     22  O   UNL     1       0.849   8.398  21.579  0.00  0.00    +0.000 OA
ATOM     23  C   UNL     1       0.937   9.850  19.672  0.00  0.00    +0.000 C 
ATOM     24  S   UNL     1       1.675   9.641  18.041  0.00  0.00    +0.000 S 
ATOM     25  C   UNL     1       2.293   8.052  18.417  0.00  0.00    +0.000 C 
ATOM     26  O   UNL     1       2.869   7.360  17.592  0.00  0.00    +0.000 OA
ENDBRANCH  19  20
ENDBRANCH  18  19
ENDBRANCH   3  18
TORSDOF 7
ENDMDL
MODEL 5
REMARK VINA RESULT:      -7.0      2.575      3.231
REMARK  Name = 
REMARK  7 active torsions:
REMARK  status: ('A' for Active; 'I' for Inactive)
REMARK    1  A    between atoms: C_2  and  C_3
REMARK    2  A    between atoms: C_3  and  S_4
REMARK    3  A    between atoms: S_4  and  C_5
REMARK    4  A    between atoms: C_7  and  C_8
REMARK    5  A    between atoms: N_16  and  C_17
REMARK    6  A    between atoms: C_17  and  C_18
REMARK    7  A    between atoms: C_18  and  N_19
REMARK                            x       y       z     vdW  Elec       q    Type
REMARK                         _______ _______ _______ _____ _____    ______ ____
ROOT
ATOM      1  O   UNL     1       7.983   6.649  18.895  0.00  0.00    +0.000 OA
ATOM      2  C   UNL     1       7.736   7.124  17.790  0.00  0.00    +0.000 C 
ATOM      3  N   UNL     1       8.008   8.441  17.473  0.00  0.00    +0.000 N 
ATOM      4  H   UNL     1       7.715   8.788  16.566  0.00  0.00    +0.000 HD
ENDROOT
BRANCH   2   5
ATOM      5  C   UNL     1       7.162   6.285  16.653  0.00  0.00    +0.000 C 
BRANCH   5   6
ATOM      6  S   UNL     1       6.507   4.731  17.315  0.00  0.00    +0.000 S 
BRANCH   6   7
ATOM      7  C   UNL     1       4.849   5.143  17.691  0.00  0.00    +0.000 A 
ATOM      8  N   UNL     1       4.449   6.352  18.026  0.00  0.00    +0.000 NA
ATOM      9  C   UNL     1       3.079   6.333  18.289  0.00  0.00    +0.000 A 
ATOM     10  C   UNL     1       2.471   5.103  18.112  0.00  0.00    +0.000 A 
ATOM     11  S   UNL     1       3.629   3.935  17.648  0.00  0.00    +0.000 S 
BRANCH   9  12
ATOM     12  C   UNL     1       2.342   7.528  18.696  0.00  0.00    +0.000 A 
ATOM     13  C   UNL     1       1.883   7.656  20.013  0.00  0.00    +0.000 A 
ATOM     14  C   UNL     1       1.192   8.804  20.417  0.00  0.00    +0.000 A 
ATOM     15  C   UNL     1       0.944   9.831  19.508  0.00  0.00    +0.000 A 
ATOM     16  C   UNL     1       1.389   9.715  18.193  0.00  0.00    +0.000 A 
ATOM     17  C   UNL     1       2.082   8.571  17.790  0.00  0.00    +0.000 A 
ENDBRANCH   9  12
ENDBRANCH   6   7
ENDBRANCH   5   6
ENDBRANCH   2   5
BRANCH   3  18
ATOM     18  C   UNL     1       8.496   9.395  18.458  0.00  0.00    +0.000 C 
BRANCH  18  19
ATOM     19  C   UNL     1       9.279  10.550  17.823  0.00  0.00    +0.000 C 
BRANCH  19  20
ATOM     20  N   UNL     1       9.049  11.816  18.507  0.00  0.00    +0.000 N 
ATOM     21  C   UNL     1       8.264  12.800  17.959  0.00  0.00    +0.000 C 
ATOM     22  O   UNL     1       7.687  12.721  16.881  0.00  0.00    +0.000 OA
ATOM     23  C   UNL     1       8.186  14.023  18.834  0.00  0.00    +0.000 C 
ATOM     24  S   UNL     1       9.242  13.692  20.255  0.00  0.00    +0.000 S 
ATOM     25  C   UNL     1       9.696  12.109  19.672  0.00  0.00    +0.000 C 
ATOM     26  O   UNL     1      10.507  11.404  20.252  0.00  0.00    +0.000 OA
ENDBRANCH  19  20
ENDBRANCH  18  19
ENDBRANCH   3  18
TORSDOF 7
ENDMDL
MODEL 6
REMARK VINA RESULT:      -7.0      6.200      9.556
REMARK  Name = 
REMARK  7 active torsions:
REMARK  status: ('A' for Active; 'I' for Inactive)
REMARK    1  A    between atoms: C_2  and  C_3
REMARK    2  A    between atoms: C_3  and  S_4
REMARK    3  A    between atoms: S_4  and  C_5
REMARK    4  A    between atoms: C_7  and  C_8
REMARK    5  A    between atoms: N_16  and  C_17
REMARK    6  A    between atoms: C_17  and  C_18
REMARK    7  A    between atoms: C_18  and  N_19
REMARK                            x       y       z     vdW  Elec       q    Type
REMARK                         _______ _______ _______ _____ _____    ______ ____
ROOT
ATOM      1  O   UNL     1       4.910   5.546  18.458  0.00  0.00    +0.000 OA
ATOM      2  C   UNL     1       3.807   5.511  17.921  0.00  0.00    +0.000 C 
ATOM      3  N   UNL     1       3.324   4.377  17.294  0.00  0.00    +0.000 N 
ATOM      4  H   UNL     1       2.435   4.437  16.810  0.00  0.00    +0.000 HD
ENDROOT
BRANCH   2   5
ATOM      5  C   UNL     1       2.849   6.698  17.949  0.00  0.00    +0.000 C 
BRANCH   5   6
ATOM      6  S   UNL     1       2.413   7.086  19.664  0.00  0.00    +0.000 S 
BRANCH   6   7
ATOM      7  C   UNL     1       1.557   8.603  19.508  0.00  0.00    +0.000 A 
ATOM      8  N   UNL     1       0.771   9.104  20.438  0.00  0.00    +0.000 NA
ATOM      9  C   UNL     1       0.222  10.305  19.987  0.00  0.00    +0.000 A 
ATOM     10  C   UNL     1       0.639  10.697  18.728  0.00  0.00    +0.000 A 
ATOM     11  S   UNL     1       1.704   9.532  18.071  0.00  0.00    +0.000 S 
BRANCH   9  12
ATOM     12  C   UNL     1      -0.703  11.097  20.796  0.00  0.00    +0.000 A 
ATOM     13  C   UNL     1      -1.570  12.009  20.181  0.00  0.00    +0.000 A 
ATOM     14  C   UNL     1      -2.471  12.759  20.944  0.00  0.00    +0.000 A 
ATOM     15  C   UNL     1      -2.510  12.613  22.330  0.00  0.00    +0.000 A 
ATOM     16  C   UNL     1      -1.649  11.713  22.956  0.00  0.00    +0.000 A 
ATOM     17  C   UNL     1      -0.752  10.962  22.194  0.00  0.00    +0.000 A 
ENDBRANCH   9  12
ENDBRANCH   6   7
ENDBRANCH   5   6
ENDBRANCH   2   5
BRANCH   3  18
ATOM     18  C   UNL     1       4.132   3.179  17.121  0.00  0.00    +0.000 C 
BRANCH  18  19
ATOM     19  C   UNL     1       3.560   1.969  17.868  0.00  0.00    +0.000 C 
BRANCH  19  20
ATOM     20  N   UNL     1       2.870   2.350  19.093  0.00  0.00    +0.000 N 
ATOM     21  C   UNL     1       1.518   2.586  19.115  0.00  0.00    +0.000 C 
ATOM     22  O   UNL     1       0.772   2.498  18.148  0.00  0.00    +0.000 OA
ATOM     23  C   UNL     1       1.029   2.983  20.483  0.00  0.00    +0.000 C 
ATOM     24  S   UNL     1       2.487   3.041  21.540  0.00  0.00    +0.000 S 
ATOM     25  C   UNL     1       3.565   2.590  20.242  0.00  0.00    +0.000 C 
ATOM     26  O   UNL     1       4.777   2.532  20.386  0.00  0.00    +0.000 OA
ENDBRANCH  19  20
ENDBRANCH  18  19
ENDBRANCH   3  18
TORSDOF 7
ENDMDL
MODEL 7
REMARK VINA RESULT:      -6.9      6.094      9.471
REMARK  Name = 
REMARK  7 active torsions:
REMARK  status: ('A' for Active; 'I' for Inactive)
REMARK    1  A    between atoms: C_2  and  C_3
REMARK    2  A    between atoms: C_3  and  S_4
REMARK    3  A    between atoms: S_4  and  C_5
REMARK    4  A    between atoms: C_7  and  C_8
REMARK    5  A    between atoms: N_16  and  C_17
REMARK    6  A    between atoms: C_17  and  C_18
REMARK    7  A    between atoms: C_18  and  N_19
REMARK                            x       y       z     vdW  Elec       q    Type
REMARK                         _______ _______ _______ _____ _____    ______ ____
ROOT
ATOM      1  O   UNL     1       5.059   4.819  16.978  0.00  0.00    +0.000 OA
ATOM      2  C   UNL     1       3.967   5.173  17.416  0.00  0.00    +0.000 C 
ATOM      3  N   UNL     1       2.875   4.326  17.453  0.00  0.00    +0.000 N 
ATOM      4  H   UNL     1       1.985   4.703  17.760  0.00  0.00    +0.000 HD
ENDROOT
BRANCH   2   5
ATOM      5  C   UNL     1       3.738   6.559  18.009  0.00  0.00    +0.000 C 
BRANCH   5   6
ATOM      6  S   UNL     1       2.524   6.453  19.350  0.00  0.00    +0.000 S 
BRANCH   6   7
ATOM      7  C   UNL     1       1.790   8.040  19.329  0.00  0.00    +0.000 A 
ATOM      8  N   UNL     1       1.065   8.529  20.313  0.00  0.00    +0.000 NA
ATOM      9  C   UNL     1       0.605   9.800  19.967  0.00  0.00    +0.000 A 
ATOM     10  C   UNL     1       1.028  10.253  18.730  0.00  0.00    +0.000 A 
ATOM     11  S   UNL     1       1.982   9.061  17.961  0.00  0.00    +0.000 S 
BRANCH   9  12
ATOM     12  C   UNL     1      -0.236  10.599  20.856  0.00  0.00    +0.000 A 
ATOM     13  C   UNL     1      -0.295  10.301  22.223  0.00  0.00    +0.000 A 
ATOM     14  C   UNL     1      -1.084  11.070  23.086  0.00  0.00    +0.000 A 
ATOM     15  C   UNL     1      -1.828  12.140  22.591  0.00  0.00    +0.000 A 
ATOM     16  C   UNL     1      -1.784  12.445  21.232  0.00  0.00    +0.000 A 
ATOM     17  C   UNL     1      -0.994  11.679  20.371  0.00  0.00    +0.000 A 
ENDBRANCH   9  12
ENDBRANCH   6   7
ENDBRANCH   5   6
ENDBRANCH   2   5
BRANCH   3  18
ATOM     18  C   UNL     1       2.903   2.993  16.869  0.00  0.00    +0.000 C 
BRANCH  18  19
ATOM     19  C   UNL     1       3.039   1.890  17.925  0.00  0.00    +0.000 C 
BRANCH  19  20
ATOM     20  N   UNL     1       2.524   2.301  19.225  0.00  0.00    +0.000 N 
ATOM     21  C   UNL     1       1.188   2.537  19.429  0.00  0.00    +0.000 C 
ATOM     22  O   UNL     1       0.314   2.424  18.578  0.00  0.00    +0.000 OA
ATOM     23  C   UNL     1       0.893   2.967  20.841  0.00  0.00    +0.000 C 
ATOM     24  S   UNL     1       2.483   3.052  21.683  0.00  0.00    +0.000 S 
ATOM     25  C   UNL     1       3.372   2.569  20.260  0.00  0.00    +0.000 C 
ATOM     26  O   UNL     1       4.592   2.516  20.235  0.00  0.00    +0.000 OA
ENDBRANCH  19  20
ENDBRANCH  18  19
ENDBRANCH   3  18
TORSDOF 7
ENDMDL
MODEL 8
REMARK VINA RESULT:      -6.9      5.108      7.698
REMARK  Name = 
REMARK  7 active torsions:
REMARK  status: ('A' for Active; 'I' for Inactive)
REMARK    1  A    between atoms: C_2  and  C_3
REMARK    2  A    between atoms: C_3  and  S_4
REMARK    3  A    between atoms: S_4  and  C_5
REMARK    4  A    between atoms: C_7  and  C_8
REMARK    5  A    between atoms: N_16  and  C_17
REMARK    6  A    between atoms: C_17  and  C_18
REMARK    7  A    between atoms: C_18  and  N_19
REMARK                            x       y       z     vdW  Elec       q    Type
REMARK                         _______ _______ _______ _____ _____    ______ ____
ROOT
ATOM      1  O   UNL     1       0.776   3.757  20.096  0.00  0.00    +0.000 OA
ATOM      2  C   UNL     1       1.754   4.120  20.744  0.00  0.00    +0.000 C 
ATOM      3  N   UNL     1       2.210   5.425  20.729  0.00  0.00    +0.000 N 
ATOM      4  H   UNL     1       3.063   5.643  21.231  0.00  0.00    +0.000 HD
ENDROOT
BRANCH   2   5
ATOM      5  C   UNL     1       2.515   3.175  21.669  0.00  0.00    +0.000 C 
BRANCH   5   6
ATOM      6  S   UNL     1       3.470   1.996  20.681  0.00  0.00    +0.000 S 
BRANCH   6   7
ATOM      7  C   UNL     1       4.095   2.997  19.389  0.00  0.00    +0.000 A 
ATOM      8  N   UNL     1       4.993   3.943  19.560  0.00  0.00    +0.000 NA
ATOM      9  C   UNL     1       5.250   4.569  18.339  0.00  0.00    +0.000 A 
ATOM     10  C   UNL     1       4.552   4.050  17.263  0.00  0.00    +0.000 A 
ATOM     11  S   UNL     1       3.525   2.786  17.782  0.00  0.00    +0.000 S 
BRANCH   9  12
ATOM     12  C   UNL     1       6.201   5.671  18.207  0.00  0.00    +0.000 A 
ATOM     13  C   UNL     1       7.342   5.715  19.018  0.00  0.00    +0.000 A 
ATOM     14  C   UNL     1       8.269   6.756  18.887  0.00  0.00    +0.000 A 
ATOM     15  C   UNL     1       8.061   7.767  17.951  0.00  0.00    +0.000 A 
ATOM     16  C   UNL     1       6.927   7.740  17.141  0.00  0.00    +0.000 A 
ATOM     17  C   UNL     1       6.004   6.699  17.270  0.00  0.00    +0.000 A 
ENDBRANCH   9  12
ENDBRANCH   6   7
ENDBRANCH   5   6
ENDBRANCH   2   5
BRANCH   3  18
ATOM     18  C   UNL     1       1.640   6.438  19.853  0.00  0.00    +0.000 C 
BRANCH  18  19
ATOM     19  C   UNL     1       2.175   7.844  20.151  0.00  0.00    +0.000 C 
BRANCH  19  20
ATOM     20  N   UNL     1       1.232   8.887  19.770  0.00  0.00    +0.000 N 
ATOM     21  C   UNL     1       1.259   9.465  18.526  0.00  0.00    +0.000 C 
ATOM     22  O   UNL     1       2.042   9.172  17.630  0.00  0.00    +0.000 OA
ATOM     23  C   UNL     1       0.206  10.529  18.366  0.00  0.00    +0.000 C 
ATOM     24  S   UNL     1      -0.638  10.642  19.953  0.00  0.00    +0.000 S 
ATOM     25  C   UNL     1       0.355   9.403  20.680  0.00  0.00    +0.000 C 
ATOM     26  O   UNL     1       0.256   9.089  21.856  0.00  0.00    +0.000 OA
ENDBRANCH  19  20
ENDBRANCH  18  19
ENDBRANCH   3  18
TORSDOF 7
ENDMDL
MODEL 9
REMARK VINA RESULT:      -6.8      5.324      7.932
REMARK  Name = 
REMARK  7 active torsions:
REMARK  status: ('A' for Active; 'I' for Inactive)
REMARK    1  A    between atoms: C_2  and  C_3
REMARK    2  A    between atoms: C_3  and  S_4
REMARK    3  A    between atoms: S_4  and  C_5
REMARK    4  A    between atoms: C_7  and  C_8
REMARK    5  A    between atoms: N_16  and  C_17
REMARK    6  A    between atoms: C_17  and  C_18
REMARK    7  A    between atoms: C_18  and  N_19
REMARK                            x       y       z     vdW  Elec       q    Type
REMARK                         _______ _______ _______ _____ _____    ______ ____
ROOT
ATOM      1  O   UNL     1       1.272   4.935  17.730  0.00  0.00    +0.000 OA
ATOM      2  C   UNL     1       1.952   4.340  18.562  0.00  0.00    +0.000 C 
ATOM      3  N   UNL     1       1.940   4.674  19.903  0.00  0.00    +0.000 N 
ATOM      4  H   UNL     1       2.578   4.190  20.525  0.00  0.00    +0.000 HD
ENDROOT
BRANCH   2   5
ATOM      5  C   UNL     1       2.825   3.144  18.196  0.00  0.00    +0.000 C 
BRANCH   5   6
ATOM      6  S   UNL     1       4.411   3.261  19.062  0.00  0.00    +0.000 S 
BRANCH   6   7
ATOM      7  C   UNL     1       5.420   4.096  17.902  0.00  0.00    +0.000 A 
ATOM      8  N   UNL     1       5.464   3.801  16.620  0.00  0.00    +0.000 NA
ATOM      9  C   UNL     1       6.388   4.631  15.982  0.00  0.00    +0.000 A 
ATOM     10  C   UNL     1       6.998   5.560  16.806  0.00  0.00    +0.000 A 
ATOM     11  S   UNL     1       6.446   5.375  18.413  0.00  0.00    +0.000 S 
BRANCH   9  12
ATOM     12  C   UNL     1       6.667   4.540  14.550  0.00  0.00    +0.000 A 
ATOM     13  C   UNL     1       5.996   3.597  13.762  0.00  0.00    +0.000 A 
ATOM     14  C   UNL     1       6.243   3.513  12.387  0.00  0.00    +0.000 A 
ATOM     15  C   UNL     1       7.169   4.364  11.787  0.00  0.00    +0.000 A 
ATOM     16  C   UNL     1       7.849   5.304  12.560  0.00  0.00    +0.000 A 
ATOM     17  C   UNL     1       7.600   5.389  13.932  0.00  0.00    +0.000 A 
ENDBRANCH   9  12
ENDBRANCH   6   7
ENDBRANCH   5   6
ENDBRANCH   2   5
BRANCH   3  18
ATOM     18  C   UNL     1       1.214   5.828  20.412  0.00  0.00    +0.000 C 
BRANCH  18  19
ATOM     19  C   UNL     1       2.115   7.053  20.607  0.00  0.00    +0.000 C 
BRANCH  19  20
ATOM     20  N   UNL     1       1.756   8.152  19.721  0.00  0.00    +0.000 N 
ATOM     21  C   UNL     1       2.356   8.319  18.498  0.00  0.00    +0.000 C 
ATOM     22  O   UNL     1       3.221   7.587  18.033  0.00  0.00    +0.000 OA
ATOM     23  C   UNL     1       1.839   9.530  17.767  0.00  0.00    +0.000 C 
ATOM     24  S   UNL     1       0.649  10.312  18.871  0.00  0.00    +0.000 S 
ATOM     25  C   UNL     1       0.880   9.119  20.125  0.00  0.00    +0.000 C 
ATOM     26  O   UNL     1       0.328   9.193  21.212  0.00  0.00    +0.000 OA
ENDBRANCH  19  20
ENDBRANCH  18  19
ENDBRANCH   3  18
TORSDOF 7
ENDMDL
