MODEL 1
REMARK VINA RESULT:      -8.0      0.000      0.000
REMARK  Name = 
REMARK  3 active torsions:
REMARK  status: ('A' for Active; 'I' for Inactive)
REMARK    1  A    between atoms: C_1  and  O_2
REMARK    2  A    between atoms: O_2  and  C_3
REMARK    3  A    between atoms: N_10  and  C_11
REMARK                            x       y       z     vdW  Elec       q    Type
REMARK                         _______ _______ _______ _____ _____    ______ ____
ROOT
ATOM      1  C   UNL     1       6.566   4.387  14.054  0.00  0.00    +0.000 A 
ATOM      2  C   UNL     1       7.429   4.959  14.979  0.00  0.00    +0.000 A 
ATOM      3  C   UNL     1       6.972   5.252  16.294  0.00  0.00    +0.000 A 
ATOM      4  C   UNL     1       5.662   4.972  16.751  0.00  0.00    +0.000 A 
ATOM      5  C   UNL     1       4.809   4.453  15.760  0.00  0.00    +0.000 A 
ATOM      6  C   UNL     1       5.252   4.171  14.458  0.00  0.00    +0.000 A 
ATOM      7  F   UNL     1       4.365   3.663  13.585  0.00  0.00    +0.000 F 
ATOM      8  N   UNL     1       5.242   5.237  18.124  0.00  0.00    +0.000 N 
ATOM      9  C   UNL     1       6.368   5.507  19.043  0.00  0.00    +0.000 C 
ATOM     10  C   UNL     1       7.571   6.215  18.421  0.00  0.00    +0.000 C 
ATOM     11  O   UNL     1       8.324   6.941  19.073  0.00  0.00    +0.000 OA
ATOM     12  N   UNL     1       7.870   5.923  17.129  0.00  0.00    +0.000 N 
ATOM     13  H   UNL     1       8.739   6.307  16.757  0.00  0.00    +0.000 HD
ENDROOT
BRANCH   8  14
ATOM     14  C   UNL     1       3.918   5.223  18.671  0.00  0.00    +0.000 A 
ATOM     15  N   UNL     1       3.472   6.440  19.055  0.00  0.00    +0.000 NA
ATOM     16  C   UNL     1       2.339   6.534  19.734  0.00  0.00    +0.000 A 
ATOM     17 CL   UNL     1       1.810   8.103  20.131  0.00  0.00    +0.000 Cl
ATOM     18  N   UNL     1       1.605   5.530  20.164  0.00  0.00    +0.000 NA
ATOM     19  C   UNL     1       1.977   4.339  19.735  0.00  0.00    +0.000 A 
ATOM     20  C   UNL     1       1.151   3.321  20.178  0.00  0.00    +0.000 A 
ATOM     21  C   UNL     1       1.255   2.038  19.674  0.00  0.00    +0.000 A 
ATOM     22  C   UNL     1       2.260   1.823  18.762  0.00  0.00    +0.000 A 
ATOM     23  N   UNL     1       3.193   2.761  18.404  0.00  0.00    +0.000 NA
ATOM     24  C   UNL     1       3.083   4.055  18.888  0.00  0.00    +0.000 A 
ENDBRANCH   8  14
BRANCH   1  26
ATOM     25  C   UNL     1       7.513   4.956  11.908  0.00  0.00    +0.000 C 
ATOM     26  O   UNL     1       6.855   4.034  12.767  0.00  0.00    +0.000 OA
ENDBRANCH   1  26
TORSDOF 2
ENDMDL
MODEL 2
REMARK VINA RESULT:      -7.2      3.405      6.575
REMARK  Name = 
REMARK  3 active torsions:
REMARK  status: ('A' for Active; 'I' for Inactive)
REMARK    1  A    between atoms: C_1  and  O_2
REMARK    2  A    between atoms: O_2  and  C_3
REMARK    3  A    between atoms: N_10  and  C_11
REMARK                            x       y       z     vdW  Elec       q    Type
REMARK                         _______ _______ _______ _____ _____    ______ ____
ROOT
ATOM      1  C   UNL     1       2.556   3.111  21.219  0.00  0.00    +0.000 A 
ATOM      2  C   UNL     1       1.942   4.349  21.082  0.00  0.00    +0.000 A 
ATOM      3  C   UNL     1       2.467   5.307  20.169  0.00  0.00    +0.000 A 
ATOM      4  C   UNL     1       3.593   5.072  19.346  0.00  0.00    +0.000 A 
ATOM      5  C   UNL     1       4.216   3.831  19.567  0.00  0.00    +0.000 A 
ATOM      6  C   UNL     1       3.709   2.886  20.473  0.00  0.00    +0.000 A 
ATOM      7  F   UNL     1       4.367   1.721  20.606  0.00  0.00    +0.000 F 
ATOM      8  N   UNL     1       4.072   6.059  18.381  0.00  0.00    +0.000 N 
ATOM      9  C   UNL     1       3.106   7.148  18.124  0.00  0.00    +0.000 C 
ATOM     10  C   UNL     1       2.230   7.546  19.311  0.00  0.00    +0.000 C 
ATOM     11  O   UNL     1       1.775   8.684  19.448  0.00  0.00    +0.000 OA
ATOM     12  N   UNL     1       1.856   6.564  20.170  0.00  0.00    +0.000 N 
ATOM     13  H   UNL     1       1.178   6.813  20.890  0.00  0.00    +0.000 HD
ENDROOT
BRANCH   8  14
ATOM     14  C   UNL     1       5.304   6.067  17.651  0.00  0.00    +0.000 A 
ATOM     15  N   UNL     1       6.196   6.981  18.095  0.00  0.00    +0.000 NA
ATOM     16  C   UNL     1       7.299   7.208  17.396  0.00  0.00    +0.000 A 
ATOM     17 CL   UNL     1       8.403   8.327  18.048  0.00  0.00    +0.000 Cl
ATOM     18  N   UNL     1       7.602   6.681  16.230  0.00  0.00    +0.000 NA
ATOM     19  C   UNL     1       6.786   5.729  15.815  0.00  0.00    +0.000 A 
ATOM     20  C   UNL     1       7.170   5.176  14.606  0.00  0.00    +0.000 A 
ATOM     21  C   UNL     1       6.564   4.036  14.111  0.00  0.00    +0.000 A 
ATOM     22  C   UNL     1       5.526   3.528  14.854  0.00  0.00    +0.000 A 
ATOM     23  N   UNL     1       5.016   4.124  15.979  0.00  0.00    +0.000 NA
ATOM     24  C   UNL     1       5.631   5.254  16.493  0.00  0.00    +0.000 A 
ENDBRANCH   8  14
BRANCH   1  26
ATOM     25  C   UNL     1       0.873   2.096  22.619  0.00  0.00    +0.000 C 
ATOM     26  O   UNL     1       2.168   2.086  22.034  0.00  0.00    +0.000 OA
ENDBRANCH   1  26
TORSDOF 2
ENDMDL
MODEL 3
REMARK VINA RESULT:      -7.0      8.982     11.970
REMARK  Name = 
REMARK  3 active torsions:
REMARK  status: ('A' for Active; 'I' for Inactive)
REMARK    1  A    between atoms: C_1  and  O_2
REMARK    2  A    between atoms: O_2  and  C_3
REMARK    3  A    between atoms: N_10  and  C_11
REMARK                            x       y       z     vdW  Elec       q    Type
REMARK                         _______ _______ _______ _____ _____    ______ ____
ROOT
ATOM      1  C   UNL     1      -6.323  12.325  18.719  0.00  0.00    +0.000 A 
ATOM      2  C   UNL     1      -5.936  11.810  17.490  0.00  0.00    +0.000 A 
ATOM      3  C   UNL     1      -4.591  11.393  17.283  0.00  0.00    +0.000 A 
ATOM      4  C   UNL     1      -3.590  11.446  18.282  0.00  0.00    +0.000 A 
ATOM      5  C   UNL     1      -4.015  12.034  19.488  0.00  0.00    +0.000 A 
ATOM      6  C   UNL     1      -5.338  12.455  19.694  0.00  0.00    +0.000 A 
ATOM      7  F   UNL     1      -5.652  12.993  20.886  0.00  0.00    +0.000 F 
ATOM      8  N   UNL     1      -2.233  10.960  18.052  0.00  0.00    +0.000 N 
ATOM      9  C   UNL     1      -2.101  10.137  16.831  0.00  0.00    +0.000 C 
ATOM     10  C   UNL     1      -3.023  10.520  15.675  0.00  0.00    +0.000 C 
ATOM     11  O   UNL     1      -2.726  10.321  14.495  0.00  0.00    +0.000 OA
ATOM     12  N   UNL     1      -4.259  10.988  15.988  0.00  0.00    +0.000 N 
ATOM     13  H   UNL     1      -4.908  11.130  15.215  0.00  0.00    +0.000 HD
ENDROOT
BRANCH   8  14
ATOM     14  C   UNL     1      -1.068  11.146  18.866  0.00  0.00    +0.000 A 
ATOM     15  N   UNL     1      -0.667  10.027  19.510  0.00  0.00    +0.000 NA
ATOM     16  C   UNL     1       0.287  10.109  20.425  0.00  0.00    +0.000 A 
ATOM     17 CL   UNL     1       0.782   8.650  21.150  0.00  0.00    +0.000 Cl
ATOM     18  N   UNL     1       0.859  11.213  20.855  0.00  0.00    +0.000 NA
ATOM     19  C   UNL     1       0.540  12.306  20.187  0.00  0.00    +0.000 A 
ATOM     20  C   UNL     1       1.199  13.433  20.647  0.00  0.00    +0.000 A 
ATOM     21  C   UNL     1       1.154  14.627  19.953  0.00  0.00    +0.000 A 
ATOM     22  C   UNL     1       0.373  14.644  18.823  0.00  0.00    +0.000 A 
ATOM     23  N   UNL     1      -0.413  13.599  18.410  0.00  0.00    +0.000 NA
ATOM     24  C   UNL     1      -0.357  12.392  19.088  0.00  0.00    +0.000 A 
ENDBRANCH   8  14
BRANCH   1  26
ATOM     25  C   UNL     1      -7.917  14.123  18.950  0.00  0.00    +0.000 C 
ATOM     26  O   UNL     1      -7.570  12.750  19.078  0.00  0.00    +0.000 OA
ENDBRANCH   1  26
TORSDOF 2
ENDMDL
MODEL 4
REMARK VINA RESULT:      -6.8      5.098      7.948
REMARK  Name = 
REMARK  3 active torsions:
REMARK  status: ('A' for Active; 'I' for Inactive)
REMARK    1  A    between atoms: C_1  and  O_2
REMARK    2  A    between atoms: O_2  and  C_3
REMARK    3  A    between atoms: N_10  and  C_11
REMARK                            x       y       z     vdW  Elec       q    Type
REMARK                         _______ _______ _______ _____ _____    ______ ____
ROOT
ATOM      1  C   UNL     1      -1.624  11.091  18.616  0.00  0.00    +0.000 A 
ATOM      2  C   UNL     1      -1.377  11.202  19.978  0.00  0.00    +0.000 A 
ATOM      3  C   UNL     1      -0.474  10.305  20.613  0.00  0.00    +0.000 A 
ATOM      4  C   UNL     1       0.234   9.288  19.930  0.00  0.00    +0.000 A 
ATOM      5  C   UNL     1      -0.098   9.175  18.568  0.00  0.00    +0.000 A 
ATOM      6  C   UNL     1      -0.996  10.052  17.937  0.00  0.00    +0.000 A 
ATOM      7  F   UNL     1      -1.239   9.872  16.627  0.00  0.00    +0.000 F 
ATOM      8  N   UNL     1       1.195   8.419  20.604  0.00  0.00    +0.000 N 
ATOM      9  C   UNL     1       1.586   8.903  21.945  0.00  0.00    +0.000 C 
ATOM     10  C   UNL     1       0.502   9.652  22.718  0.00  0.00    +0.000 C 
ATOM     11  O   UNL     1       0.458   9.670  23.950  0.00  0.00    +0.000 OA
ATOM     12  N   UNL     1      -0.363  10.415  22.002  0.00  0.00    +0.000 N 
ATOM     13  H   UNL     1      -1.007  11.003  22.530  0.00  0.00    +0.000 HD
ENDROOT
BRANCH   8  14
ATOM     14  C   UNL     1       1.811   7.222  20.116  0.00  0.00    +0.000 A 
ATOM     15  N   UNL     1       1.500   6.116  20.830  0.00  0.00    +0.000 NA
ATOM     16  C   UNL     1       2.141   4.983  20.588  0.00  0.00    +0.000 A 
ATOM     17 CL   UNL     1       1.654   3.620  21.484  0.00  0.00    +0.000 Cl
ATOM     18  N   UNL     1       3.143   4.820  19.752  0.00  0.00    +0.000 NA
ATOM     19  C   UNL     1       3.412   5.863  18.988  0.00  0.00    +0.000 A 
ATOM     20  C   UNL     1       4.444   5.629  18.096  0.00  0.00    +0.000 A 
ATOM     21  C   UNL     1       4.735   6.522  17.082  0.00  0.00    +0.000 A 
ATOM     22  C   UNL     1       3.985   7.674  17.053  0.00  0.00    +0.000 A 
ATOM     23  N   UNL     1       3.055   8.016  18.000  0.00  0.00    +0.000 NA
ATOM     24  C   UNL     1       2.743   7.117  19.006  0.00  0.00    +0.000 A 
ENDBRANCH   8  14
BRANCH   1  26
ATOM     25  C   UNL     1      -3.821  11.547  17.726  0.00  0.00    +0.000 C 
ATOM     26  O   UNL     1      -2.446  11.879  17.862  0.00  0.00    +0.000 OA
ENDBRANCH   1  26
TORSDOF 2
ENDMDL
MODEL 5
REMARK VINA RESULT:      -6.7      1.976      2.660
REMARK  Name = 
REMARK  3 active torsions:
REMARK  status: ('A' for Active; 'I' for Inactive)
REMARK    1  A    between atoms: C_1  and  O_2
REMARK    2  A    between atoms: O_2  and  C_3
REMARK    3  A    between atoms: N_10  and  C_11
REMARK                            x       y       z     vdW  Elec       q    Type
REMARK                         _______ _______ _______ _____ _____    ______ ____
ROOT
ATOM      1  C   UNL     1       6.613   4.397  13.908  0.00  0.00    +0.000 A 
ATOM      2  C   UNL     1       7.294   5.408  14.572  0.00  0.00    +0.000 A 
ATOM      3  C   UNL     1       7.086   5.612  15.965  0.00  0.00    +0.000 A 
ATOM      4  C   UNL     1       6.222   4.817  16.754  0.00  0.00    +0.000 A 
ATOM      5  C   UNL     1       5.508   3.849  16.025  0.00  0.00    +0.000 A 
ATOM      6  C   UNL     1       5.702   3.650  14.648  0.00  0.00    +0.000 A 
ATOM      7  F   UNL     1       4.982   2.691  14.041  0.00  0.00    +0.000 F 
ATOM      8  N   UNL     1       6.073   5.020  18.193  0.00  0.00    +0.000 N 
ATOM      9  C   UNL     1       7.119   5.886  18.777  0.00  0.00    +0.000 C 
ATOM     10  C   UNL     1       7.649   6.988  17.862  0.00  0.00    +0.000 C 
ATOM     11  O   UNL     1       8.098   8.052  18.295  0.00  0.00    +0.000 OA
ATOM     12  N   UNL     1       7.728   6.716  16.534  0.00  0.00    +0.000 N 
ATOM     13  H   UNL     1       8.191   7.409  15.946  0.00  0.00    +0.000 HD
ENDROOT
BRANCH   8  14
ATOM     14  C   UNL     1       5.092   4.463  19.076  0.00  0.00    +0.000 A 
ATOM     15  N   UNL     1       5.377   3.205  19.485  0.00  0.00    +0.000 NA
ATOM     16  C   UNL     1       4.466   2.518  20.159  0.00  0.00    +0.000 A 
ATOM     17 CL   UNL     1       4.918   0.966  20.694  0.00  0.00    +0.000 Cl
ATOM     18  N   UNL     1       3.236   2.905  20.419  0.00  0.00    +0.000 NA
ATOM     19  C   UNL     1       2.962   4.156  20.099  0.00  0.00    +0.000 A 
ATOM     20  C   UNL     1       1.671   4.529  20.431  0.00  0.00    +0.000 A 
ATOM     21  C   UNL     1       1.262   5.848  20.363  0.00  0.00    +0.000 A 
ATOM     22  C   UNL     1       2.188   6.746  19.890  0.00  0.00    +0.000 A 
ATOM     23  N   UNL     1       3.426   6.403  19.412  0.00  0.00    +0.000 NA
ATOM     24  C   UNL     1       3.850   5.087  19.497  0.00  0.00    +0.000 A 
ENDBRANCH   8  14
BRANCH   1  26
ATOM     25  C   UNL     1       7.442   4.905  11.699  0.00  0.00    +0.000 C 
ATOM     26  O   UNL     1       6.715   4.067  12.587  0.00  0.00    +0.000 OA
ENDBRANCH   1  26
TORSDOF 2
ENDMDL
MODEL 6
REMARK VINA RESULT:      -6.7      3.393      6.703
REMARK  Name = 
REMARK  3 active torsions:
REMARK  status: ('A' for Active; 'I' for Inactive)
REMARK    1  A    between atoms: C_1  and  O_2
REMARK    2  A    between atoms: O_2  and  C_3
REMARK    3  A    between atoms: N_10  and  C_11
REMARK                            x       y       z     vdW  Elec       q    Type
REMARK                         _______ _______ _______ _____ _____    ______ ____
ROOT
ATOM      1  C   UNL     1       1.238   7.147  20.455  0.00  0.00    +0.000 A 
ATOM      2  C   UNL     1       1.358   5.787  20.707  0.00  0.00    +0.000 A 
ATOM      3  C   UNL     1       2.474   5.064  20.201  0.00  0.00    +0.000 A 
ATOM      4  C   UNL     1       3.520   5.656  19.454  0.00  0.00    +0.000 A 
ATOM      5  C   UNL     1       3.322   7.019  19.171  0.00  0.00    +0.000 A 
ATOM      6  C   UNL     1       2.217   7.735  19.659  0.00  0.00    +0.000 A 
ATOM      7  F   UNL     1       2.121   9.040  19.347  0.00  0.00    +0.000 F 
ATOM      8  N   UNL     1       4.679   4.893  18.996  0.00  0.00    +0.000 N 
ATOM      9  C   UNL     1       4.809   3.572  19.646  0.00  0.00    +0.000 C 
ATOM     10  C   UNL     1       3.495   2.888  20.018  0.00  0.00    +0.000 C 
ATOM     11  O   UNL     1       3.379   1.662  20.078  0.00  0.00    +0.000 OA
ATOM     12  N   UNL     1       2.464   3.682  20.408  0.00  0.00    +0.000 N 
ATOM     13  H   UNL     1       1.631   3.215  20.766  0.00  0.00    +0.000 HD
ENDROOT
BRANCH   8  14
ATOM     14  C   UNL     1       5.688   5.283  18.057  0.00  0.00    +0.000 A 
ATOM     15  N   UNL     1       6.497   6.271  18.503  0.00  0.00    +0.000 NA
ATOM     16  C   UNL     1       7.353   6.838  17.666  0.00  0.00    +0.000 A 
ATOM     17 CL   UNL     1       8.380   8.032  18.313  0.00  0.00    +0.000 Cl
ATOM     18  N   UNL     1       7.459   6.595  16.378  0.00  0.00    +0.000 NA
ATOM     19  C   UNL     1       6.736   5.581  15.938  0.00  0.00    +0.000 A 
ATOM     20  C   UNL     1       6.913   5.337  14.587  0.00  0.00    +0.000 A 
ATOM     21  C   UNL     1       6.404   4.200  13.988  0.00  0.00    +0.000 A 
ATOM     22  C   UNL     1       5.666   3.367  14.795  0.00  0.00    +0.000 A 
ATOM     23  N   UNL     1       5.341   3.641  16.098  0.00  0.00    +0.000 NA
ATOM     24  C   UNL     1       5.865   4.767  16.711  0.00  0.00    +0.000 A 
ENDBRANCH   8  14
BRANCH   1  26
ATOM     25  C   UNL     1       0.436   8.784  22.036  0.00  0.00    +0.000 C 
ATOM     26  O   UNL     1       0.243   7.978  20.880  0.00  0.00    +0.000 OA
ENDBRANCH   1  26
TORSDOF 2
ENDMDL
MODEL 7
REMARK VINA RESULT:      -6.6      4.888      8.086
REMARK  Name = 
REMARK  3 active torsions:
REMARK  status: ('A' for Active; 'I' for Inactive)
REMARK    1  A    between atoms: C_1  and  O_2
REMARK    2  A    between atoms: O_2  and  C_3
REMARK    3  A    between atoms: N_10  and  C_11
REMARK                            x       y       z     vdW  Elec       q    Type
REMARK                         _______ _______ _______ _____ _____    ______ ____
ROOT
ATOM      1  C   UNL     1      -0.290  10.528  22.307  0.00  0.00    +0.000 A 
ATOM      2  C   UNL     1       0.135  11.192  21.164  0.00  0.00    +0.000 A 
ATOM      3  C   UNL     1       0.859  10.491  20.160  0.00  0.00    +0.000 A 
ATOM      4  C   UNL     1       1.168   9.112  20.233  0.00  0.00    +0.000 A 
ATOM      5  C   UNL     1       0.773   8.499  21.436  0.00  0.00    +0.000 A 
ATOM      6  C   UNL     1       0.067   9.189  22.435  0.00  0.00    +0.000 A 
ATOM      7  F   UNL     1      -0.279   8.513  23.544  0.00  0.00    +0.000 F 
ATOM      8  N   UNL     1       1.866   8.412  19.158  0.00  0.00    +0.000 N 
ATOM      9  C   UNL     1       1.923   9.178  17.896  0.00  0.00    +0.000 C 
ATOM     10  C   UNL     1       2.002  10.696  18.048  0.00  0.00    +0.000 C 
ATOM     11  O   UNL     1       2.544  11.420  17.210  0.00  0.00    +0.000 OA
ATOM     12  N   UNL     1       1.341  11.255  19.094  0.00  0.00    +0.000 N 
ATOM     13  H   UNL     1       1.300  12.274  19.124  0.00  0.00    +0.000 HD
ENDROOT
BRANCH   8  14
ATOM     14  C   UNL     1       2.442   7.100  19.175  0.00  0.00    +0.000 A 
ATOM     15  N   UNL     1       1.843   6.250  20.039  0.00  0.00    +0.000 NA
ATOM     16  C   UNL     1       2.390   5.067  20.275  0.00  0.00    +0.000 A 
ATOM     17 CL   UNL     1       1.547   4.028  21.328  0.00  0.00    +0.000 Cl
ATOM     18  N   UNL     1       3.540   4.636  19.805  0.00  0.00    +0.000 NA
ATOM     19  C   UNL     1       4.104   5.414  18.900  0.00  0.00    +0.000 A 
ATOM     20  C   UNL     1       5.288   4.897  18.404  0.00  0.00    +0.000 A 
ATOM     21  C   UNL     1       5.918   5.461  17.310  0.00  0.00    +0.000 A 
ATOM     22  C   UNL     1       5.334   6.591  16.789  0.00  0.00    +0.000 A 
ATOM     23  N   UNL     1       4.246   7.222  17.335  0.00  0.00    +0.000 NA
ATOM     24  C   UNL     1       3.598   6.651  18.418  0.00  0.00    +0.000 A 
ENDBRANCH   8  14
BRANCH   1  26
ATOM     25  C   UNL     1      -2.129  11.881  23.089  0.00  0.00    +0.000 C 
ATOM     26  O   UNL     1      -1.003  11.052  23.347  0.00  0.00    +0.000 OA
ENDBRANCH   1  26
TORSDOF 2
ENDMDL
MODEL 8
REMARK VINA RESULT:      -6.4     10.200     12.259
REMARK  Name = 
REMARK  3 active torsions:
REMARK  status: ('A' for Active; 'I' for Inactive)
REMARK    1  A    between atoms: C_1  and  O_2
REMARK    2  A    between atoms: O_2  and  C_3
REMARK    3  A    between atoms: N_10  and  C_11
REMARK                            x       y       z     vdW  Elec       q    Type
REMARK                         _______ _______ _______ _____ _____    ______ ____
ROOT
ATOM      1  C   UNL     1      -3.227  10.507  16.490  0.00  0.00    +0.000 A 
ATOM      2  C   UNL     1      -4.497  11.055  16.621  0.00  0.00    +0.000 A 
ATOM      3  C   UNL     1      -4.842  11.782  17.794  0.00  0.00    +0.000 A 
ATOM      4  C   UNL     1      -3.947  12.016  18.864  0.00  0.00    +0.000 A 
ATOM      5  C   UNL     1      -2.697  11.389  18.714  0.00  0.00    +0.000 A 
ATOM      6  C   UNL     1      -2.354  10.662  17.563  0.00  0.00    +0.000 A 
ATOM      7  F   UNL     1      -1.129  10.110  17.506  0.00  0.00    +0.000 F 
ATOM      8  N   UNL     1      -4.318  12.814  20.030  0.00  0.00    +0.000 N 
ATOM      9  C   UNL     1      -5.557  13.596  19.838  0.00  0.00    +0.000 C 
ATOM     10  C   UNL     1      -6.610  12.954  18.938  0.00  0.00    +0.000 C 
ATOM     11  O   UNL     1      -7.817  13.175  19.065  0.00  0.00    +0.000 OA
ATOM     12  N   UNL     1      -6.169  12.208  17.892  0.00  0.00    +0.000 N 
ATOM     13  H   UNL     1      -6.872  11.880  17.229  0.00  0.00    +0.000 HD
ENDROOT
BRANCH   8  14
ATOM     14  C   UNL     1      -3.622  12.952  21.275  0.00  0.00    +0.000 A 
ATOM     15  N   UNL     1      -4.325  12.520  22.346  0.00  0.00    +0.000 NA
ATOM     16  C   UNL     1      -3.865  12.754  23.565  0.00  0.00    +0.000 A 
ATOM     17 CL   UNL     1      -4.773  12.127  24.862  0.00  0.00    +0.000 Cl
ATOM     18  N   UNL     1      -2.797  13.459  23.871  0.00  0.00    +0.000 NA
ATOM     19  C   UNL     1      -2.053  13.823  22.843  0.00  0.00    +0.000 A 
ATOM     20  C   UNL     1      -0.919  14.524  23.217  0.00  0.00    +0.000 A 
ATOM     21  C   UNL     1       0.082  14.812  22.308  0.00  0.00    +0.000 A 
ATOM     22  C   UNL     1      -0.145  14.420  21.010  0.00  0.00    +0.000 A 
ATOM     23  N   UNL     1      -1.313  13.857  20.565  0.00  0.00    +0.000 NA
ATOM     24  C   UNL     1      -2.311  13.545  21.473  0.00  0.00    +0.000 A 
ENDBRANCH   8  14
BRANCH   1  26
ATOM     25  C   UNL     1      -3.260  10.032  14.124  0.00  0.00    +0.000 C 
ATOM     26  O   UNL     1      -2.741   9.802  15.428  0.00  0.00    +0.000 OA
ENDBRANCH   1  26
TORSDOF 2
ENDMDL
MODEL 9
REMARK VINA RESULT:      -6.3      8.677     11.061
REMARK  Name = 
REMARK  3 active torsions:
REMARK  status: ('A' for Active; 'I' for Inactive)
REMARK    1  A    between atoms: C_1  and  O_2
REMARK    2  A    between atoms: O_2  and  C_3
REMARK    3  A    between atoms: N_10  and  C_11
REMARK                            x       y       z     vdW  Elec       q    Type
REMARK                         _______ _______ _______ _____ _____    ______ ____
ROOT
ATOM      1  C   UNL     1      -3.441  10.497  16.078  0.00  0.00    +0.000 A 
ATOM      2  C   UNL     1      -2.190   9.999  16.416  0.00  0.00    +0.000 A 
ATOM      3  C   UNL     1      -1.574  10.388  17.638  0.00  0.00    +0.000 A 
ATOM      4  C   UNL     1      -2.176  11.258  18.578  0.00  0.00    +0.000 A 
ATOM      5  C   UNL     1      -3.412  11.785  18.162  0.00  0.00    +0.000 A 
ATOM      6  C   UNL     1      -4.020  11.412  16.952  0.00  0.00    +0.000 A 
ATOM      7  F   UNL     1      -5.209  11.960  16.648  0.00  0.00    +0.000 F 
ATOM      8  N   UNL     1      -1.538  11.594  19.848  0.00  0.00    +0.000 N 
ATOM      9  C   UNL     1      -0.401  10.713  20.188  0.00  0.00    +0.000 C 
ATOM     10  C   UNL     1       0.403  10.187  19.001  0.00  0.00    +0.000 C 
ATOM     11  O   UNL     1       1.598   9.897  19.085  0.00  0.00    +0.000 OA
ATOM     12  N   UNL     1      -0.273   9.927  17.852  0.00  0.00    +0.000 N 
ATOM     13  H   UNL     1       0.246   9.467  17.104  0.00  0.00    +0.000 HD
ENDROOT
BRANCH   8  14
ATOM     14  C   UNL     1      -1.902  12.614  20.787  0.00  0.00    +0.000 A 
ATOM     15  N   UNL     1      -2.528  12.144  21.890  0.00  0.00    +0.000 NA
ATOM     16  C   UNL     1      -3.068  12.998  22.746  0.00  0.00    +0.000 A 
ATOM     17 CL   UNL     1      -3.785  12.336  24.140  0.00  0.00    +0.000 Cl
ATOM     18  N   UNL     1      -3.138  14.303  22.601  0.00  0.00    +0.000 NA
ATOM     19  C   UNL     1      -2.467  14.791  21.574  0.00  0.00    +0.000 A 
ATOM     20  C   UNL     1      -2.535  16.171  21.489  0.00  0.00    +0.000 A 
ATOM     21  C   UNL     1      -1.737  16.878  20.609  0.00  0.00    +0.000 A 
ATOM     22  C   UNL     1      -0.927  16.130  19.789  0.00  0.00    +0.000 A 
ATOM     23  N   UNL     1      -0.933  14.761  19.735  0.00  0.00    +0.000 NA
ATOM     24  C   UNL     1      -1.714  14.045  20.628  0.00  0.00    +0.000 A 
ENDBRANCH   8  14
BRANCH   1  26
ATOM     25  C   UNL     1      -3.504   9.998  13.718  0.00  0.00    +0.000 C 
ATOM     26  O   UNL     1      -4.167  10.209  14.958  0.00  0.00    +0.000 OA
ENDBRANCH   1  26
TORSDOF 2
ENDMDL
