MODEL 1
REMARK VINA RESULT:      -8.0      0.000      0.000
REMARK  Name = 
REMARK  4 active torsions:
REMARK  status: ('A' for Active; 'I' for Inactive)
REMARK    1  A    between atoms: C_1  and  C_2
REMARK    2  A    between atoms: C_7  and  C_8
REMARK    3  A    between atoms: C_8  and  N_9
REMARK    4  A    between atoms: C_10  and  C_12
REMARK                            x       y       z     vdW  Elec       q    Type
REMARK                         _______ _______ _______ _____ _____    ______ ____
ROOT
ATOM      1  C   UNL     1       4.733   6.993  16.503  0.00  0.00    +0.000 C 
ATOM      2  C   UNL     1       3.960   6.506  17.699  0.00  0.00    +0.000 A 
ATOM      3  C   UNL     1       4.245   5.227  18.205  0.00  0.00    +0.000 A 
ATOM      4  C   UNL     1       3.504   4.699  19.256  0.00  0.00    +0.000 A 
ATOM      5  C   UNL     1       2.500   5.457  19.854  0.00  0.00    +0.000 A 
ATOM      6  C   UNL     1       2.245   6.753  19.401  0.00  0.00    +0.000 A 
ATOM      7  C   UNL     1       2.948   7.291  18.304  0.00  0.00    +0.000 A 
ATOM      8  O   UNL     1       1.781   5.007  20.928  0.00  0.00    +0.000 OA
ATOM      9  C   UNL     1       0.972   3.877  20.584  0.00  0.00    +0.000 C 
ATOM     10  C   UNL     1       1.754   2.569  20.590  0.00  0.00    +0.000 C 
ATOM     11  C   UNL     1       2.783   2.523  19.470  0.00  0.00    +0.000 C 
ATOM     12  O   UNL     1       3.846   3.449  19.694  0.00  0.00    +0.000 OA
ENDROOT
BRANCH   7  13
ATOM     13  C   UNL     1       2.646   8.670  17.751  0.00  0.00    +0.000 C 
BRANCH  13  14
ATOM     14  N   UNL     1       1.251   9.044  17.757  0.00  0.00    +0.000 N 
ATOM     15  C   UNL     1       0.797  10.165  18.421  0.00  0.00    +0.000 C 
ATOM     16  O   UNL     1       1.512  10.931  19.049  0.00  0.00    +0.000 OA
ATOM     17  H   UNL     1       0.647   8.573  17.099  0.00  0.00    +0.000 HD
BRANCH  15  18
ATOM     18  C   UNL     1      -0.660  10.431  18.287  0.00  0.00    +0.000 A 
ATOM     19  C   UNL     1      -1.445   9.733  17.356  0.00  0.00    +0.000 A 
ATOM     20  C   UNL     1      -2.797  10.048  17.211  0.00  0.00    +0.000 A 
ATOM     21  C   UNL     1      -3.357  11.043  18.006  0.00  0.00    +0.000 A 
ATOM     22  F   UNL     1      -4.649  11.358  17.849  0.00  0.00    +0.000 F 
ATOM     23  C   UNL     1      -2.599  11.716  18.959  0.00  0.00    +0.000 A 
ATOM     24  C   UNL     1      -1.246  11.404  19.107  0.00  0.00    +0.000 A 
ENDBRANCH  15  18
ENDBRANCH  13  14
ENDBRANCH   7  13
TORSDOF 3
ENDMDL
MODEL 2
REMARK VINA RESULT:      -7.9      0.199      1.029
REMARK  Name = 
REMARK  4 active torsions:
REMARK  status: ('A' for Active; 'I' for Inactive)
REMARK    1  A    between atoms: C_1  and  C_2
REMARK    2  A    between atoms: C_7  and  C_8
REMARK    3  A    between atoms: C_8  and  N_9
REMARK    4  A    between atoms: C_10  and  C_12
REMARK                            x       y       z     vdW  Elec       q    Type
REMARK                         _______ _______ _______ _____ _____    ______ ____
ROOT
ATOM      1  C   UNL     1       4.633   7.024  16.372  0.00  0.00    +0.000 C 
ATOM      2  C   UNL     1       3.895   6.527  17.587  0.00  0.00    +0.000 A 
ATOM      3  C   UNL     1       4.138   5.215  18.027  0.00  0.00    +0.000 A 
ATOM      4  C   UNL     1       3.424   4.682  19.094  0.00  0.00    +0.000 A 
ATOM      5  C   UNL     1       2.492   5.464  19.771  0.00  0.00    +0.000 A 
ATOM      6  C   UNL     1       2.283   6.789  19.383  0.00  0.00    +0.000 A 
ATOM      7  C   UNL     1       2.957   7.336  18.273  0.00  0.00    +0.000 A 
ATOM      8  O   UNL     1       1.804   5.007  20.863  0.00  0.00    +0.000 OA
ATOM      9  C   UNL     1       0.921   3.935  20.519  0.00  0.00    +0.000 C 
ATOM     10  C   UNL     1       1.633   2.590  20.433  0.00  0.00    +0.000 C 
ATOM     11  C   UNL     1       2.601   2.539  19.260  0.00  0.00    +0.000 C 
ATOM     12  O   UNL     1       3.721   3.399  19.464  0.00  0.00    +0.000 OA
ENDROOT
BRANCH   7  13
ATOM     13  C   UNL     1       2.701   8.751  17.790  0.00  0.00    +0.000 C 
BRANCH  13  14
ATOM     14  N   UNL     1       1.310   9.130  17.709  0.00  0.00    +0.000 N 
ATOM     15  C   UNL     1       0.761  10.080  18.545  0.00  0.00    +0.000 C 
ATOM     16  O   UNL     1       1.382  10.679  19.411  0.00  0.00    +0.000 OA
ATOM     17  H   UNL     1       0.798   8.826  16.893  0.00  0.00    +0.000 HD
BRANCH  15  18
ATOM     18  C   UNL     1      -0.673  10.387  18.296  0.00  0.00    +0.000 A 
ATOM     19  C   UNL     1      -1.343  11.380  19.027  0.00  0.00    +0.000 A 
ATOM     20  C   UNL     1      -2.704  11.602  18.813  0.00  0.00    +0.000 A 
ATOM     21  C   UNL     1      -3.380  10.845  17.862  0.00  0.00    +0.000 A 
ATOM     22  F   UNL     1      -4.690  11.046  17.675  0.00  0.00    +0.000 F 
ATOM     23  C   UNL     1      -2.719   9.884  17.104  0.00  0.00    +0.000 A 
ATOM     24  C   UNL     1      -1.357   9.658  17.315  0.00  0.00    +0.000 A 
ENDBRANCH  15  18
ENDBRANCH  13  14
ENDBRANCH   7  13
TORSDOF 3
ENDMDL
MODEL 3
REMARK VINA RESULT:      -7.8      4.117      8.031
REMARK  Name = 
REMARK  4 active torsions:
REMARK  status: ('A' for Active; 'I' for Inactive)
REMARK    1  A    between atoms: C_1  and  C_2
REMARK    2  A    between atoms: C_7  and  C_8
REMARK    3  A    between atoms: C_8  and  N_9
REMARK    4  A    between atoms: C_10  and  C_12
REMARK                            x       y       z     vdW  Elec       q    Type
REMARK                         _______ _______ _______ _____ _____    ______ ____
ROOT
ATOM      1  C   UNL     1       1.714   3.903  20.873  0.00  0.00    +0.000 C 
ATOM      2  C   UNL     1       1.971   5.206  20.164  0.00  0.00    +0.000 A 
ATOM      3  C   UNL     1       1.632   6.402  20.817  0.00  0.00    +0.000 A 
ATOM      4  C   UNL     1       1.775   7.626  20.174  0.00  0.00    +0.000 A 
ATOM      5  C   UNL     1       2.306   7.682  18.888  0.00  0.00    +0.000 A 
ATOM      6  C   UNL     1       2.703   6.506  18.248  0.00  0.00    +0.000 A 
ATOM      7  C   UNL     1       2.520   5.249  18.859  0.00  0.00    +0.000 A 
ATOM      8  O   UNL     1       2.522   8.865  18.233  0.00  0.00    +0.000 OA
ATOM      9  C   UNL     1       1.293   9.541  17.950  0.00  0.00    +0.000 C 
ATOM     10  C   UNL     1       0.763  10.326  19.144  0.00  0.00    +0.000 C 
ATOM     11  C   UNL     1       0.318   9.405  20.270  0.00  0.00    +0.000 C 
ATOM     12  O   UNL     1       1.427   8.745  20.880  0.00  0.00    +0.000 OA
ENDROOT
BRANCH   7  13
ATOM     13  C   UNL     1       2.883   3.953  18.161  0.00  0.00    +0.000 C 
BRANCH  13  14
ATOM     14  N   UNL     1       3.705   4.098  16.982  0.00  0.00    +0.000 N 
ATOM     15  C   UNL     1       5.079   4.207  17.058  0.00  0.00    +0.000 C 
ATOM     16  O   UNL     1       5.716   4.189  18.101  0.00  0.00    +0.000 OA
ATOM     17  H   UNL     1       3.266   3.920  16.091  0.00  0.00    +0.000 HD
BRANCH  15  18
ATOM     18  C   UNL     1       5.777   4.303  15.749  0.00  0.00    +0.000 A 
ATOM     19  C   UNL     1       6.969   5.031  15.610  0.00  0.00    +0.000 A 
ATOM     20  C   UNL     1       7.567   5.153  14.355  0.00  0.00    +0.000 A 
ATOM     21  C   UNL     1       6.982   4.535  13.254  0.00  0.00    +0.000 A 
ATOM     22  F   UNL     1       7.548   4.672  12.048  0.00  0.00    +0.000 F 
ATOM     23  C   UNL     1       5.822   3.778  13.386  0.00  0.00    +0.000 A 
ATOM     24  C   UNL     1       5.220   3.654  14.639  0.00  0.00    +0.000 A 
ENDBRANCH  15  18
ENDBRANCH  13  14
ENDBRANCH   7  13
TORSDOF 3
ENDMDL
MODEL 4
REMARK VINA RESULT:      -7.7      4.289      8.061
REMARK  Name = 
REMARK  4 active torsions:
REMARK  status: ('A' for Active; 'I' for Inactive)
REMARK    1  A    between atoms: C_1  and  C_2
REMARK    2  A    between atoms: C_7  and  C_8
REMARK    3  A    between atoms: C_8  and  N_9
REMARK    4  A    between atoms: C_10  and  C_12
REMARK                            x       y       z     vdW  Elec       q    Type
REMARK                         _______ _______ _______ _____ _____    ______ ____
ROOT
ATOM      1  C   UNL     1       1.862   3.635  20.558  0.00  0.00    +0.000 C 
ATOM      2  C   UNL     1       2.147   4.956  19.894  0.00  0.00    +0.000 A 
ATOM      3  C   UNL     1       1.806   6.135  20.575  0.00  0.00    +0.000 A 
ATOM      4  C   UNL     1       1.975   7.377  19.972  0.00  0.00    +0.000 A 
ATOM      5  C   UNL     1       2.533   7.465  18.699  0.00  0.00    +0.000 A 
ATOM      6  C   UNL     1       2.932   6.304  18.033  0.00  0.00    +0.000 A 
ATOM      7  C   UNL     1       2.724   5.032  18.602  0.00  0.00    +0.000 A 
ATOM      8  O   UNL     1       2.774   8.664  18.084  0.00  0.00    +0.000 OA
ATOM      9  C   UNL     1       1.559   9.361  17.796  0.00  0.00    +0.000 C 
ATOM     10  C   UNL     1       1.012  10.116  19.001  0.00  0.00    +0.000 C 
ATOM     11  C   UNL     1       0.534   9.167  20.090  0.00  0.00    +0.000 C 
ATOM     12  O   UNL     1       1.623   8.478  20.703  0.00  0.00    +0.000 OA
ENDROOT
BRANCH   7  13
ATOM     13  C   UNL     1       3.088   3.753  17.873  0.00  0.00    +0.000 C 
BRANCH  13  14
ATOM     14  N   UNL     1       3.817   3.934  16.640  0.00  0.00    +0.000 N 
ATOM     15  C   UNL     1       5.184   4.125  16.620  0.00  0.00    +0.000 C 
ATOM     16  O   UNL     1       5.891   4.155  17.616  0.00  0.00    +0.000 OA
ATOM     17  H   UNL     1       3.329   3.720  15.783  0.00  0.00    +0.000 HD
BRANCH  15  18
ATOM     18  C   UNL     1       5.783   4.248  15.264  0.00  0.00    +0.000 A 
ATOM     19  C   UNL     1       5.218   3.598  14.156  0.00  0.00    +0.000 A 
ATOM     20  C   UNL     1       5.839   3.682  12.909  0.00  0.00    +0.000 A 
ATOM     21  C   UNL     1       7.006   4.427  12.774  0.00  0.00    +0.000 A 
ATOM     22  F   UNL     1       7.611   4.489  11.581  0.00  0.00    +0.000 F 
ATOM     23  C   UNL     1       7.555   5.108  13.856  0.00  0.00    +0.000 A 
ATOM     24  C   UNL     1       6.937   5.026  15.106  0.00  0.00    +0.000 A 
ENDBRANCH  15  18
ENDBRANCH  13  14
ENDBRANCH   7  13
TORSDOF 3
ENDMDL
MODEL 5
REMARK VINA RESULT:      -7.7      1.173      1.803
REMARK  Name = 
REMARK  4 active torsions:
REMARK  status: ('A' for Active; 'I' for Inactive)
REMARK    1  A    between atoms: C_1  and  C_2
REMARK    2  A    between atoms: C_7  and  C_8
REMARK    3  A    between atoms: C_8  and  N_9
REMARK    4  A    between atoms: C_10  and  C_12
REMARK                            x       y       z     vdW  Elec       q    Type
REMARK                         _______ _______ _______ _____ _____    ______ ____
ROOT
ATOM      1  C   UNL     1       2.573   8.654  17.682  0.00  0.00    +0.000 C 
ATOM      2  C   UNL     1       2.433   7.518  18.659  0.00  0.00    +0.000 A 
ATOM      3  C   UNL     1       2.912   6.251  18.287  0.00  0.00    +0.000 A 
ATOM      4  C   UNL     1       2.734   5.152  19.120  0.00  0.00    +0.000 A 
ATOM      5  C   UNL     1       2.121   5.309  20.361  0.00  0.00    +0.000 A 
ATOM      6  C   UNL     1       1.693   6.573  20.771  0.00  0.00    +0.000 A 
ATOM      7  C   UNL     1       1.816   7.692  19.922  0.00  0.00    +0.000 A 
ATOM      8  O   UNL     1       1.974   4.272  21.243  0.00  0.00    +0.000 OA
ATOM      9  C   UNL     1       1.092   3.268  20.732  0.00  0.00    +0.000 C 
ATOM     10  C   UNL     1       1.782   2.315  19.764  0.00  0.00    +0.000 C 
ATOM     11  C   UNL     1       2.180   3.014  18.473  0.00  0.00    +0.000 C 
ATOM     12  O   UNL     1       3.233   3.955  18.687  0.00  0.00    +0.000 OA
ENDROOT
BRANCH   7  13
ATOM     13  C   UNL     1       1.301   9.063  20.316  0.00  0.00    +0.000 C 
BRANCH  13  14
ATOM     14  N   UNL     1       0.010   9.414  19.773  0.00  0.00    +0.000 N 
ATOM     15  C   UNL     1      -0.197  10.592  19.084  0.00  0.00    +0.000 C 
ATOM     16  O   UNL     1       0.669  11.427  18.869  0.00  0.00    +0.000 OA
ATOM     17  H   UNL     1      -0.688   8.686  19.740  0.00  0.00    +0.000 HD
BRANCH  15  18
ATOM     18  C   UNL     1      -1.573  10.776  18.550  0.00  0.00    +0.000 A 
ATOM     19  C   UNL     1      -2.445  11.730  19.099  0.00  0.00    +0.000 A 
ATOM     20  C   UNL     1      -3.750  11.836  18.617  0.00  0.00    +0.000 A 
ATOM     21  C   UNL     1      -4.169  11.005  17.583  0.00  0.00    +0.000 A 
ATOM     22  F   UNL     1      -5.429  11.096  17.138  0.00  0.00    +0.000 F 
ATOM     23  C   UNL     1      -3.303  10.083  17.005  0.00  0.00    +0.000 A 
ATOM     24  C   UNL     1      -1.996   9.972  17.484  0.00  0.00    +0.000 A 
ENDBRANCH  15  18
ENDBRANCH  13  14
ENDBRANCH   7  13
TORSDOF 3
ENDMDL
MODEL 6
REMARK VINA RESULT:      -7.6      1.186      1.523
REMARK  Name = 
REMARK  4 active torsions:
REMARK  status: ('A' for Active; 'I' for Inactive)
REMARK    1  A    between atoms: C_1  and  C_2
REMARK    2  A    between atoms: C_7  and  C_8
REMARK    3  A    between atoms: C_8  and  N_9
REMARK    4  A    between atoms: C_10  and  C_12
REMARK                            x       y       z     vdW  Elec       q    Type
REMARK                         _______ _______ _______ _____ _____    ______ ____
ROOT
ATOM      1  C   UNL     1       2.551   8.679  17.686  0.00  0.00    +0.000 C 
ATOM      2  C   UNL     1       2.417   7.543  18.665  0.00  0.00    +0.000 A 
ATOM      3  C   UNL     1       2.907   6.280  18.296  0.00  0.00    +0.000 A 
ATOM      4  C   UNL     1       2.737   5.182  19.131  0.00  0.00    +0.000 A 
ATOM      5  C   UNL     1       2.119   5.335  20.370  0.00  0.00    +0.000 A 
ATOM      6  C   UNL     1       1.680   6.596  20.777  0.00  0.00    +0.000 A 
ATOM      7  C   UNL     1       1.795   7.715  19.926  0.00  0.00    +0.000 A 
ATOM      8  O   UNL     1       1.978   4.299  21.253  0.00  0.00    +0.000 OA
ATOM      9  C   UNL     1       1.106   3.286  20.742  0.00  0.00    +0.000 C 
ATOM     10  C   UNL     1       1.806   2.337  19.778  0.00  0.00    +0.000 C 
ATOM     11  C   UNL     1       2.202   3.038  18.486  0.00  0.00    +0.000 C 
ATOM     12  O   UNL     1       3.246   3.987  18.701  0.00  0.00    +0.000 OA
ENDROOT
BRANCH   7  13
ATOM     13  C   UNL     1       1.268   9.082  20.317  0.00  0.00    +0.000 C 
BRANCH  13  14
ATOM     14  N   UNL     1      -0.031   9.416  19.781  0.00  0.00    +0.000 N 
ATOM     15  C   UNL     1      -0.246  10.564  19.047  0.00  0.00    +0.000 C 
ATOM     16  O   UNL     1       0.619  11.386  18.782  0.00  0.00    +0.000 OA
ATOM     17  H   UNL     1      -0.731   8.690  19.790  0.00  0.00    +0.000 HD
BRANCH  15  18
ATOM     18  C   UNL     1      -1.630  10.732  18.530  0.00  0.00    +0.000 A 
ATOM     19  C   UNL     1      -2.105   9.963  17.457  0.00  0.00    +0.000 A 
ATOM     20  C   UNL     1      -3.388  10.187  16.955  0.00  0.00    +0.000 A 
ATOM     21  C   UNL     1      -4.191  11.163  17.537  0.00  0.00    +0.000 A 
ATOM     22  F   UNL     1      -5.412  11.390  17.039  0.00  0.00    +0.000 F 
ATOM     23  C   UNL     1      -3.745  11.906  18.625  0.00  0.00    +0.000 A 
ATOM     24  C   UNL     1      -2.462  11.686  19.131  0.00  0.00    +0.000 A 
ENDBRANCH  15  18
ENDBRANCH  13  14
ENDBRANCH   7  13
TORSDOF 3
ENDMDL
MODEL 7
REMARK VINA RESULT:      -7.6      4.853      7.897
REMARK  Name = 
REMARK  4 active torsions:
REMARK  status: ('A' for Active; 'I' for Inactive)
REMARK    1  A    between atoms: C_1  and  C_2
REMARK    2  A    between atoms: C_7  and  C_8
REMARK    3  A    between atoms: C_8  and  N_9
REMARK    4  A    between atoms: C_10  and  C_12
REMARK                            x       y       z     vdW  Elec       q    Type
REMARK                         _______ _______ _______ _____ _____    ______ ____
ROOT
ATOM      1  C   UNL     1       2.656   8.280  18.030  0.00  0.00    +0.000 C 
ATOM      2  C   UNL     1       2.888   6.814  18.283  0.00  0.00    +0.000 A 
ATOM      3  C   UNL     1       2.009   6.136  19.143  0.00  0.00    +0.000 A 
ATOM      4  C   UNL     1       2.227   4.802  19.471  0.00  0.00    +0.000 A 
ATOM      5  C   UNL     1       3.296   4.110  18.909  0.00  0.00    +0.000 A 
ATOM      6  C   UNL     1       4.144   4.754  18.007  0.00  0.00    +0.000 A 
ATOM      7  C   UNL     1       3.974   6.119  17.697  0.00  0.00    +0.000 A 
ATOM      8  O   UNL     1       3.521   2.782  19.155  0.00  0.00    +0.000 OA
ATOM      9  C   UNL     1       3.858   2.550  20.526  0.00  0.00    +0.000 C 
ATOM     10  C   UNL     1       2.633   2.485  21.430  0.00  0.00    +0.000 C 
ATOM     11  C   UNL     1       1.943   3.836  21.541  0.00  0.00    +0.000 C 
ATOM     12  O   UNL     1       1.323   4.212  20.311  0.00  0.00    +0.000 OA
ENDROOT
BRANCH   7  13
ATOM     13  C   UNL     1       4.919   6.860  16.771  0.00  0.00    +0.000 C 
BRANCH  13  14
ATOM     14  N   UNL     1       5.262   6.160  15.555  0.00  0.00    +0.000 N 
ATOM     15  C   UNL     1       6.459   5.488  15.411  0.00  0.00    +0.000 C 
ATOM     16  O   UNL     1       7.319   5.418  16.276  0.00  0.00    +0.000 OA
ATOM     17  H   UNL     1       4.520   6.010  14.887  0.00  0.00    +0.000 HD
BRANCH  15  18
ATOM     18  C   UNL     1       6.633   4.781  14.114  0.00  0.00    +0.000 A 
ATOM     19  C   UNL     1       5.825   3.687  13.766  0.00  0.00    +0.000 A 
ATOM     20  C   UNL     1       6.054   3.007  12.569  0.00  0.00    +0.000 A 
ATOM     21  C   UNL     1       7.072   3.432  11.723  0.00  0.00    +0.000 A 
ATOM     22  F   UNL     1       7.302   2.764  10.586  0.00  0.00    +0.000 F 
ATOM     23  C   UNL     1       7.855   4.538  12.038  0.00  0.00    +0.000 A 
ATOM     24  C   UNL     1       7.630   5.222  13.235  0.00  0.00    +0.000 A 
ENDBRANCH  15  18
ENDBRANCH  13  14
ENDBRANCH   7  13
TORSDOF 3
ENDMDL
MODEL 8
REMARK VINA RESULT:      -7.5      4.774      7.801
REMARK  Name = 
REMARK  4 active torsions:
REMARK  status: ('A' for Active; 'I' for Inactive)
REMARK    1  A    between atoms: C_1  and  C_2
REMARK    2  A    between atoms: C_7  and  C_8
REMARK    3  A    between atoms: C_8  and  N_9
REMARK    4  A    between atoms: C_10  and  C_12
REMARK                            x       y       z     vdW  Elec       q    Type
REMARK                         _______ _______ _______ _____ _____    ______ ____
ROOT
ATOM      1  C   UNL     1       2.505   8.288  18.271  0.00  0.00    +0.000 C 
ATOM      2  C   UNL     1       2.774   6.819  18.467  0.00  0.00    +0.000 A 
ATOM      3  C   UNL     1       1.928   6.091  19.319  0.00  0.00    +0.000 A 
ATOM      4  C   UNL     1       2.183   4.752  19.595  0.00  0.00    +0.000 A 
ATOM      5  C   UNL     1       3.255   4.105  18.988  0.00  0.00    +0.000 A 
ATOM      6  C   UNL     1       4.070   4.800  18.092  0.00  0.00    +0.000 A 
ATOM      7  C   UNL     1       3.864   6.171  17.835  0.00  0.00    +0.000 A 
ATOM      8  O   UNL     1       3.516   2.775  19.181  0.00  0.00    +0.000 OA
ATOM      9  C   UNL     1       3.885   2.502  20.536  0.00  0.00    +0.000 C 
ATOM     10  C   UNL     1       2.681   2.376  21.461  0.00  0.00    +0.000 C 
ATOM     11  C   UNL     1       1.963   3.706  21.634  0.00  0.00    +0.000 C 
ATOM     12  O   UNL     1       1.310   4.112  20.431  0.00  0.00    +0.000 OA
ENDROOT
BRANCH   7  13
ATOM     13  C   UNL     1       4.773   6.965  16.917  0.00  0.00    +0.000 C 
BRANCH  13  14
ATOM     14  N   UNL     1       5.197   6.273  15.723  0.00  0.00    +0.000 N 
ATOM     15  C   UNL     1       6.429   5.660  15.632  0.00  0.00    +0.000 C 
ATOM     16  O   UNL     1       7.258   5.641  16.530  0.00  0.00    +0.000 OA
ATOM     17  H   UNL     1       4.490   6.081  15.028  0.00  0.00    +0.000 HD
BRANCH  15  18
ATOM     18  C   UNL     1       6.689   4.952  14.350  0.00  0.00    +0.000 A 
ATOM     19  C   UNL     1       7.711   5.367  13.483  0.00  0.00    +0.000 A 
ATOM     20  C   UNL     1       7.889   4.721  12.259  0.00  0.00    +0.000 A 
ATOM     21  C   UNL     1       7.060   3.657  11.918  0.00  0.00    +0.000 A 
ATOM     22  F   UNL     1       7.220   3.054  10.734  0.00  0.00    +0.000 F 
ATOM     23  C   UNL     1       6.068   3.212  12.786  0.00  0.00    +0.000 A 
ATOM     24  C   UNL     1       5.885   3.856  14.011  0.00  0.00    +0.000 A 
ENDBRANCH  15  18
ENDBRANCH  13  14
ENDBRANCH   7  13
TORSDOF 3
ENDMDL
MODEL 9
REMARK VINA RESULT:      -7.5      2.175      2.635
REMARK  Name = 
REMARK  4 active torsions:
REMARK  status: ('A' for Active; 'I' for Inactive)
REMARK    1  A    between atoms: C_1  and  C_2
REMARK    2  A    between atoms: C_7  and  C_8
REMARK    3  A    between atoms: C_8  and  N_9
REMARK    4  A    between atoms: C_10  and  C_12
REMARK                            x       y       z     vdW  Elec       q    Type
REMARK                         _______ _______ _______ _____ _____    ______ ____
ROOT
ATOM      1  C   UNL     1       4.794   7.043  16.446  0.00  0.00    +0.000 C 
ATOM      2  C   UNL     1       3.999   6.242  17.442  0.00  0.00    +0.000 A 
ATOM      3  C   UNL     1       4.308   4.882  17.606  0.00  0.00    +0.000 A 
ATOM      4  C   UNL     1       3.551   4.080  18.454  0.00  0.00    +0.000 A 
ATOM      5  C   UNL     1       2.506   4.633  19.189  0.00  0.00    +0.000 A 
ATOM      6  C   UNL     1       2.224   5.996  19.081  0.00  0.00    +0.000 A 
ATOM      7  C   UNL     1       2.944   6.818  18.191  0.00  0.00    +0.000 A 
ATOM      8  O   UNL     1       1.767   3.901  20.080  0.00  0.00    +0.000 OA
ATOM      9  C   UNL     1       1.006   2.883  19.422  0.00  0.00    +0.000 C 
ATOM     10  C   UNL     1       1.828   1.637  19.116  0.00  0.00    +0.000 C 
ATOM     11  C   UNL     1       2.892   1.910  18.063  0.00  0.00    +0.000 C 
ATOM     12  O   UNL     1       3.919   2.767  18.562  0.00  0.00    +0.000 OA
ENDROOT
BRANCH   7  13
ATOM     13  C   UNL     1       2.616   8.288  18.006  0.00  0.00    +0.000 C 
BRANCH  13  14
ATOM     14  N   UNL     1       1.890   8.897  19.096  0.00  0.00    +0.000 N 
ATOM     15  C   UNL     1       0.736   9.624  18.889  0.00  0.00    +0.000 C 
ATOM     16  O   UNL     1       0.228   9.815  17.794  0.00  0.00    +0.000 OA
ATOM     17  H   UNL     1       2.140   8.611  20.031  0.00  0.00    +0.000 HD
BRANCH  15  18
ATOM     18  C   UNL     1       0.087  10.143  20.122  0.00  0.00    +0.000 A 
ATOM     19  C   UNL     1      -0.738  11.277  20.089  0.00  0.00    +0.000 A 
ATOM     20  C   UNL     1      -1.283  11.775  21.274  0.00  0.00    +0.000 A 
ATOM     21  C   UNL     1      -1.014  11.130  22.477  0.00  0.00    +0.000 A 
ATOM     22  F   UNL     1      -1.521  11.623  23.613  0.00  0.00    +0.000 F 
ATOM     23  C   UNL     1      -0.229   9.982  22.517  0.00  0.00    +0.000 A 
ATOM     24  C   UNL     1       0.318   9.480  21.335  0.00  0.00    +0.000 A 
ENDBRANCH  15  18
ENDBRANCH  13  14
ENDBRANCH   7  13
TORSDOF 3
ENDMDL
