MODEL 1
REMARK VINA RESULT:      -6.6      0.000      0.000
REMARK  Name = 
REMARK  4 active torsions:
REMARK  status: ('A' for Active; 'I' for Inactive)
REMARK    1  A    between atoms: C_1  and  C_2
REMARK    2  A    between atoms: C_8  and  O_9
REMARK    3  A    between atoms: C_12  and  C_13
REMARK    4  A    between atoms: N_16  and  C_17
REMARK                            x       y       z     vdW  Elec       q    Type
REMARK                         _______ _______ _______ _____ _____    ______ ____
ROOT
ATOM      1  C   UNL     1       7.340   8.221  17.724  0.00  0.00    +0.000 C 
ATOM      2  C   UNL     1       7.282   6.825  17.082  0.00  0.00    +0.000 C 
ATOM      3  C   UNL     1       6.210   6.676  15.960  0.00  0.00    +0.000 C 
ATOM      4  C   UNL     1       4.874   7.160  16.558  0.00  0.00    +0.000 C 
ATOM      5  C   UNL     1       4.521   6.316  17.763  0.00  0.00    +0.000 A 
ATOM      6  C   UNL     1       3.165   6.200  18.092  0.00  0.00    +0.000 A 
ATOM      7  C   UNL     1       2.745   5.213  18.974  0.00  0.00    +0.000 A 
ATOM      8  C   UNL     1       3.691   4.372  19.546  0.00  0.00    +0.000 A 
ATOM      9  C   UNL     1       5.055   4.558  19.325  0.00  0.00    +0.000 A 
ATOM     10  C   UNL     1       5.507   5.543  18.430  0.00  0.00    +0.000 A 
ATOM     11  C   UNL     1       7.016   5.654  18.071  0.00  0.00    +0.000 C 
ATOM     12  C   UNL     1       7.847   5.809  19.361  0.00  0.00    +0.000 C 
ATOM     13  C   UNL     1       7.489   4.376  17.316  0.00  0.00    +0.000 C 
ATOM     14  C   UNL     1       7.335   4.474  15.785  0.00  0.00    +0.000 C 
ATOM     15  N   UNL     1       6.216   5.311  15.331  0.00  0.00    +0.000 NA
ATOM     16  C   UNL     1       4.977   4.522  15.353  0.00  0.00    +0.000 C 
ENDROOT
BRANCH   8  17
ATOM     17  O   UNL     1       3.307   3.300  20.298  0.00  0.00    +0.000 OA
ATOM     18  H   UNL     1       4.025   3.106  20.926  0.00  0.00    +0.000 HD
ENDBRANCH   8  17
TORSDOF 1
ENDMDL
MODEL 2
REMARK VINA RESULT:      -6.4      2.310      4.607
REMARK  Name = 
REMARK  4 active torsions:
REMARK  status: ('A' for Active; 'I' for Inactive)
REMARK    1  A    between atoms: C_1  and  C_2
REMARK    2  A    between atoms: C_8  and  O_9
REMARK    3  A    between atoms: C_12  and  C_13
REMARK    4  A    between atoms: N_16  and  C_17
REMARK                            x       y       z     vdW  Elec       q    Type
REMARK                         _______ _______ _______ _____ _____    ______ ____
ROOT
ATOM      1  C   UNL     1       3.211   1.756  17.831  0.00  0.00    +0.000 C 
ATOM      2  C   UNL     1       2.891   3.113  18.481  0.00  0.00    +0.000 C 
ATOM      3  C   UNL     1       2.651   4.272  17.468  0.00  0.00    +0.000 C 
ATOM      4  C   UNL     1       3.866   4.289  16.519  0.00  0.00    +0.000 C 
ATOM      5  C   UNL     1       5.131   4.518  17.316  0.00  0.00    +0.000 A 
ATOM      6  C   UNL     1       6.212   5.113  16.653  0.00  0.00    +0.000 A 
ATOM      7  C   UNL     1       7.274   5.631  17.380  0.00  0.00    +0.000 A 
ATOM      8  C   UNL     1       7.264   5.519  18.765  0.00  0.00    +0.000 A 
ATOM      9  C   UNL     1       6.257   4.819  19.428  0.00  0.00    +0.000 A 
ATOM     10  C   UNL     1       5.165   4.292  18.717  0.00  0.00    +0.000 A 
ATOM     11  C   UNL     1       3.970   3.641  19.471  0.00  0.00    +0.000 C 
ATOM     12  C   UNL     1       4.487   2.517  20.392  0.00  0.00    +0.000 C 
ATOM     13  C   UNL     1       3.232   4.705  20.338  0.00  0.00    +0.000 C 
ATOM     14  C   UNL     1       2.093   5.425  19.589  0.00  0.00    +0.000 C 
ATOM     15  N   UNL     1       2.300   5.568  18.142  0.00  0.00    +0.000 NA
ATOM     16  C   UNL     1       3.143   6.745  17.886  0.00  0.00    +0.000 C 
ENDROOT
BRANCH   8  17
ATOM     17  O   UNL     1       8.212   6.143  19.522  0.00  0.00    +0.000 OA
ATOM     18  H   UNL     1       8.172   7.094  19.322  0.00  0.00    +0.000 HD
ENDBRANCH   8  17
TORSDOF 1
ENDMDL
MODEL 3
REMARK VINA RESULT:      -6.3      2.761      5.235
REMARK  Name = 
REMARK  4 active torsions:
REMARK  status: ('A' for Active; 'I' for Inactive)
REMARK    1  A    between atoms: C_1  and  C_2
REMARK    2  A    between atoms: C_8  and  O_9
REMARK    3  A    between atoms: C_12  and  C_13
REMARK    4  A    between atoms: N_16  and  C_17
REMARK                            x       y       z     vdW  Elec       q    Type
REMARK                         _______ _______ _______ _____ _____    ______ ____
ROOT
ATOM      1  C   UNL     1       1.908   1.822  17.604  0.00  0.00    +0.000 C 
ATOM      2  C   UNL     1       1.983   2.511  18.977  0.00  0.00    +0.000 C 
ATOM      3  C   UNL     1       1.302   3.912  19.032  0.00  0.00    +0.000 C 
ATOM      4  C   UNL     1       1.891   4.737  17.871  0.00  0.00    +0.000 C 
ATOM      5  C   UNL     1       3.390   4.854  18.040  0.00  0.00    +0.000 A 
ATOM      6  C   UNL     1       4.017   5.968  17.468  0.00  0.00    +0.000 A 
ATOM      7  C   UNL     1       5.313   6.303  17.839  0.00  0.00    +0.000 A 
ATOM      8  C   UNL     1       5.983   5.500  18.753  0.00  0.00    +0.000 A 
ATOM      9  C   UNL     1       5.417   4.320  19.233  0.00  0.00    +0.000 A 
ATOM     10  C   UNL     1       4.104   3.962  18.881  0.00  0.00    +0.000 A 
ATOM     11  C   UNL     1       3.421   2.724  19.531  0.00  0.00    +0.000 C 
ATOM     12  C   UNL     1       4.297   1.474  19.316  0.00  0.00    +0.000 C 
ATOM     13  C   UNL     1       3.232   2.951  21.061  0.00  0.00    +0.000 C 
ATOM     14  C   UNL     1       1.889   3.617  21.423  0.00  0.00    +0.000 C 
ATOM     15  N   UNL     1       1.360   4.531  20.401  0.00  0.00    +0.000 NA
ATOM     16  C   UNL     1       1.995   5.848  20.550  0.00  0.00    +0.000 C 
ENDROOT
BRANCH   8  17
ATOM     17  O   UNL     1       7.196   5.876  19.253  0.00  0.00    +0.000 OA
ATOM     18  H   UNL     1       7.324   5.412  20.099  0.00  0.00    +0.000 HD
ENDBRANCH   8  17
TORSDOF 1
ENDMDL
MODEL 4
REMARK VINA RESULT:      -6.2      3.418      5.187
REMARK  Name = 
REMARK  4 active torsions:
REMARK  status: ('A' for Active; 'I' for Inactive)
REMARK    1  A    between atoms: C_1  and  C_2
REMARK    2  A    between atoms: C_8  and  O_9
REMARK    3  A    between atoms: C_12  and  C_13
REMARK    4  A    between atoms: N_16  and  C_17
REMARK                            x       y       z     vdW  Elec       q    Type
REMARK                         _______ _______ _______ _____ _____    ______ ____
ROOT
ATOM      1  C   UNL     1       4.529   2.200  20.221  0.00  0.00    +0.000 C 
ATOM      2  C   UNL     1       3.095   2.326  19.681  0.00  0.00    +0.000 C 
ATOM      3  C   UNL     1       3.005   2.739  18.181  0.00  0.00    +0.000 C 
ATOM      4  C   UNL     1       3.862   4.010  18.020  0.00  0.00    +0.000 C 
ATOM      5  C   UNL     1       3.324   5.103  18.917  0.00  0.00    +0.000 A 
ATOM      6  C   UNL     1       3.565   6.428  18.533  0.00  0.00    +0.000 A 
ATOM      7  C   UNL     1       2.851   7.463  19.122  0.00  0.00    +0.000 A 
ATOM      8  C   UNL     1       1.927   7.167  20.116  0.00  0.00    +0.000 A 
ATOM      9  C   UNL     1       1.770   5.868  20.595  0.00  0.00    +0.000 A 
ATOM     10  C   UNL     1       2.473   4.799  20.011  0.00  0.00    +0.000 A 
ATOM     11  C   UNL     1       2.188   3.333  20.446  0.00  0.00    +0.000 C 
ATOM     12  C   UNL     1       2.363   3.200  21.972  0.00  0.00    +0.000 C 
ATOM     13  C   UNL     1       0.732   2.929  20.067  0.00  0.00    +0.000 C 
ATOM     14  C   UNL     1       0.611   2.311  18.660  0.00  0.00    +0.000 C 
ATOM     15  N   UNL     1       1.589   2.809  17.683  0.00  0.00    +0.000 NA
ATOM     16  C   UNL     1       1.106   4.075  17.113  0.00  0.00    +0.000 C 
ENDROOT
BRANCH   8  17
ATOM     17  O   UNL     1       1.103   8.135  20.613  0.00  0.00    +0.000 OA
ATOM     18  H   UNL     1       1.634   8.940  20.739  0.00  0.00    +0.000 HD
ENDBRANCH   8  17
TORSDOF 1
ENDMDL
MODEL 5
REMARK VINA RESULT:      -6.2      2.518      4.579
REMARK  Name = 
REMARK  4 active torsions:
REMARK  status: ('A' for Active; 'I' for Inactive)
REMARK    1  A    between atoms: C_1  and  C_2
REMARK    2  A    between atoms: C_8  and  O_9
REMARK    3  A    between atoms: C_12  and  C_13
REMARK    4  A    between atoms: N_16  and  C_17
REMARK                            x       y       z     vdW  Elec       q    Type
REMARK                         _______ _______ _______ _____ _____    ______ ____
ROOT
ATOM      1  C   UNL     1       1.517   5.474  18.220  0.00  0.00    +0.000 C 
ATOM      2  C   UNL     1       2.798   4.830  18.778  0.00  0.00    +0.000 C 
ATOM      3  C   UNL     1       3.937   5.842  19.105  0.00  0.00    +0.000 C 
ATOM      4  C   UNL     1       4.150   6.693  17.838  0.00  0.00    +0.000 C 
ATOM      5  C   UNL     1       4.535   5.797  16.682  0.00  0.00    +0.000 A 
ATOM      6  C   UNL     1       5.294   6.366  15.651  0.00  0.00    +0.000 A 
ATOM      7  C   UNL     1       5.938   5.550  14.731  0.00  0.00    +0.000 A 
ATOM      8  C   UNL     1       5.790   4.173  14.828  0.00  0.00    +0.000 A 
ATOM      9  C   UNL     1       4.938   3.601  15.771  0.00  0.00    +0.000 A 
ATOM     10  C   UNL     1       4.281   4.402  16.721  0.00  0.00    +0.000 A 
ATOM     11  C   UNL     1       3.447   3.753  17.863  0.00  0.00    +0.000 C 
ATOM     12  C   UNL     1       2.384   2.811  17.261  0.00  0.00    +0.000 C 
ATOM     13  C   UNL     1       4.374   2.929  18.809  0.00  0.00    +0.000 C 
ATOM     14  C   UNL     1       4.944   3.753  19.980  0.00  0.00    +0.000 C 
ATOM     15  N   UNL     1       5.153   5.178  19.688  0.00  0.00    +0.000 NA
ATOM     16  C   UNL     1       6.443   5.350  19.005  0.00  0.00    +0.000 C 
ENDROOT
BRANCH   8  17
ATOM     17  O   UNL     1       6.523   3.335  14.038  0.00  0.00    +0.000 OA
ATOM     18  H   UNL     1       6.246   3.480  13.117  0.00  0.00    +0.000 HD
ENDBRANCH   8  17
TORSDOF 1
ENDMDL
MODEL 6
REMARK VINA RESULT:      -6.1      7.014      9.515
REMARK  Name = 
REMARK  4 active torsions:
REMARK  status: ('A' for Active; 'I' for Inactive)
REMARK    1  A    between atoms: C_1  and  C_2
REMARK    2  A    between atoms: C_8  and  O_9
REMARK    3  A    between atoms: C_12  and  C_13
REMARK    4  A    between atoms: N_16  and  C_17
REMARK                            x       y       z     vdW  Elec       q    Type
REMARK                         _______ _______ _______ _____ _____    ______ ____
ROOT
ATOM      1  C   UNL     1       8.892  10.147  18.465  0.00  0.00    +0.000 C 
ATOM      2  C   UNL     1       9.865  11.272  18.076  0.00  0.00    +0.000 C 
ATOM      3  C   UNL     1      11.088  11.425  19.030  0.00  0.00    +0.000 C 
ATOM      4  C   UNL     1      10.522  11.536  20.460  0.00  0.00    +0.000 C 
ATOM      5  C   UNL     1       9.607  12.737  20.552  0.00  0.00    +0.000 A 
ATOM      6  C   UNL     1       9.452  13.332  21.811  0.00  0.00    +0.000 A 
ATOM      7  C   UNL     1       8.890  14.598  21.917  0.00  0.00    +0.000 A 
ATOM      8  C   UNL     1       8.456  15.243  20.766  0.00  0.00    +0.000 A 
ATOM      9  C   UNL     1       8.489  14.610  19.524  0.00  0.00    +0.000 A 
ATOM     10  C   UNL     1       9.060  13.333  19.387  0.00  0.00    +0.000 A 
ATOM     11  C   UNL     1       9.231  12.689  17.981  0.00  0.00    +0.000 C 
ATOM     12  C   UNL     1       7.868  12.648  17.260  0.00  0.00    +0.000 C 
ATOM     13  C   UNL     1      10.231  13.520  17.122  0.00  0.00    +0.000 C 
ATOM     14  C   UNL     1      11.696  13.066  17.274  0.00  0.00    +0.000 C 
ATOM     15  N   UNL     1      12.034  12.506  18.590  0.00  0.00    +0.000 NA
ATOM     16  C   UNL     1      12.332  13.603  19.523  0.00  0.00    +0.000 C 
ENDROOT
BRANCH   8  17
ATOM     17  O   UNL     1       8.037  16.541  20.810  0.00  0.00    +0.000 OA
ATOM     18  H   UNL     1       8.273  16.898  21.683  0.00  0.00    +0.000 HD
ENDBRANCH   8  17
TORSDOF 1
ENDMDL
MODEL 7
REMARK VINA RESULT:      -6.1      1.809      3.354
REMARK  Name = 
REMARK  4 active torsions:
REMARK  status: ('A' for Active; 'I' for Inactive)
REMARK    1  A    between atoms: C_1  and  C_2
REMARK    2  A    between atoms: C_8  and  O_9
REMARK    3  A    between atoms: C_12  and  C_13
REMARK    4  A    between atoms: N_16  and  C_17
REMARK                            x       y       z     vdW  Elec       q    Type
REMARK                         _______ _______ _______ _____ _____    ______ ____
ROOT
ATOM      1  C   UNL     1       5.378   4.191  14.903  0.00  0.00    +0.000 C 
ATOM      2  C   UNL     1       6.113   4.987  15.994  0.00  0.00    +0.000 C 
ATOM      3  C   UNL     1       6.332   4.206  17.325  0.00  0.00    +0.000 C 
ATOM      4  C   UNL     1       4.954   3.661  17.750  0.00  0.00    +0.000 C 
ATOM      5  C   UNL     1       3.992   4.812  17.948  0.00  0.00    +0.000 A 
ATOM      6  C   UNL     1       2.927   4.615  18.836  0.00  0.00    +0.000 A 
ATOM      7  C   UNL     1       2.198   5.702  19.300  0.00  0.00    +0.000 A 
ATOM      8  C   UNL     1       2.518   6.974  18.845  0.00  0.00    +0.000 A 
ATOM      9  C   UNL     1       3.492   7.170  17.866  0.00  0.00    +0.000 A 
ATOM     10  C   UNL     1       4.251   6.089  17.385  0.00  0.00    +0.000 A 
ATOM     11  C   UNL     1       5.434   6.326  16.404  0.00  0.00    +0.000 C 
ATOM     12  C   UNL     1       4.937   7.106  15.170  0.00  0.00    +0.000 C 
ATOM     13  C   UNL     1       6.559   7.149  17.102  0.00  0.00    +0.000 C 
ATOM     14  C   UNL     1       7.607   6.274  17.818  0.00  0.00    +0.000 C 
ATOM     15  N   UNL     1       7.090   5.004  18.348  0.00  0.00    +0.000 NA
ATOM     16  C   UNL     1       6.467   5.241  19.657  0.00  0.00    +0.000 C 
ENDROOT
BRANCH   8  17
ATOM     17  O   UNL     1       1.927   8.078  19.386  0.00  0.00    +0.000 OA
ATOM     18  H   UNL     1       1.067   8.199  18.948  0.00  0.00    +0.000 HD
ENDBRANCH   8  17
TORSDOF 1
ENDMDL
MODEL 8
REMARK VINA RESULT:      -6.1      2.630      5.065
REMARK  Name = 
REMARK  4 active torsions:
REMARK  status: ('A' for Active; 'I' for Inactive)
REMARK    1  A    between atoms: C_1  and  C_2
REMARK    2  A    between atoms: C_8  and  O_9
REMARK    3  A    between atoms: C_12  and  C_13
REMARK    4  A    between atoms: N_16  and  C_17
REMARK                            x       y       z     vdW  Elec       q    Type
REMARK                         _______ _______ _______ _____ _____    ______ ____
ROOT
ATOM      1  C   UNL     1       1.540   1.797  18.800  0.00  0.00    +0.000 C 
ATOM      2  C   UNL     1       1.745   3.230  19.317  0.00  0.00    +0.000 C 
ATOM      3  C   UNL     1       1.497   4.341  18.252  0.00  0.00    +0.000 C 
ATOM      4  C   UNL     1       2.354   3.975  17.023  0.00  0.00    +0.000 C 
ATOM      5  C   UNL     1       3.812   3.919  17.419  0.00  0.00    +0.000 A 
ATOM      6  C   UNL     1       4.761   4.164  16.418  0.00  0.00    +0.000 A 
ATOM      7  C   UNL     1       6.079   4.435  16.761  0.00  0.00    +0.000 A 
ATOM      8  C   UNL     1       6.445   4.423  18.101  0.00  0.00    +0.000 A 
ATOM      9  C   UNL     1       5.540   4.058  19.096  0.00  0.00    +0.000 A 
ATOM     10  C   UNL     1       4.198   3.788  18.779  0.00  0.00    +0.000 A 
ATOM     11  C   UNL     1       3.156   3.524  19.904  0.00  0.00    +0.000 C 
ATOM     12  C   UNL     1       3.643   2.369  20.802  0.00  0.00    +0.000 C 
ATOM     13  C   UNL     1       2.969   4.800  20.778  0.00  0.00    +0.000 C 
ATOM     14  C   UNL     1       1.861   5.741  20.265  0.00  0.00    +0.000 C 
ATOM     15  N   UNL     1       1.667   5.726  18.808  0.00  0.00    +0.000 NA
ATOM     16  C   UNL     1       2.648   6.621  18.178  0.00  0.00    +0.000 C 
ENDROOT
BRANCH   8  17
ATOM     17  O   UNL     1       7.690   4.828  18.487  0.00  0.00    +0.000 OA
ATOM     18  H   UNL     1       7.585   5.619  19.044  0.00  0.00    +0.000 HD
ENDBRANCH   8  17
TORSDOF 1
ENDMDL
MODEL 9
REMARK VINA RESULT:      -6.1      2.590      5.013
REMARK  Name = 
REMARK  4 active torsions:
REMARK  status: ('A' for Active; 'I' for Inactive)
REMARK    1  A    between atoms: C_1  and  C_2
REMARK    2  A    between atoms: C_8  and  O_9
REMARK    3  A    between atoms: C_12  and  C_13
REMARK    4  A    between atoms: N_16  and  C_17
REMARK                            x       y       z     vdW  Elec       q    Type
REMARK                         _______ _______ _______ _____ _____    ______ ____
ROOT
ATOM      1  C   UNL     1       2.413   5.784  20.949  0.00  0.00    +0.000 C 
ATOM      2  C   UNL     1       2.118   4.776  19.826  0.00  0.00    +0.000 C 
ATOM      3  C   UNL     1       2.880   3.423  19.959  0.00  0.00    +0.000 C 
ATOM      4  C   UNL     1       4.372   3.769  20.131  0.00  0.00    +0.000 C 
ATOM      5  C   UNL     1       4.855   4.548  18.928  0.00  0.00    +0.000 A 
ATOM      6  C   UNL     1       6.218   4.469  18.615  0.00  0.00    +0.000 A 
ATOM      7  C   UNL     1       6.672   4.891  17.373  0.00  0.00    +0.000 A 
ATOM      8  C   UNL     1       5.763   5.422  16.466  0.00  0.00    +0.000 A 
ATOM      9  C   UNL     1       4.428   5.622  16.811  0.00  0.00    +0.000 A 
ATOM     10  C   UNL     1       3.940   5.196  18.059  0.00  0.00    +0.000 A 
ATOM     11  C   UNL     1       2.421   5.285  18.387  0.00  0.00    +0.000 C 
ATOM     12  C   UNL     1       1.931   6.734  18.188  0.00  0.00    +0.000 C 
ATOM     13  C   UNL     1       1.608   4.343  17.449  0.00  0.00    +0.000 C 
ATOM     14  C   UNL     1       1.430   2.919  18.012  0.00  0.00    +0.000 C 
ATOM     15  N   UNL     1       2.531   2.452  18.866  0.00  0.00    +0.000 NA
ATOM     16  C   UNL     1       3.613   1.927  18.021  0.00  0.00    +0.000 C 
ENDROOT
BRANCH   8  17
ATOM     17  O   UNL     1       6.142   5.709  15.187  0.00  0.00    +0.000 OA
ATOM     18  H   UNL     1       6.256   4.866  14.715  0.00  0.00    +0.000 HD
ENDBRANCH   8  17
TORSDOF 1
ENDMDL
