MODEL 1
REMARK VINA RESULT:      -8.1      0.000      0.000
REMARK  Name = 
REMARK  11 active torsions:
REMARK  status: ('A' for Active; 'I' for Inactive)
REMARK    1  A    between atoms: C_1  and  O_2
REMARK    2  A    between atoms: O_2  and  C_3
REMARK    3  A    between atoms: C_7  and  O_8
REMARK    4  A    between atoms: C_9  and  C_10
REMARK    5  A    between atoms: C_10  and  C_12
REMARK    6  A    between atoms: C_13  and  C_14
REMARK    7  A    between atoms: C_17  and  O_18
REMARK    8  A    between atoms: O_18  and  C_19
REMARK    9  A    between atoms: C_19  and  C_20
REMARK   10  A    between atoms: C_26  and  C_27
REMARK   11  A    between atoms: C_26  and  C_28
REMARK                            x       y       z     vdW  Elec       q    Type
REMARK                         _______ _______ _______ _____ _____    ______ ____
ROOT
ATOM      1  C   UNL     1       6.558   5.097  18.750  0.00  0.00    +0.000 A 
ATOM      2  C   UNL     1       5.559   4.417  19.462  0.00  0.00    +0.000 A 
ATOM      3  C   UNL     1       4.205   4.589  19.156  0.00  0.00    +0.000 A 
ATOM      4  C   UNL     1       3.820   5.400  18.089  0.00  0.00    +0.000 A 
ATOM      5  C   UNL     1       4.820   6.088  17.373  0.00  0.00    +0.000 A 
ATOM      6  C   UNL     1       6.190   5.966  17.704  0.00  0.00    +0.000 A 
ATOM      7  C   UNL     1       2.359   5.559  17.763  0.00  0.00    +0.000 C 
ATOM      8  C   UNL     1       1.507   4.530  18.489  0.00  0.00    +0.000 C 
ATOM      9  C   UNL     1       1.968   4.369  19.942  0.00  0.00    +0.000 C 
ATOM     10  C   UNL     1       1.840   5.651  20.779  0.00  0.00    +0.000 C 
ATOM     11  C   UNL     1       1.119   3.277  20.611  0.00  0.00    +0.000 C 
ATOM     12  O   UNL     1       3.334   3.913  19.971  0.00  0.00    +0.000 OA
ENDROOT
BRANCH   1  14
ATOM     13  C   UNL     1       8.260   5.514  20.361  0.00  0.00    +0.000 C 
ATOM     14  O   UNL     1       7.886   4.996  19.085  0.00  0.00    +0.000 OA
ENDBRANCH   1  14
BRANCH   5  15
ATOM     15  O   UNL     1       4.463   6.862  16.297  0.00  0.00    +0.000 OA
ATOM     16  H   UNL     1       5.241   7.040  15.745  0.00  0.00    +0.000 HD
ENDBRANCH   5  15
BRANCH   6  17
ATOM     17  C   UNL     1       7.184   6.853  17.011  0.00  0.00    +0.000 C 
ATOM     18  O   UNL     1       7.812   6.442  16.037  0.00  0.00    +0.000 OA
BRANCH  17  19
ATOM     19  C   UNL     1       7.394   8.244  17.516  0.00  0.00    +0.000 C 
ATOM     20  C   UNL     1       8.558   8.581  18.097  0.00  0.00    +0.000 C 
BRANCH  20  21
ATOM     21  C   UNL     1       8.820   9.922  18.623  0.00  0.00    +0.000 A 
ATOM     22  C   UNL     1       8.645  11.037  17.794  0.00  0.00    +0.000 A 
ATOM     23  C   UNL     1       8.928  12.322  18.269  0.00  0.00    +0.000 A 
ATOM     24  C   UNL     1       9.370  12.499  19.581  0.00  0.00    +0.000 A 
ATOM     25  C   UNL     1       9.532  11.403  20.425  0.00  0.00    +0.000 A 
ATOM     26  C   UNL     1       9.257  10.114  19.939  0.00  0.00    +0.000 A 
BRANCH  24  27
ATOM     27  O   UNL     1       9.712  13.831  19.925  0.00  0.00    +0.000 OA
BRANCH  27  28
ATOM     28  C   UNL     1      10.820  14.524  19.440  0.00  0.00    +0.000 C 
ATOM     29  C   UNL     1      10.358  15.733  18.671  0.00  0.00    +0.000 C 
ATOM     30  O   UNL     1      11.996  14.221  19.588  0.00  0.00    +0.000 OA
ENDBRANCH  27  28
ENDBRANCH  24  27
ENDBRANCH  20  21
ENDBRANCH  17  19
ENDBRANCH   6  17
TORSDOF 7
ENDMDL
MODEL 2
REMARK VINA RESULT:      -8.1      0.599      1.131
REMARK  Name = 
REMARK  11 active torsions:
REMARK  status: ('A' for Active; 'I' for Inactive)
REMARK    1  A    between atoms: C_1  and  O_2
REMARK    2  A    between atoms: O_2  and  C_3
REMARK    3  A    between atoms: C_7  and  O_8
REMARK    4  A    between atoms: C_9  and  C_10
REMARK    5  A    between atoms: C_10  and  C_12
REMARK    6  A    between atoms: C_13  and  C_14
REMARK    7  A    between atoms: C_17  and  O_18
REMARK    8  A    between atoms: O_18  and  C_19
REMARK    9  A    between atoms: C_19  and  C_20
REMARK   10  A    between atoms: C_26  and  C_27
REMARK   11  A    between atoms: C_26  and  C_28
REMARK                            x       y       z     vdW  Elec       q    Type
REMARK                         _______ _______ _______ _____ _____    ______ ____
ROOT
ATOM      1  C   UNL     1       6.517   5.031  18.756  0.00  0.00    +0.000 A 
ATOM      2  C   UNL     1       5.530   4.348  19.482  0.00  0.00    +0.000 A 
ATOM      3  C   UNL     1       4.172   4.523  19.200  0.00  0.00    +0.000 A 
ATOM      4  C   UNL     1       3.769   5.340  18.143  0.00  0.00    +0.000 A 
ATOM      5  C   UNL     1       4.757   6.031  17.413  0.00  0.00    +0.000 A 
ATOM      6  C   UNL     1       6.133   5.906  17.720  0.00  0.00    +0.000 A 
ATOM      7  C   UNL     1       2.303   5.501  17.843  0.00  0.00    +0.000 C 
ATOM      8  C   UNL     1       1.462   4.470  18.579  0.00  0.00    +0.000 C 
ATOM      9  C   UNL     1       1.948   4.301  20.023  0.00  0.00    +0.000 C 
ATOM     10  C   UNL     1       1.835   5.579  20.868  0.00  0.00    +0.000 C 
ATOM     11  C   UNL     1       1.109   3.207  20.700  0.00  0.00    +0.000 C 
ATOM     12  O   UNL     1       3.313   3.844  20.026  0.00  0.00    +0.000 OA
ENDROOT
BRANCH   1  14
ATOM     13  C   UNL     1       8.256   5.485  20.317  0.00  0.00    +0.000 C 
ATOM     14  O   UNL     1       7.851   4.928  19.068  0.00  0.00    +0.000 OA
ENDBRANCH   1  14
BRANCH   5  15
ATOM     15  O   UNL     1       4.383   6.810  16.348  0.00  0.00    +0.000 OA
ATOM     16  H   UNL     1       4.142   7.698  16.655  0.00  0.00    +0.000 HD
ENDBRANCH   5  15
BRANCH   6  17
ATOM     17  C   UNL     1       7.115   6.795  17.015  0.00  0.00    +0.000 C 
ATOM     18  O   UNL     1       7.732   6.386  16.033  0.00  0.00    +0.000 OA
BRANCH  17  19
ATOM     19  C   UNL     1       7.328   8.187  17.517  0.00  0.00    +0.000 C 
ATOM     20  C   UNL     1       8.524   8.550  18.012  0.00  0.00    +0.000 C 
BRANCH  20  21
ATOM     21  C   UNL     1       8.791   9.893  18.531  0.00  0.00    +0.000 A 
ATOM     22  C   UNL     1       9.288  10.045  19.831  0.00  0.00    +0.000 A 
ATOM     23  C   UNL     1       9.512  11.322  20.355  0.00  0.00    +0.000 A 
ATOM     24  C   UNL     1       9.258  12.452  19.576  0.00  0.00    +0.000 A 
ATOM     25  C   UNL     1       8.780  12.318  18.274  0.00  0.00    +0.000 A 
ATOM     26  C   UNL     1       8.546  11.033  17.757  0.00  0.00    +0.000 A 
BRANCH  24  27
ATOM     27  O   UNL     1       9.434  13.692  20.239  0.00  0.00    +0.000 OA
BRANCH  27  28
ATOM     28  C   UNL     1      10.074  14.806  19.697  0.00  0.00    +0.000 C 
ATOM     29  C   UNL     1      11.558  14.689  19.921  0.00  0.00    +0.000 C 
ATOM     30  O   UNL     1       9.544  15.751  19.130  0.00  0.00    +0.000 OA
ENDBRANCH  27  28
ENDBRANCH  24  27
ENDBRANCH  20  21
ENDBRANCH  17  19
ENDBRANCH   6  17
TORSDOF 7
ENDMDL
MODEL 3
REMARK VINA RESULT:      -8.1      1.541      2.661
REMARK  Name = 
REMARK  11 active torsions:
REMARK  status: ('A' for Active; 'I' for Inactive)
REMARK    1  A    between atoms: C_1  and  O_2
REMARK    2  A    between atoms: O_2  and  C_3
REMARK    3  A    between atoms: C_7  and  O_8
REMARK    4  A    between atoms: C_9  and  C_10
REMARK    5  A    between atoms: C_10  and  C_12
REMARK    6  A    between atoms: C_13  and  C_14
REMARK    7  A    between atoms: C_17  and  O_18
REMARK    8  A    between atoms: O_18  and  C_19
REMARK    9  A    between atoms: C_19  and  C_20
REMARK   10  A    between atoms: C_26  and  C_27
REMARK   11  A    between atoms: C_26  and  C_28
REMARK                            x       y       z     vdW  Elec       q    Type
REMARK                         _______ _______ _______ _____ _____    ______ ____
ROOT
ATOM      1  C   UNL     1       3.990   6.743  18.159  0.00  0.00    +0.000 A 
ATOM      2  C   UNL     1       3.019   6.094  18.936  0.00  0.00    +0.000 A 
ATOM      3  C   UNL     1       3.237   4.810  19.447  0.00  0.00    +0.000 A 
ATOM      4  C   UNL     1       4.460   4.168  19.245  0.00  0.00    +0.000 A 
ATOM      5  C   UNL     1       5.437   4.815  18.463  0.00  0.00    +0.000 A 
ATOM      6  C   UNL     1       5.211   6.091  17.894  0.00  0.00    +0.000 A 
ATOM      7  C   UNL     1       4.683   2.795  19.819  0.00  0.00    +0.000 C 
ATOM      8  C   UNL     1       3.607   2.426  20.828  0.00  0.00    +0.000 C 
ATOM      9  C   UNL     1       2.221   2.843  20.323  0.00  0.00    +0.000 C 
ATOM     10  C   UNL     1       1.799   2.145  19.020  0.00  0.00    +0.000 C 
ATOM     11  C   UNL     1       1.181   2.506  21.402  0.00  0.00    +0.000 C 
ATOM     12  O   UNL     1       2.182   4.270  20.135  0.00  0.00    +0.000 OA
ENDROOT
BRANCH   1  14
ATOM     13  C   UNL     1       2.452   8.512  17.747  0.00  0.00    +0.000 C 
ATOM     14  O   UNL     1       3.763   7.971  17.589  0.00  0.00    +0.000 OA
ENDBRANCH   1  14
BRANCH   5  15
ATOM     15  O   UNL     1       6.658   4.215  18.284  0.00  0.00    +0.000 OA
ATOM     16  H   UNL     1       7.288   4.545  18.943  0.00  0.00    +0.000 HD
ENDBRANCH   5  15
BRANCH   6  17
ATOM     17  C   UNL     1       6.225   6.646  16.937  0.00  0.00    +0.000 C 
ATOM     18  O   UNL     1       6.580   5.993  15.958  0.00  0.00    +0.000 OA
BRANCH  17  19
ATOM     19  C   UNL     1       6.792   8.007  17.187  0.00  0.00    +0.000 C 
ATOM     20  C   UNL     1       7.861   8.155  17.987  0.00  0.00    +0.000 C 
BRANCH  20  21
ATOM     21  C   UNL     1       8.455   9.461  18.281  0.00  0.00    +0.000 A 
ATOM     22  C   UNL     1       8.115  10.568  17.493  0.00  0.00    +0.000 A 
ATOM     23  C   UNL     1       8.702  11.814  17.736  0.00  0.00    +0.000 A 
ATOM     24  C   UNL     1       9.618  11.963  18.779  0.00  0.00    +0.000 A 
ATOM     25  C   UNL     1       9.954  10.877  19.583  0.00  0.00    +0.000 A 
ATOM     26  C   UNL     1       9.369   9.625  19.327  0.00  0.00    +0.000 A 
BRANCH  24  27
ATOM     27  O   UNL     1      10.216  13.244  18.875  0.00  0.00    +0.000 OA
BRANCH  27  28
ATOM     28  C   UNL     1      10.636  14.016  17.792  0.00  0.00    +0.000 C 
ATOM     29  C   UNL     1      11.775  13.322  17.095  0.00  0.00    +0.000 C 
ATOM     30  O   UNL     1      10.178  15.094  17.440  0.00  0.00    +0.000 OA
ENDBRANCH  27  28
ENDBRANCH  24  27
ENDBRANCH  20  21
ENDBRANCH  17  19
ENDBRANCH   6  17
TORSDOF 7
ENDMDL
MODEL 4
REMARK VINA RESULT:      -7.9      0.836      1.121
REMARK  Name = 
REMARK  11 active torsions:
REMARK  status: ('A' for Active; 'I' for Inactive)
REMARK    1  A    between atoms: C_1  and  O_2
REMARK    2  A    between atoms: O_2  and  C_3
REMARK    3  A    between atoms: C_7  and  O_8
REMARK    4  A    between atoms: C_9  and  C_10
REMARK    5  A    between atoms: C_10  and  C_12
REMARK    6  A    between atoms: C_13  and  C_14
REMARK    7  A    between atoms: C_17  and  O_18
REMARK    8  A    between atoms: O_18  and  C_19
REMARK    9  A    between atoms: C_19  and  C_20
REMARK   10  A    between atoms: C_26  and  C_27
REMARK   11  A    between atoms: C_26  and  C_28
REMARK                            x       y       z     vdW  Elec       q    Type
REMARK                         _______ _______ _______ _____ _____    ______ ____
ROOT
ATOM      1  C   UNL     1       6.618   5.231  18.802  0.00  0.00    +0.000 A 
ATOM      2  C   UNL     1       5.638   4.503  19.491  0.00  0.00    +0.000 A 
ATOM      3  C   UNL     1       4.283   4.624  19.167  0.00  0.00    +0.000 A 
ATOM      4  C   UNL     1       3.881   5.432  18.103  0.00  0.00    +0.000 A 
ATOM      5  C   UNL     1       4.862   6.167  17.409  0.00  0.00    +0.000 A 
ATOM      6  C   UNL     1       6.231   6.097  17.759  0.00  0.00    +0.000 A 
ATOM      7  C   UNL     1       2.419   5.535  17.757  0.00  0.00    +0.000 C 
ATOM      8  C   UNL     1       1.599   4.464  18.459  0.00  0.00    +0.000 C 
ATOM      9  C   UNL     1       2.045   4.305  19.917  0.00  0.00    +0.000 C 
ATOM     10  C   UNL     1       1.853   5.572  20.766  0.00  0.00    +0.000 C 
ATOM     11  C   UNL     1       1.231   3.173  20.561  0.00  0.00    +0.000 C 
ATOM     12  O   UNL     1       3.427   3.905  19.961  0.00  0.00    +0.000 OA
ENDROOT
BRANCH   1  14
ATOM     13  C   UNL     1       8.237   5.318  20.545  0.00  0.00    +0.000 C 
ATOM     14  O   UNL     1       7.944   5.180  19.156  0.00  0.00    +0.000 OA
ENDBRANCH   1  14
BRANCH   5  15
ATOM     15  O   UNL     1       4.490   6.938  16.337  0.00  0.00    +0.000 OA
ATOM     16  H   UNL     1       3.790   7.556  16.600  0.00  0.00    +0.000 HD
ENDBRANCH   5  15
BRANCH   6  17
ATOM     17  C   UNL     1       7.198   7.031  17.092  0.00  0.00    +0.000 C 
ATOM     18  O   UNL     1       7.806   6.679  16.082  0.00  0.00    +0.000 OA
BRANCH  17  19
ATOM     19  C   UNL     1       7.406   8.395  17.665  0.00  0.00    +0.000 C 
ATOM     20  C   UNL     1       8.629   8.777  18.070  0.00  0.00    +0.000 C 
BRANCH  20  21
ATOM     21  C   UNL     1       8.894  10.094  18.652  0.00  0.00    +0.000 A 
ATOM     22  C   UNL     1       8.776  11.239  17.854  0.00  0.00    +0.000 A 
ATOM     23  C   UNL     1       9.063  12.501  18.383  0.00  0.00    +0.000 A 
ATOM     24  C   UNL     1       9.453  12.627  19.718  0.00  0.00    +0.000 A 
ATOM     25  C   UNL     1       9.560  11.500  20.530  0.00  0.00    +0.000 A 
ATOM     26  C   UNL     1       9.280  10.234  19.990  0.00  0.00    +0.000 A 
BRANCH  24  27
ATOM     27  O   UNL     1       9.806  13.939  20.120  0.00  0.00    +0.000 OA
BRANCH  27  28
ATOM     28  C   UNL     1       9.231  14.632  21.185  0.00  0.00    +0.000 C 
ATOM     29  C   UNL     1      10.299  15.398  21.918  0.00  0.00    +0.000 C 
ATOM     30  O   UNL     1       8.051  14.633  21.506  0.00  0.00    +0.000 OA
ENDBRANCH  27  28
ENDBRANCH  24  27
ENDBRANCH  20  21
ENDBRANCH  17  19
ENDBRANCH   6  17
TORSDOF 7
ENDMDL
MODEL 5
REMARK VINA RESULT:      -7.8      1.430      2.796
REMARK  Name = 
REMARK  11 active torsions:
REMARK  status: ('A' for Active; 'I' for Inactive)
REMARK    1  A    between atoms: C_1  and  O_2
REMARK    2  A    between atoms: O_2  and  C_3
REMARK    3  A    between atoms: C_7  and  O_8
REMARK    4  A    between atoms: C_9  and  C_10
REMARK    5  A    between atoms: C_10  and  C_12
REMARK    6  A    between atoms: C_13  and  C_14
REMARK    7  A    between atoms: C_17  and  O_18
REMARK    8  A    between atoms: O_18  and  C_19
REMARK    9  A    between atoms: C_19  and  C_20
REMARK   10  A    between atoms: C_26  and  C_27
REMARK   11  A    between atoms: C_26  and  C_28
REMARK                            x       y       z     vdW  Elec       q    Type
REMARK                         _______ _______ _______ _____ _____    ______ ____
ROOT
ATOM      1  C   UNL     1       4.052   6.713  18.055  0.00  0.00    +0.000 A 
ATOM      2  C   UNL     1       3.051   6.072  18.801  0.00  0.00    +0.000 A 
ATOM      3  C   UNL     1       3.257   4.803  19.350  0.00  0.00    +0.000 A 
ATOM      4  C   UNL     1       4.493   4.168  19.218  0.00  0.00    +0.000 A 
ATOM      5  C   UNL     1       5.499   4.807  18.467  0.00  0.00    +0.000 A 
ATOM      6  C   UNL     1       5.289   6.067  17.860  0.00  0.00    +0.000 A 
ATOM      7  C   UNL     1       4.702   2.810  19.832  0.00  0.00    +0.000 C 
ATOM      8  C   UNL     1       3.584   2.453  20.800  0.00  0.00    +0.000 C 
ATOM      9  C   UNL     1       2.219   2.845  20.223  0.00  0.00    +0.000 C 
ATOM     10  C   UNL     1       1.863   2.115  18.919  0.00  0.00    +0.000 C 
ATOM     11  C   UNL     1       1.134   2.522  21.261  0.00  0.00    +0.000 C 
ATOM     12  O   UNL     1       2.176   4.268  20.001  0.00  0.00    +0.000 OA
ENDROOT
BRANCH   1  14
ATOM     13  C   UNL     1       2.567   8.532  17.664  0.00  0.00    +0.000 C 
ATOM     14  O   UNL     1       3.840   7.926  17.447  0.00  0.00    +0.000 OA
ENDBRANCH   1  14
BRANCH   5  15
ATOM     15  O   UNL     1       6.732   4.215  18.357  0.00  0.00    +0.000 OA
ATOM     16  H   UNL     1       6.684   3.461  17.748  0.00  0.00    +0.000 HD
ENDBRANCH   5  15
BRANCH   6  17
ATOM     17  C   UNL     1       6.341   6.611  16.938  0.00  0.00    +0.000 C 
ATOM     18  O   UNL     1       6.755   5.935  15.998  0.00  0.00    +0.000 OA
BRANCH  17  19
ATOM     19  C   UNL     1       6.873   7.988  17.173  0.00  0.00    +0.000 C 
ATOM     20  C   UNL     1       7.919   8.176  17.995  0.00  0.00    +0.000 C 
BRANCH  20  21
ATOM     21  C   UNL     1       8.477   9.500  18.276  0.00  0.00    +0.000 A 
ATOM     22  C   UNL     1       9.336   9.670  19.368  0.00  0.00    +0.000 A 
ATOM     23  C   UNL     1       9.847  10.936  19.674  0.00  0.00    +0.000 A 
ATOM     24  C   UNL     1       9.517  12.034  18.877  0.00  0.00    +0.000 A 
ATOM     25  C   UNL     1       8.678  11.878  17.776  0.00  0.00    +0.000 A 
ATOM     26  C   UNL     1       8.159  10.606  17.480  0.00  0.00    +0.000 A 
BRANCH  24  27
ATOM     27  O   UNL     1      10.017  13.279  19.331  0.00  0.00    +0.000 OA
BRANCH  27  28
ATOM     28  C   UNL     1       9.461  14.038  20.361  0.00  0.00    +0.000 C 
ATOM     29  C   UNL     1      10.545  14.834  21.037  0.00  0.00    +0.000 C 
ATOM     30  O   UNL     1       8.285  14.069  20.694  0.00  0.00    +0.000 OA
ENDBRANCH  27  28
ENDBRANCH  24  27
ENDBRANCH  20  21
ENDBRANCH  17  19
ENDBRANCH   6  17
TORSDOF 7
ENDMDL
MODEL 6
REMARK VINA RESULT:      -7.8      1.395      2.691
REMARK  Name = 
REMARK  11 active torsions:
REMARK  status: ('A' for Active; 'I' for Inactive)
REMARK    1  A    between atoms: C_1  and  O_2
REMARK    2  A    between atoms: O_2  and  C_3
REMARK    3  A    between atoms: C_7  and  O_8
REMARK    4  A    between atoms: C_9  and  C_10
REMARK    5  A    between atoms: C_10  and  C_12
REMARK    6  A    between atoms: C_13  and  C_14
REMARK    7  A    between atoms: C_17  and  O_18
REMARK    8  A    between atoms: O_18  and  C_19
REMARK    9  A    between atoms: C_19  and  C_20
REMARK   10  A    between atoms: C_26  and  C_27
REMARK   11  A    between atoms: C_26  and  C_28
REMARK                            x       y       z     vdW  Elec       q    Type
REMARK                         _______ _______ _______ _____ _____    ______ ____
ROOT
ATOM      1  C   UNL     1       4.350   6.750  18.042  0.00  0.00    +0.000 A 
ATOM      2  C   UNL     1       3.259   6.107  18.644  0.00  0.00    +0.000 A 
ATOM      3  C   UNL     1       3.376   4.816  19.167  0.00  0.00    +0.000 A 
ATOM      4  C   UNL     1       4.607   4.159  19.157  0.00  0.00    +0.000 A 
ATOM      5  C   UNL     1       5.705   4.799  18.550  0.00  0.00    +0.000 A 
ATOM      6  C   UNL     1       5.590   6.084  17.968  0.00  0.00    +0.000 A 
ATOM      7  C   UNL     1       4.718   2.776  19.742  0.00  0.00    +0.000 C 
ATOM      8  C   UNL     1       3.489   2.412  20.560  0.00  0.00    +0.000 C 
ATOM      9  C   UNL     1       2.208   2.854  19.844  0.00  0.00    +0.000 C 
ATOM     10  C   UNL     1       1.992   2.176  18.482  0.00  0.00    +0.000 C 
ATOM     11  C   UNL     1       1.003   2.521  20.738  0.00  0.00    +0.000 C 
ATOM     12  O   UNL     1       2.217   4.284  19.670  0.00  0.00    +0.000 OA
ENDROOT
BRANCH   1  14
ATOM     13  C   UNL     1       2.965   8.630  17.578  0.00  0.00    +0.000 C 
ATOM     14  O   UNL     1       4.233   7.988  17.457  0.00  0.00    +0.000 OA
ENDBRANCH   1  14
BRANCH   5  15
ATOM     15  O   UNL     1       6.931   4.184  18.562  0.00  0.00    +0.000 OA
ATOM     16  H   UNL     1       7.516   4.598  17.908  0.00  0.00    +0.000 HD
ENDBRANCH   5  15
BRANCH   6  17
ATOM     17  C   UNL     1       6.752   6.635  17.194  0.00  0.00    +0.000 C 
ATOM     18  O   UNL     1       6.893   6.360  16.004  0.00  0.00    +0.000 OA
BRANCH  17  19
ATOM     19  C   UNL     1       7.730   7.528  17.886  0.00  0.00    +0.000 C 
ATOM     20  C   UNL     1       7.752   8.844  17.613  0.00  0.00    +0.000 C 
BRANCH  20  21
ATOM     21  C   UNL     1       8.694   9.768  18.247  0.00  0.00    +0.000 A 
ATOM     22  C   UNL     1       8.931   9.676  19.624  0.00  0.00    +0.000 A 
ATOM     23  C   UNL     1       9.799  10.576  20.252  0.00  0.00    +0.000 A 
ATOM     24  C   UNL     1      10.446  11.561  19.504  0.00  0.00    +0.000 A 
ATOM     25  C   UNL     1      10.235  11.655  18.130  0.00  0.00    +0.000 A 
ATOM     26  C   UNL     1       9.354  10.755  17.506  0.00  0.00    +0.000 A 
BRANCH  24  27
ATOM     27  O   UNL     1      11.229  12.471  20.256  0.00  0.00    +0.000 OA
BRANCH  27  28
ATOM     28  C   UNL     1      11.105  13.860  20.212  0.00  0.00    +0.000 C 
ATOM     29  C   UNL     1      10.025  14.297  21.165  0.00  0.00    +0.000 C 
ATOM     30  O   UNL     1      11.751  14.630  19.515  0.00  0.00    +0.000 OA
ENDBRANCH  27  28
ENDBRANCH  24  27
ENDBRANCH  20  21
ENDBRANCH  17  19
ENDBRANCH   6  17
TORSDOF 7
ENDMDL
MODEL 7
REMARK VINA RESULT:      -7.8      1.332      2.545
REMARK  Name = 
REMARK  11 active torsions:
REMARK  status: ('A' for Active; 'I' for Inactive)
REMARK    1  A    between atoms: C_1  and  O_2
REMARK    2  A    between atoms: O_2  and  C_3
REMARK    3  A    between atoms: C_7  and  O_8
REMARK    4  A    between atoms: C_9  and  C_10
REMARK    5  A    between atoms: C_10  and  C_12
REMARK    6  A    between atoms: C_13  and  C_14
REMARK    7  A    between atoms: C_17  and  O_18
REMARK    8  A    between atoms: O_18  and  C_19
REMARK    9  A    between atoms: C_19  and  C_20
REMARK   10  A    between atoms: C_26  and  C_27
REMARK   11  A    between atoms: C_26  and  C_28
REMARK                            x       y       z     vdW  Elec       q    Type
REMARK                         _______ _______ _______ _____ _____    ______ ____
ROOT
ATOM      1  C   UNL     1       4.354   6.690  17.906  0.00  0.00    +0.000 A 
ATOM      2  C   UNL     1       3.250   6.077  18.516  0.00  0.00    +0.000 A 
ATOM      3  C   UNL     1       3.351   4.804  19.086  0.00  0.00    +0.000 A 
ATOM      4  C   UNL     1       4.577   4.137  19.114  0.00  0.00    +0.000 A 
ATOM      5  C   UNL     1       5.687   4.748  18.500  0.00  0.00    +0.000 A 
ATOM      6  C   UNL     1       5.589   6.013  17.872  0.00  0.00    +0.000 A 
ATOM      7  C   UNL     1       4.670   2.776  19.749  0.00  0.00    +0.000 C 
ATOM      8  C   UNL     1       3.428   2.449  20.564  0.00  0.00    +0.000 C 
ATOM      9  C   UNL     1       2.159   2.875  19.816  0.00  0.00    +0.000 C 
ATOM     10  C   UNL     1       1.956   2.151  18.476  0.00  0.00    +0.000 C 
ATOM     11  C   UNL     1       0.941   2.583  20.706  0.00  0.00    +0.000 C 
ATOM     12  O   UNL     1       2.181   4.298  19.592  0.00  0.00    +0.000 OA
ENDROOT
BRANCH   1  14
ATOM     13  C   UNL     1       3.043   8.632  17.486  0.00  0.00    +0.000 C 
ATOM     14  O   UNL     1       4.253   7.907  17.277  0.00  0.00    +0.000 OA
ENDBRANCH   1  14
BRANCH   5  15
ATOM     15  O   UNL     1       6.909   4.125  18.549  0.00  0.00    +0.000 OA
ATOM     16  H   UNL     1       7.481   4.569  19.195  0.00  0.00    +0.000 HD
ENDBRANCH   5  15
BRANCH   6  17
ATOM     17  C   UNL     1       6.765   6.528  17.094  0.00  0.00    +0.000 C 
ATOM     18  O   UNL     1       6.968   6.140  15.944  0.00  0.00    +0.000 OA
BRANCH  17  19
ATOM     19  C   UNL     1       7.680   7.523  17.731  0.00  0.00    +0.000 C 
ATOM     20  C   UNL     1       7.469   8.839  17.561  0.00  0.00    +0.000 C 
BRANCH  20  21
ATOM     21  C   UNL     1       8.336   9.862  18.147  0.00  0.00    +0.000 A 
ATOM     22  C   UNL     1       8.433  11.119  17.537  0.00  0.00    +0.000 A 
ATOM     23  C   UNL     1       9.287  12.094  18.063  0.00  0.00    +0.000 A 
ATOM     24  C   UNL     1      10.034  11.824  19.211  0.00  0.00    +0.000 A 
ATOM     25  C   UNL     1       9.936  10.585  19.840  0.00  0.00    +0.000 A 
ATOM     26  C   UNL     1       9.085   9.605  19.301  0.00  0.00    +0.000 A 
BRANCH  24  27
ATOM     27  O   UNL     1      10.930  12.850  19.600  0.00  0.00    +0.000 OA
BRANCH  27  28
ATOM     28  C   UNL     1      10.660  13.830  20.555  0.00  0.00    +0.000 C 
ATOM     29  C   UNL     1      11.230  15.145  20.097  0.00  0.00    +0.000 C 
ATOM     30  O   UNL     1      10.064  13.678  21.612  0.00  0.00    +0.000 OA
ENDBRANCH  27  28
ENDBRANCH  24  27
ENDBRANCH  20  21
ENDBRANCH  17  19
ENDBRANCH   6  17
TORSDOF 7
ENDMDL
MODEL 8
REMARK VINA RESULT:      -7.7      5.233      7.179
REMARK  Name = 
REMARK  11 active torsions:
REMARK  status: ('A' for Active; 'I' for Inactive)
REMARK    1  A    between atoms: C_1  and  O_2
REMARK    2  A    between atoms: O_2  and  C_3
REMARK    3  A    between atoms: C_7  and  O_8
REMARK    4  A    between atoms: C_9  and  C_10
REMARK    5  A    between atoms: C_10  and  C_12
REMARK    6  A    between atoms: C_13  and  C_14
REMARK    7  A    between atoms: C_17  and  O_18
REMARK    8  A    between atoms: O_18  and  C_19
REMARK    9  A    between atoms: C_19  and  C_20
REMARK   10  A    between atoms: C_26  and  C_27
REMARK   11  A    between atoms: C_26  and  C_28
REMARK                            x       y       z     vdW  Elec       q    Type
REMARK                         _______ _______ _______ _____ _____    ______ ____
ROOT
ATOM      1  C   UNL     1       2.329   3.788  18.252  0.00  0.00    +0.000 A 
ATOM      2  C   UNL     1       2.969   3.643  17.012  0.00  0.00    +0.000 A 
ATOM      3  C   UNL     1       4.291   4.057  16.826  0.00  0.00    +0.000 A 
ATOM      4  C   UNL     1       5.028   4.570  17.894  0.00  0.00    +0.000 A 
ATOM      5  C   UNL     1       4.388   4.719  19.141  0.00  0.00    +0.000 A 
ATOM      6  C   UNL     1       3.034   4.355  19.332  0.00  0.00    +0.000 A 
ATOM      7  C   UNL     1       6.457   4.992  17.680  0.00  0.00    +0.000 C 
ATOM      8  C   UNL     1       6.995   4.495  16.347  0.00  0.00    +0.000 C 
ATOM      9  C   UNL     1       5.954   4.678  15.237  0.00  0.00    +0.000 C 
ATOM     10  C   UNL     1       5.564   6.143  14.986  0.00  0.00    +0.000 C 
ATOM     11  C   UNL     1       6.521   4.104  13.929  0.00  0.00    +0.000 C 
ATOM     12  O   UNL     1       4.772   3.916  15.550  0.00  0.00    +0.000 OA
ENDROOT
BRANCH   1  14
ATOM     13  C   UNL     1       0.741   2.118  18.851  0.00  0.00    +0.000 C 
ATOM     14  O   UNL     1       1.008   3.455  18.431  0.00  0.00    +0.000 OA
ENDBRANCH   1  14
BRANCH   5  15
ATOM     15  O   UNL     1       5.107   5.187  20.212  0.00  0.00    +0.000 OA
ATOM     16  H   UNL     1       5.924   5.610  19.903  0.00  0.00    +0.000 HD
ENDBRANCH   5  15
BRANCH   6  17
ATOM     17  C   UNL     1       2.370   4.695  20.633  0.00  0.00    +0.000 C 
ATOM     18  O   UNL     1       2.405   3.906  21.575  0.00  0.00    +0.000 OA
BRANCH  17  19
ATOM     19  C   UNL     1       1.672   6.010  20.773  0.00  0.00    +0.000 C 
ATOM     20  C   UNL     1       2.081   7.070  20.056  0.00  0.00    +0.000 C 
BRANCH  20  21
ATOM     21  C   UNL     1       1.448   8.386  20.157  0.00  0.00    +0.000 A 
ATOM     22  C   UNL     1       1.430   9.233  19.042  0.00  0.00    +0.000 A 
ATOM     23  C   UNL     1       0.864  10.508  19.133  0.00  0.00    +0.000 A 
ATOM     24  C   UNL     1       0.296  10.937  20.335  0.00  0.00    +0.000 A 
ATOM     25  C   UNL     1       0.290  10.100  21.449  0.00  0.00    +0.000 A 
ATOM     26  C   UNL     1       0.870   8.824  21.354  0.00  0.00    +0.000 A 
BRANCH  24  27
ATOM     27  O   UNL     1      -0.165  12.276  20.338  0.00  0.00    +0.000 OA
BRANCH  27  28
ATOM     28  C   UNL     1       0.626  13.396  20.593  0.00  0.00    +0.000 C 
ATOM     29  C   UNL     1       0.539  14.346  19.429  0.00  0.00    +0.000 C 
ATOM     30  O   UNL     1       1.304  13.601  21.590  0.00  0.00    +0.000 OA
ENDBRANCH  27  28
ENDBRANCH  24  27
ENDBRANCH  20  21
ENDBRANCH  17  19
ENDBRANCH   6  17
TORSDOF 7
ENDMDL
MODEL 9
REMARK VINA RESULT:      -7.7      5.428      7.737
REMARK  Name = 
REMARK  11 active torsions:
REMARK  status: ('A' for Active; 'I' for Inactive)
REMARK    1  A    between atoms: C_1  and  O_2
REMARK    2  A    between atoms: O_2  and  C_3
REMARK    3  A    between atoms: C_7  and  O_8
REMARK    4  A    between atoms: C_9  and  C_10
REMARK    5  A    between atoms: C_10  and  C_12
REMARK    6  A    between atoms: C_13  and  C_14
REMARK    7  A    between atoms: C_17  and  O_18
REMARK    8  A    between atoms: O_18  and  C_19
REMARK    9  A    between atoms: C_19  and  C_20
REMARK   10  A    between atoms: C_26  and  C_27
REMARK   11  A    between atoms: C_26  and  C_28
REMARK                            x       y       z     vdW  Elec       q    Type
REMARK                         _______ _______ _______ _____ _____    ______ ____
ROOT
ATOM      1  C   UNL     1       2.302   3.809  18.292  0.00  0.00    +0.000 A 
ATOM      2  C   UNL     1       2.938   3.618  17.057  0.00  0.00    +0.000 A 
ATOM      3  C   UNL     1       4.258   4.030  16.850  0.00  0.00    +0.000 A 
ATOM      4  C   UNL     1       4.996   4.589  17.894  0.00  0.00    +0.000 A 
ATOM      5  C   UNL     1       4.359   4.786  19.136  0.00  0.00    +0.000 A 
ATOM      6  C   UNL     1       3.008   4.423  19.346  0.00  0.00    +0.000 A 
ATOM      7  C   UNL     1       6.422   5.010  17.658  0.00  0.00    +0.000 C 
ATOM      8  C   UNL     1       6.958   4.462  16.344  0.00  0.00    +0.000 C 
ATOM      9  C   UNL     1       5.912   4.594  15.231  0.00  0.00    +0.000 C 
ATOM     10  C   UNL     1       5.515   6.046  14.922  0.00  0.00    +0.000 C 
ATOM     11  C   UNL     1       6.478   3.971  13.946  0.00  0.00    +0.000 C 
ATOM     12  O   UNL     1       4.735   3.840  15.579  0.00  0.00    +0.000 OA
ENDROOT
BRANCH   1  14
ATOM     13  C   UNL     1       0.714   2.120  18.834  0.00  0.00    +0.000 C 
ATOM     14  O   UNL     1       0.984   3.478  18.489  0.00  0.00    +0.000 OA
ENDBRANCH   1  14
BRANCH   5  15
ATOM     15  O   UNL     1       5.079   5.300  20.184  0.00  0.00    +0.000 OA
ATOM     16  H   UNL     1       5.723   4.645  20.497  0.00  0.00    +0.000 HD
ENDBRANCH   5  15
BRANCH   6  17
ATOM     17  C   UNL     1       2.346   4.813  20.635  0.00  0.00    +0.000 C 
ATOM     18  O   UNL     1       2.437   4.088  21.625  0.00  0.00    +0.000 OA
BRANCH  17  19
ATOM     19  C   UNL     1       1.582   6.095  20.703  0.00  0.00    +0.000 C 
ATOM     20  C   UNL     1       2.055   7.195  20.091  0.00  0.00    +0.000 C 
BRANCH  20  21
ATOM     21  C   UNL     1       1.360   8.483  20.132  0.00  0.00    +0.000 A 
ATOM     22  C   UNL     1       1.334   9.291  18.989  0.00  0.00    +0.000 A 
ATOM     23  C   UNL     1       0.709  10.542  19.022  0.00  0.00    +0.000 A 
ATOM     24  C   UNL     1       0.090  10.982  20.193  0.00  0.00    +0.000 A 
ATOM     25  C   UNL     1       0.091  10.184  21.334  0.00  0.00    +0.000 A 
ATOM     26  C   UNL     1       0.731   8.933  21.298  0.00  0.00    +0.000 A 
BRANCH  24  27
ATOM     27  O   UNL     1      -0.431  12.299  20.139  0.00  0.00    +0.000 OA
BRANCH  27  28
ATOM     28  C   UNL     1      -1.758  12.646  20.394  0.00  0.00    +0.000 C 
ATOM     29  C   UNL     1      -2.641  12.072  19.320  0.00  0.00    +0.000 C 
ATOM     30  O   UNL     1      -2.172  13.317  21.329  0.00  0.00    +0.000 OA
ENDBRANCH  27  28
ENDBRANCH  24  27
ENDBRANCH  20  21
ENDBRANCH  17  19
ENDBRANCH   6  17
TORSDOF 7
ENDMDL
