MODEL 1
REMARK VINA RESULT:      -9.2      0.000      0.000
REMARK  Name = 
REMARK  5 active torsions:
REMARK  status: ('A' for Active; 'I' for Inactive)
REMARK    1  A    between atoms: C_1  and  C_2
REMARK    2  A    between atoms: C_2  and  C_3
REMARK    3  A    between atoms: C_14  and  C_16
REMARK    4  A    between atoms: C_16  and  C_17
REMARK    5  A    between atoms: C_20  and  C_21
REMARK                            x       y       z     vdW  Elec       q    Type
REMARK                         _______ _______ _______ _____ _____    ______ ____
ROOT
ATOM      1  C   UNL     1       4.825   3.100  19.775  0.00  0.00    +0.000 C 
ATOM      2  C   UNL     1       3.959   3.190  18.514  0.00  0.00    +0.000 C 
ATOM      3  C   UNL     1       3.434   1.804  18.024  0.00  0.00    +0.000 C 
ATOM      4  C   UNL     1       2.020   2.365  18.033  0.00  0.00    +0.000 C 
ATOM      5  N   UNL     1       2.541   3.444  18.850  0.00  0.00    +0.000 N 
ATOM      6  C   UNL     1       1.817   4.233  19.699  0.00  0.00    +0.000 C 
ATOM      7  O   UNL     1       0.618   4.003  19.885  0.00  0.00    +0.000 OA
ENDROOT
BRANCH   2   8
ATOM      8  C   UNL     1       4.601   4.155  17.420  0.00  0.00    +0.000 C 
ATOM      9  O   UNL     1       4.487   3.944  16.204  0.00  0.00    +0.000 OA
ATOM     10  N   UNL     1       5.252   5.320  17.871  0.00  0.00    +0.000 N 
ATOM     11  C   UNL     1       5.668   6.339  16.906  0.00  0.00    +0.000 C 
ATOM     12  C   UNL     1       7.189   6.473  16.878  0.00  0.00    +0.000 C 
ATOM     13  C   UNL     1       7.759   6.690  18.283  0.00  0.00    +0.000 C 
ATOM     14  C   UNL     1       7.246   5.625  19.253  0.00  0.00    +0.000 C 
ATOM     15  C   UNL     1       5.720   5.571  19.234  0.00  0.00    +0.000 C 
ENDBRANCH   2   8
BRANCH   6  16
ATOM     16  C   UNL     1       2.537   5.340  20.445  0.00  0.00    +0.000 C 
BRANCH  16  17
ATOM     17  C   UNL     1       2.083   6.737  20.090  0.00  0.00    +0.000 A 
ATOM     18  C   UNL     1       2.346   7.292  18.835  0.00  0.00    +0.000 A 
ATOM     19  C   UNL     1       1.894   8.576  18.518  0.00  0.00    +0.000 A 
ATOM     20  C   UNL     1       1.136   9.338  19.423  0.00  0.00    +0.000 A 
ATOM     21  C   UNL     1       0.876   8.768  20.680  0.00  0.00    +0.000 A 
ATOM     22  C   UNL     1       1.347   7.491  21.011  0.00  0.00    +0.000 A 
BRANCH  20  23
ATOM     23  C   UNL     1       0.651  10.691  19.057  0.00  0.00    +0.000 A 
ATOM     24  C   UNL     1      -0.698  10.910  18.716  0.00  0.00    +0.000 A 
ATOM     25  C   UNL     1      -1.155  12.166  18.306  0.00  0.00    +0.000 A 
ATOM     26  C   UNL     1      -0.275  13.239  18.251  0.00  0.00    +0.000 A 
ATOM     27  C   UNL     1       1.054  13.064  18.613  0.00  0.00    +0.000 A 
ATOM     28  C   UNL     1       1.514  11.802  19.011  0.00  0.00    +0.000 A 
ENDBRANCH  20  23
ENDBRANCH  16  17
ENDBRANCH   6  16
TORSDOF 4
ENDMDL
MODEL 2
REMARK VINA RESULT:      -9.2      0.159      1.291
REMARK  Name = 
REMARK  5 active torsions:
REMARK  status: ('A' for Active; 'I' for Inactive)
REMARK    1  A    between atoms: C_1  and  C_2
REMARK    2  A    between atoms: C_2  and  C_3
REMARK    3  A    between atoms: C_14  and  C_16
REMARK    4  A    between atoms: C_16  and  C_17
REMARK    5  A    between atoms: C_20  and  C_21
REMARK                            x       y       z     vdW  Elec       q    Type
REMARK                         _______ _______ _______ _____ _____    ______ ____
ROOT
ATOM      1  C   UNL     1       4.846   3.106  19.805  0.00  0.00    +0.000 C 
ATOM      2  C   UNL     1       3.999   3.157  18.530  0.00  0.00    +0.000 C 
ATOM      3  C   UNL     1       3.492   1.755  18.067  0.00  0.00    +0.000 C 
ATOM      4  C   UNL     1       2.074   2.304  18.041  0.00  0.00    +0.000 C 
ATOM      5  N   UNL     1       2.573   3.408  18.837  0.00  0.00    +0.000 N 
ATOM      6  C   UNL     1       1.831   4.212  19.655  0.00  0.00    +0.000 C 
ATOM      7  O   UNL     1       0.631   3.977  19.829  0.00  0.00    +0.000 OA
ENDROOT
BRANCH   2   8
ATOM      8  C   UNL     1       4.650   4.100  17.421  0.00  0.00    +0.000 C 
ATOM      9  O   UNL     1       4.558   3.856  16.209  0.00  0.00    +0.000 OA
ATOM     10  N   UNL     1       5.282   5.282  17.852  0.00  0.00    +0.000 N 
ATOM     11  C   UNL     1       5.704   6.280  16.868  0.00  0.00    +0.000 C 
ATOM     12  C   UNL     1       7.225   6.427  16.861  0.00  0.00    +0.000 C 
ATOM     13  C   UNL     1       7.769   6.686  18.268  0.00  0.00    +0.000 C 
ATOM     14  C   UNL     1       7.250   5.643  19.258  0.00  0.00    +0.000 C 
ATOM     15  C   UNL     1       5.725   5.574  19.216  0.00  0.00    +0.000 C 
ENDBRANCH   2   8
BRANCH   6  16
ATOM     16  C   UNL     1       2.531   5.344  20.384  0.00  0.00    +0.000 C 
BRANCH  16  17
ATOM     17  C   UNL     1       2.055   6.727  20.003  0.00  0.00    +0.000 A 
ATOM     18  C   UNL     1       1.373   7.539  20.911  0.00  0.00    +0.000 A 
ATOM     19  C   UNL     1       0.964   8.826  20.547  0.00  0.00    +0.000 A 
ATOM     20  C   UNL     1       1.249   9.360  19.280  0.00  0.00    +0.000 A 
ATOM     21  C   UNL     1       1.937   8.535  18.375  0.00  0.00    +0.000 A 
ATOM     22  C   UNL     1       2.328   7.237  18.728  0.00  0.00    +0.000 A 
BRANCH  20  23
ATOM     23  C   UNL     1       0.822  10.735  18.921  0.00  0.00    +0.000 A 
ATOM     24  C   UNL     1       1.758  11.782  18.820  0.00  0.00    +0.000 A 
ATOM     25  C   UNL     1       1.362  13.094  18.548  0.00  0.00    +0.000 A 
ATOM     26  C   UNL     1       0.019  13.385  18.347  0.00  0.00    +0.000 A 
ATOM     27  C   UNL     1      -0.926  12.369  18.406  0.00  0.00    +0.000 A 
ATOM     28  C   UNL     1      -0.529  11.056  18.692  0.00  0.00    +0.000 A 
ENDBRANCH  20  23
ENDBRANCH  16  17
ENDBRANCH   6  16
TORSDOF 4
ENDMDL
MODEL 3
REMARK VINA RESULT:      -8.8      1.967      4.394
REMARK  Name = 
REMARK  5 active torsions:
REMARK  status: ('A' for Active; 'I' for Inactive)
REMARK    1  A    between atoms: C_1  and  C_2
REMARK    2  A    between atoms: C_2  and  C_3
REMARK    3  A    between atoms: C_14  and  C_16
REMARK    4  A    between atoms: C_16  and  C_17
REMARK    5  A    between atoms: C_20  and  C_21
REMARK                            x       y       z     vdW  Elec       q    Type
REMARK                         _______ _______ _______ _____ _____    ______ ____
ROOT
ATOM      1  C   UNL     1       4.914   4.046  16.358  0.00  0.00    +0.000 C 
ATOM      2  C   UNL     1       5.594   4.461  17.667  0.00  0.00    +0.000 C 
ATOM      3  C   UNL     1       7.150   4.349  17.619  0.00  0.00    +0.000 C 
ATOM      4  C   UNL     1       7.243   5.797  18.076  0.00  0.00    +0.000 C 
ATOM      5  N   UNL     1       5.846   5.919  17.706  0.00  0.00    +0.000 N 
ATOM      6  C   UNL     1       5.194   7.077  17.391  0.00  0.00    +0.000 C 
ATOM      7  O   UNL     1       5.819   8.140  17.327  0.00  0.00    +0.000 OA
ENDROOT
BRANCH   2   8
ATOM      8  C   UNL     1       4.856   3.847  18.940  0.00  0.00    +0.000 C 
ATOM      9  O   UNL     1       5.480   3.422  19.924  0.00  0.00    +0.000 OA
ATOM     10  N   UNL     1       3.448   3.864  18.957  0.00  0.00    +0.000 N 
ATOM     11  C   UNL     1       2.732   3.511  20.183  0.00  0.00    +0.000 C 
ATOM     12  C   UNL     1       1.910   2.238  19.986  0.00  0.00    +0.000 C 
ATOM     13  C   UNL     1       1.004   2.342  18.756  0.00  0.00    +0.000 C 
ATOM     14  C   UNL     1       1.801   2.765  17.521  0.00  0.00    +0.000 C 
ATOM     15  C   UNL     1       2.576   4.052  17.797  0.00  0.00    +0.000 C 
ENDBRANCH   2   8
BRANCH   6  16
ATOM     16  C   UNL     1       3.715   7.007  17.062  0.00  0.00    +0.000 C 
BRANCH  16  17
ATOM     17  C   UNL     1       2.814   7.685  18.068  0.00  0.00    +0.000 A 
ATOM     18  C   UNL     1       2.634   7.167  19.352  0.00  0.00    +0.000 A 
ATOM     19  C   UNL     1       1.816   7.824  20.276  0.00  0.00    +0.000 A 
ATOM     20  C   UNL     1       1.178   9.036  19.967  0.00  0.00    +0.000 A 
ATOM     21  C   UNL     1       1.368   9.550  18.673  0.00  0.00    +0.000 A 
ATOM     22  C   UNL     1       2.167   8.882  17.736  0.00  0.00    +0.000 A 
BRANCH  20  23
ATOM     23  C   UNL     1       0.330   9.726  20.969  0.00  0.00    +0.000 A 
ATOM     24  C   UNL     1      -0.386  10.891  20.634  0.00  0.00    +0.000 A 
ATOM     25  C   UNL     1      -1.137  11.589  21.585  0.00  0.00    +0.000 A 
ATOM     26  C   UNL     1      -1.206  11.121  22.891  0.00  0.00    +0.000 A 
ATOM     27  C   UNL     1      -0.539   9.956  23.246  0.00  0.00    +0.000 A 
ATOM     28  C   UNL     1       0.224   9.266  22.295  0.00  0.00    +0.000 A 
ENDBRANCH  20  23
ENDBRANCH  16  17
ENDBRANCH   6  16
TORSDOF 4
ENDMDL
MODEL 4
REMARK VINA RESULT:      -8.4      4.993     10.121
REMARK  Name = 
REMARK  5 active torsions:
REMARK  status: ('A' for Active; 'I' for Inactive)
REMARK    1  A    between atoms: C_1  and  C_2
REMARK    2  A    between atoms: C_2  and  C_3
REMARK    3  A    between atoms: C_14  and  C_16
REMARK    4  A    between atoms: C_16  and  C_17
REMARK    5  A    between atoms: C_20  and  C_21
REMARK                            x       y       z     vdW  Elec       q    Type
REMARK                         _______ _______ _______ _____ _____    ______ ____
ROOT
ATOM      1  C   UNL     1      -1.521  11.211  23.093  0.00  0.00    +0.000 C 
ATOM      2  C   UNL     1      -1.477  12.464  22.212  0.00  0.00    +0.000 C 
ATOM      3  C   UNL     1      -0.834  13.697  22.922  0.00  0.00    +0.000 C 
ATOM      4  C   UNL     1       0.119  13.845  21.746  0.00  0.00    +0.000 C 
ATOM      5  N   UNL     1      -0.257  12.494  21.376  0.00  0.00    +0.000 N 
ATOM      6  C   UNL     1       0.480  11.634  20.613  0.00  0.00    +0.000 C 
ATOM      7  O   UNL     1       1.612  11.955  20.237  0.00  0.00    +0.000 OA
ENDROOT
BRANCH   2   8
ATOM      8  C   UNL     1      -2.855  12.700  21.445  0.00  0.00    +0.000 C 
ATOM      9  O   UNL     1      -2.921  12.757  20.209  0.00  0.00    +0.000 OA
ATOM     10  N   UNL     1      -4.033  12.768  22.214  0.00  0.00    +0.000 N 
ATOM     11  C   UNL     1      -5.336  12.769  21.548  0.00  0.00    +0.000 C 
ATOM     12  C   UNL     1      -6.067  14.090  21.783  0.00  0.00    +0.000 C 
ATOM     13  C   UNL     1      -6.141  14.431  23.274  0.00  0.00    +0.000 C 
ATOM     14  C   UNL     1      -4.757  14.362  23.922  0.00  0.00    +0.000 C 
ATOM     15  C   UNL     1      -4.107  13.006  23.656  0.00  0.00    +0.000 C 
ENDBRANCH   2   8
BRANCH   6  16
ATOM     16  C   UNL     1      -0.100  10.267  20.302  0.00  0.00    +0.000 C 
BRANCH  16  17
ATOM     17  C   UNL     1       0.869   9.305  19.653  0.00  0.00    +0.000 A 
ATOM     18  C   UNL     1       1.406   8.226  20.358  0.00  0.00    +0.000 A 
ATOM     19  C   UNL     1       2.280   7.333  19.731  0.00  0.00    +0.000 A 
ATOM     20  C   UNL     1       2.622   7.462  18.375  0.00  0.00    +0.000 A 
ATOM     21  C   UNL     1       2.074   8.551  17.676  0.00  0.00    +0.000 A 
ATOM     22  C   UNL     1       1.216   9.461  18.306  0.00  0.00    +0.000 A 
BRANCH  20  23
ATOM     23  C   UNL     1       3.537   6.492  17.726  0.00  0.00    +0.000 A 
ATOM     24  C   UNL     1       4.692   6.927  17.047  0.00  0.00    +0.000 A 
ATOM     25  C   UNL     1       5.527   6.030  16.375  0.00  0.00    +0.000 A 
ATOM     26  C   UNL     1       5.238   4.672  16.386  0.00  0.00    +0.000 A 
ATOM     27  C   UNL     1       4.125   4.207  17.075  0.00  0.00    +0.000 A 
ATOM     28  C   UNL     1       3.282   5.108  17.737  0.00  0.00    +0.000 A 
ENDBRANCH  20  23
ENDBRANCH  16  17
ENDBRANCH   6  16
TORSDOF 4
ENDMDL
MODEL 5
REMARK VINA RESULT:      -8.1      4.348      9.731
REMARK  Name = 
REMARK  5 active torsions:
REMARK  status: ('A' for Active; 'I' for Inactive)
REMARK    1  A    between atoms: C_1  and  C_2
REMARK    2  A    between atoms: C_2  and  C_3
REMARK    3  A    between atoms: C_14  and  C_16
REMARK    4  A    between atoms: C_16  and  C_17
REMARK    5  A    between atoms: C_20  and  C_21
REMARK                            x       y       z     vdW  Elec       q    Type
REMARK                         _______ _______ _______ _____ _____    ______ ____
ROOT
ATOM      1  C   UNL     1      -2.516  12.045  21.878  0.00  0.00    +0.000 C 
ATOM      2  C   UNL     1      -1.989  12.720  20.608  0.00  0.00    +0.000 C 
ATOM      3  C   UNL     1      -1.794  14.261  20.762  0.00  0.00    +0.000 C 
ATOM      4  C   UNL     1      -0.361  14.102  20.278  0.00  0.00    +0.000 C 
ATOM      5  N   UNL     1      -0.511  12.686  20.552  0.00  0.00    +0.000 N 
ATOM      6  C   UNL     1       0.500  11.800  20.795  0.00  0.00    +0.000 C 
ATOM      7  O   UNL     1       1.666  12.200  20.875  0.00  0.00    +0.000 OA
ENDROOT
BRANCH   2   8
ATOM      8  C   UNL     1      -2.750  12.207  19.304  0.00  0.00    +0.000 C 
ATOM      9  O   UNL     1      -2.143  11.787  18.308  0.00  0.00    +0.000 OA
ATOM     10  N   UNL     1      -4.158  12.170  19.335  0.00  0.00    +0.000 N 
ATOM     11  C   UNL     1      -4.890  11.512  18.252  0.00  0.00    +0.000 C 
ATOM     12  C   UNL     1      -5.738  12.520  17.478  0.00  0.00    +0.000 C 
ATOM     13  C   UNL     1      -6.632  13.336  18.415  0.00  0.00    +0.000 C 
ATOM     14  C   UNL     1      -5.817  13.953  19.552  0.00  0.00    +0.000 C 
ATOM     15  C   UNL     1      -5.017  12.878  20.284  0.00  0.00    +0.000 C 
ENDBRANCH   2   8
BRANCH   6  16
ATOM     16  C   UNL     1       0.145  10.344  21.026  0.00  0.00    +0.000 C 
BRANCH  16  17
ATOM     17  C   UNL     1       0.964   9.361  20.222  0.00  0.00    +0.000 A 
ATOM     18  C   UNL     1       1.450   8.181  20.790  0.00  0.00    +0.000 A 
ATOM     19  C   UNL     1       2.184   7.273  20.021  0.00  0.00    +0.000 A 
ATOM     20  C   UNL     1       2.429   7.489  18.655  0.00  0.00    +0.000 A 
ATOM     21  C   UNL     1       1.934   8.678  18.095  0.00  0.00    +0.000 A 
ATOM     22  C   UNL     1       1.218   9.602  18.866  0.00  0.00    +0.000 A 
BRANCH  20  23
ATOM     23  C   UNL     1       3.195   6.502  17.855  0.00  0.00    +0.000 A 
ATOM     24  C   UNL     1       2.881   5.130  17.902  0.00  0.00    +0.000 A 
ATOM     25  C   UNL     1       3.634   4.182  17.205  0.00  0.00    +0.000 A 
ATOM     26  C   UNL     1       4.708   4.589  16.424  0.00  0.00    +0.000 A 
ATOM     27  C   UNL     1       5.024   5.938  16.330  0.00  0.00    +0.000 A 
ATOM     28  C   UNL     1       4.276   6.886  17.039  0.00  0.00    +0.000 A 
ENDBRANCH  20  23
ENDBRANCH  16  17
ENDBRANCH   6  16
TORSDOF 4
ENDMDL
MODEL 6
REMARK VINA RESULT:      -8.0      5.204     10.283
REMARK  Name = 
REMARK  5 active torsions:
REMARK  status: ('A' for Active; 'I' for Inactive)
REMARK    1  A    between atoms: C_1  and  C_2
REMARK    2  A    between atoms: C_2  and  C_3
REMARK    3  A    between atoms: C_14  and  C_16
REMARK    4  A    between atoms: C_16  and  C_17
REMARK    5  A    between atoms: C_20  and  C_21
REMARK                            x       y       z     vdW  Elec       q    Type
REMARK                         _______ _______ _______ _____ _____    ______ ____
ROOT
ATOM      1  C   UNL     1      -1.883  11.466  23.177  0.00  0.00    +0.000 C 
ATOM      2  C   UNL     1      -1.663  12.755  22.378  0.00  0.00    +0.000 C 
ATOM      3  C   UNL     1      -0.961  13.880  23.202  0.00  0.00    +0.000 C 
ATOM      4  C   UNL     1       0.082  13.999  22.101  0.00  0.00    +0.000 C 
ATOM      5  N   UNL     1      -0.389  12.713  21.627  0.00  0.00    +0.000 N 
ATOM      6  C   UNL     1       0.317  11.829  20.862  0.00  0.00    +0.000 C 
ATOM      7  O   UNL     1       1.498  12.059  20.581  0.00  0.00    +0.000 OA
ENDROOT
BRANCH   2   8
ATOM      8  C   UNL     1      -2.956  13.162  21.539  0.00  0.00    +0.000 C 
ATOM      9  O   UNL     1      -2.958  13.189  20.300  0.00  0.00    +0.000 OA
ATOM     10  N   UNL     1      -4.145  13.425  22.248  0.00  0.00    +0.000 N 
ATOM     11  C   UNL     1      -5.402  13.592  21.518  0.00  0.00    +0.000 C 
ATOM     12  C   UNL     1      -5.943  15.012  21.685  0.00  0.00    +0.000 C 
ATOM     13  C   UNL     1      -6.033  15.407  23.162  0.00  0.00    +0.000 C 
ATOM     14  C   UNL     1      -4.705  15.159  23.878  0.00  0.00    +0.000 C 
ATOM     15  C   UNL     1      -4.247  13.716  23.678  0.00  0.00    +0.000 C 
ENDBRANCH   2   8
BRANCH   6  16
ATOM     16  C   UNL     1      -0.363  10.542  20.432  0.00  0.00    +0.000 C 
BRANCH  16  17
ATOM     17  C   UNL     1       0.551   9.540  19.764  0.00  0.00    +0.000 A 
ATOM     18  C   UNL     1       0.879   9.642  18.410  0.00  0.00    +0.000 A 
ATOM     19  C   UNL     1       1.747   8.719  17.819  0.00  0.00    +0.000 A 
ATOM     20  C   UNL     1       2.345   7.687  18.559  0.00  0.00    +0.000 A 
ATOM     21  C   UNL     1       2.009   7.596  19.920  0.00  0.00    +0.000 A 
ATOM     22  C   UNL     1       1.122   8.504  20.512  0.00  0.00    +0.000 A 
BRANCH  20  23
ATOM     23  C   UNL     1       3.277   6.730  17.914  0.00  0.00    +0.000 A 
ATOM     24  C   UNL     1       4.419   7.183  17.225  0.00  0.00    +0.000 A 
ATOM     25  C   UNL     1       5.270   6.299  16.557  0.00  0.00    +0.000 A 
ATOM     26  C   UNL     1       5.010   4.935  16.583  0.00  0.00    +0.000 A 
ATOM     27  C   UNL     1       3.911   4.452  17.282  0.00  0.00    +0.000 A 
ATOM     28  C   UNL     1       3.052   5.341  17.940  0.00  0.00    +0.000 A 
ENDBRANCH  20  23
ENDBRANCH  16  17
ENDBRANCH   6  16
TORSDOF 4
ENDMDL
MODEL 7
REMARK VINA RESULT:      -7.9      4.036      9.107
REMARK  Name = 
REMARK  5 active torsions:
REMARK  status: ('A' for Active; 'I' for Inactive)
REMARK    1  A    between atoms: C_1  and  C_2
REMARK    2  A    between atoms: C_2  and  C_3
REMARK    3  A    between atoms: C_14  and  C_16
REMARK    4  A    between atoms: C_16  and  C_17
REMARK    5  A    between atoms: C_20  and  C_21
REMARK                            x       y       z     vdW  Elec       q    Type
REMARK                         _______ _______ _______ _____ _____    ______ ____
ROOT
ATOM      1  C   UNL     1       2.082  12.467  19.026  0.00  0.00    +0.000 C 
ATOM      2  C   UNL     1       0.709  12.986  19.463  0.00  0.00    +0.000 C 
ATOM      3  C   UNL     1      -0.088  13.675  18.312  0.00  0.00    +0.000 C 
ATOM      4  C   UNL     1      -1.262  12.753  18.606  0.00  0.00    +0.000 C 
ATOM      5  N   UNL     1      -0.326  11.934  19.352  0.00  0.00    +0.000 N 
ATOM      6  C   UNL     1      -0.467  10.605  19.633  0.00  0.00    +0.000 C 
ATOM      7  O   UNL     1      -1.422   9.973  19.172  0.00  0.00    +0.000 OA
ENDROOT
BRANCH   2   8
ATOM      8  C   UNL     1       0.780  13.750  20.861  0.00  0.00    +0.000 C 
ATOM      9  O   UNL     1       0.341  13.253  21.909  0.00  0.00    +0.000 OA
ATOM     10  N   UNL     1       1.433  14.997  20.896  0.00  0.00    +0.000 N 
ATOM     11  C   UNL     1       1.711  15.635  22.184  0.00  0.00    +0.000 C 
ATOM     12  C   UNL     1       0.936  16.944  22.322  0.00  0.00    +0.000 C 
ATOM     13  C   UNL     1       1.172  17.863  21.119  0.00  0.00    +0.000 C 
ATOM     14  C   UNL     1       0.915  17.124  19.805  0.00  0.00    +0.000 C 
ATOM     15  C   UNL     1       1.741  15.841  19.741  0.00  0.00    +0.000 C 
ENDBRANCH   2   8
BRANCH   6  16
ATOM     16  C   UNL     1       0.607   9.925  20.462  0.00  0.00    +0.000 C 
BRANCH  16  17
ATOM     17  C   UNL     1       1.450   8.927  19.703  0.00  0.00    +0.000 A 
ATOM     18  C   UNL     1       1.855   7.723  20.285  0.00  0.00    +0.000 A 
ATOM     19  C   UNL     1       2.613   6.802  19.556  0.00  0.00    +0.000 A 
ATOM     20  C   UNL     1       2.964   7.030  18.215  0.00  0.00    +0.000 A 
ATOM     21  C   UNL     1       2.549   8.243  17.640  0.00  0.00    +0.000 A 
ATOM     22  C   UNL     1       1.810   9.179  18.374  0.00  0.00    +0.000 A 
BRANCH  20  23
ATOM     23  C   UNL     1       3.753   6.030  17.456  0.00  0.00    +0.000 A 
ATOM     24  C   UNL     1       4.764   6.431  16.561  0.00  0.00    +0.000 A 
ATOM     25  C   UNL     1       5.471   5.504  15.790  0.00  0.00    +0.000 A 
ATOM     26  C   UNL     1       5.196   4.148  15.914  0.00  0.00    +0.000 A 
ATOM     27  C   UNL     1       4.228   3.716  16.811  0.00  0.00    +0.000 A 
ATOM     28  C   UNL     1       3.512   4.648  17.574  0.00  0.00    +0.000 A 
ENDBRANCH  20  23
ENDBRANCH  16  17
ENDBRANCH   6  16
TORSDOF 4
ENDMDL
MODEL 8
REMARK VINA RESULT:      -7.8      3.861      8.969
REMARK  Name = 
REMARK  5 active torsions:
REMARK  status: ('A' for Active; 'I' for Inactive)
REMARK    1  A    between atoms: C_1  and  C_2
REMARK    2  A    between atoms: C_2  and  C_3
REMARK    3  A    between atoms: C_14  and  C_16
REMARK    4  A    between atoms: C_16  and  C_17
REMARK    5  A    between atoms: C_20  and  C_21
REMARK                            x       y       z     vdW  Elec       q    Type
REMARK                         _______ _______ _______ _____ _____    ______ ____
ROOT
ATOM      1  C   UNL     1       2.132  12.257  18.405  0.00  0.00    +0.000 C 
ATOM      2  C   UNL     1       0.949  12.844  19.180  0.00  0.00    +0.000 C 
ATOM      3  C   UNL     1      -0.183  13.395  18.257  0.00  0.00    +0.000 C 
ATOM      4  C   UNL     1      -1.184  12.533  19.012  0.00  0.00    +0.000 C 
ATOM      5  N   UNL     1      -0.042  11.801  19.526  0.00  0.00    +0.000 N 
ATOM      6  C   UNL     1      -0.053  10.520  19.999  0.00  0.00    +0.000 C 
ATOM      7  O   UNL     1      -1.088   9.848  19.938  0.00  0.00    +0.000 OA
ENDROOT
BRANCH   2   8
ATOM      8  C   UNL     1       1.429  13.777  20.382  0.00  0.00    +0.000 C 
ATOM      9  O   UNL     1       1.272  13.458  21.569  0.00  0.00    +0.000 OA
ATOM     10  N   UNL     1       2.119  14.962  20.059  0.00  0.00    +0.000 N 
ATOM     11  C   UNL     1       2.763  15.737  21.120  0.00  0.00    +0.000 C 
ATOM     12  C   UNL     1       2.111  17.112  21.262  0.00  0.00    +0.000 C 
ATOM     13  C   UNL     1       2.049  17.843  19.918  0.00  0.00    +0.000 C 
ATOM     14  C   UNL     1       1.415  16.962  18.842  0.00  0.00    +0.000 C 
ATOM     15  C   UNL     1       2.137  15.619  18.752  0.00  0.00    +0.000 C 
ENDBRANCH   2   8
BRANCH   6  16
ATOM     16  C   UNL     1       1.242   9.935  20.531  0.00  0.00    +0.000 C 
BRANCH  16  17
ATOM     17  C   UNL     1       1.554   8.542  20.034  0.00  0.00    +0.000 A 
ATOM     18  C   UNL     1       2.031   8.319  18.740  0.00  0.00    +0.000 A 
ATOM     19  C   UNL     1       2.338   7.026  18.309  0.00  0.00    +0.000 A 
ATOM     20  C   UNL     1       2.215   5.915  19.159  0.00  0.00    +0.000 A 
ATOM     21  C   UNL     1       1.736   6.151  20.459  0.00  0.00    +0.000 A 
ATOM     22  C   UNL     1       1.405   7.442  20.888  0.00  0.00    +0.000 A 
BRANCH  20  23
ATOM     23  C   UNL     1       2.564   4.553  18.686  0.00  0.00    +0.000 A 
ATOM     24  C   UNL     1       1.813   3.431  19.087  0.00  0.00    +0.000 A 
ATOM     25  C   UNL     1       2.170   2.136  18.702  0.00  0.00    +0.000 A 
ATOM     26  C   UNL     1       3.276   1.935  17.887  0.00  0.00    +0.000 A 
ATOM     27  C   UNL     1       4.019   3.023  17.447  0.00  0.00    +0.000 A 
ATOM     28  C   UNL     1       3.668   4.320  17.844  0.00  0.00    +0.000 A 
ENDBRANCH  20  23
ENDBRANCH  16  17
ENDBRANCH   6  16
TORSDOF 4
ENDMDL
MODEL 9
REMARK VINA RESULT:      -7.8      4.947     10.108
REMARK  Name = 
REMARK  5 active torsions:
REMARK  status: ('A' for Active; 'I' for Inactive)
REMARK    1  A    between atoms: C_1  and  C_2
REMARK    2  A    between atoms: C_2  and  C_3
REMARK    3  A    between atoms: C_14  and  C_16
REMARK    4  A    between atoms: C_16  and  C_17
REMARK    5  A    between atoms: C_20  and  C_21
REMARK                            x       y       z     vdW  Elec       q    Type
REMARK                         _______ _______ _______ _____ _____    ______ ____
ROOT
ATOM      1  C   UNL     1      -1.037  11.719  22.989  0.00  0.00    +0.000 C 
ATOM      2  C   UNL     1      -1.050  12.883  21.994  0.00  0.00    +0.000 C 
ATOM      3  C   UNL     1      -0.326  14.160  22.525  0.00  0.00    +0.000 C 
ATOM      4  C   UNL     1       0.522  14.173  21.262  0.00  0.00    +0.000 C 
ATOM      5  N   UNL     1       0.092  12.804  21.056  0.00  0.00    +0.000 N 
ATOM      6  C   UNL     1       0.743  11.858  20.316  0.00  0.00    +0.000 C 
ATOM      7  O   UNL     1       1.842  12.114  19.815  0.00  0.00    +0.000 OA
ENDROOT
BRANCH   2   8
ATOM      8  C   UNL     1      -2.486  13.081  21.330  0.00  0.00    +0.000 C 
ATOM      9  O   UNL     1      -2.655  13.064  20.102  0.00  0.00    +0.000 OA
ATOM     10  N   UNL     1      -3.596  13.204  22.189  0.00  0.00    +0.000 N 
ATOM     11  C   UNL     1      -4.950  13.173  21.634  0.00  0.00    +0.000 C 
ATOM     12  C   UNL     1      -5.657  14.511  21.849  0.00  0.00    +0.000 C 
ATOM     13  C   UNL     1      -5.606  14.941  23.317  0.00  0.00    +0.000 C 
ATOM     14  C   UNL     1      -4.173  14.902  23.851  0.00  0.00    +0.000 C 
ATOM     15  C   UNL     1      -3.549  13.528  23.615  0.00  0.00    +0.000 C 
ENDBRANCH   2   8
BRANCH   6  16
ATOM     16  C   UNL     1       0.114  10.483  20.188  0.00  0.00    +0.000 C 
BRANCH  16  17
ATOM     17  C   UNL     1       1.011   9.436  19.569  0.00  0.00    +0.000 A 
ATOM     18  C   UNL     1       1.436   8.320  20.294  0.00  0.00    +0.000 A 
ATOM     19  C   UNL     1       2.245   7.350  19.695  0.00  0.00    +0.000 A 
ATOM     20  C   UNL     1       2.629   7.438  18.347  0.00  0.00    +0.000 A 
ATOM     21  C   UNL     1       2.194   8.563  17.628  0.00  0.00    +0.000 A 
ATOM     22  C   UNL     1       1.403   9.550  18.230  0.00  0.00    +0.000 A 
BRANCH  20  23
ATOM     23  C   UNL     1       3.473   6.387  17.727  0.00  0.00    +0.000 A 
ATOM     24  C   UNL     1       3.064   5.039  17.721  0.00  0.00    +0.000 A 
ATOM     25  C   UNL     1       3.878   4.030  17.200  0.00  0.00    +0.000 A 
ATOM     26  C   UNL     1       5.112   4.350  16.650  0.00  0.00    +0.000 A 
ATOM     27  C   UNL     1       5.531   5.673  16.611  0.00  0.00    +0.000 A 
ATOM     28  C   UNL     1       4.720   6.682  17.146  0.00  0.00    +0.000 A 
ENDBRANCH  20  23
ENDBRANCH  16  17
ENDBRANCH   6  16
TORSDOF 4
ENDMDL
