MODEL 1
REMARK VINA RESULT:      -8.2      0.000      0.000
REMARK  Name = 
REMARK  3 active torsions:
REMARK  status: ('A' for Active; 'I' for Inactive)
REMARK    1  A    between atoms: C_1  and  C_2
REMARK    2  A    between atoms: C_11  and  C_13
REMARK    3  A    between atoms: C_14  and  C_15
REMARK                            x       y       z     vdW  Elec       q    Type
REMARK                         _______ _______ _______ _____ _____    ______ ____
ROOT
ATOM      1  C   UNL     1       7.884   5.875  18.964  0.00  0.00    +0.000 C 
ATOM      2  C   UNL     1       6.554   5.243  18.744  0.00  0.00    +0.000 A 
ATOM      3  N   UNL     1       5.756   4.883  19.722  0.00  0.00    +0.000 NA
ATOM      4  C   UNL     1       4.676   4.307  19.129  0.00  0.00    +0.000 A 
ATOM      5  C   UNL     1       3.526   3.790  19.744  0.00  0.00    +0.000 A 
ATOM      6  C   UNL     1       2.504   3.268  18.950  0.00  0.00    +0.000 A 
ATOM      7  C   UNL     1       2.629   3.268  17.564  0.00  0.00    +0.000 A 
ATOM      8  C   UNL     1       3.770   3.781  16.930  0.00  0.00    +0.000 A 
ATOM      9  C   UNL     1       4.808   4.285  17.739  0.00  0.00    +0.000 A 
ATOM     10  N   UNL     1       6.049   4.887  17.490  0.00  0.00    +0.000 N 
ATOM     11  C   UNL     1       6.693   5.143  16.264  0.00  0.00    +0.000 C 
ATOM     12  O   UNL     1       7.530   6.036  16.184  0.00  0.00    +0.000 OA
ENDROOT
BRANCH  11  13
ATOM     13  C   UNL     1       6.384   4.231  15.138  0.00  0.00    +0.000 C 
ATOM     14  C   UNL     1       6.587   4.629  13.871  0.00  0.00    +0.000 C 
BRANCH  14  15
ATOM     15  C   UNL     1       6.348   3.698  12.768  0.00  0.00    +0.000 A 
ATOM     16  C   UNL     1       5.043   3.413  12.357  0.00  0.00    +0.000 A 
ATOM     17  C   UNL     1       4.811   2.447  11.375  0.00  0.00    +0.000 A 
ATOM     18  C   UNL     1       5.883   1.770  10.795  0.00  0.00    +0.000 A 
ATOM     19  C   UNL     1       7.188   2.069  11.183  0.00  0.00    +0.000 A 
ATOM     20  C   UNL     1       7.422   3.031  12.167  0.00  0.00    +0.000 A 
ENDBRANCH  14  15
ENDBRANCH  11  13
TORSDOF 2
ENDMDL
MODEL 2
REMARK VINA RESULT:      -8.1      2.109      6.151
REMARK  Name = 
REMARK  3 active torsions:
REMARK  status: ('A' for Active; 'I' for Inactive)
REMARK    1  A    between atoms: C_1  and  C_2
REMARK    2  A    between atoms: C_11  and  C_13
REMARK    3  A    between atoms: C_14  and  C_15
REMARK                            x       y       z     vdW  Elec       q    Type
REMARK                         _______ _______ _______ _____ _____    ______ ____
ROOT
ATOM      1  C   UNL     1       8.119   7.576  18.397  0.00  0.00    +0.000 C 
ATOM      2  C   UNL     1       7.558   6.561  17.464  0.00  0.00    +0.000 A 
ATOM      3  N   UNL     1       7.684   6.633  16.159  0.00  0.00    +0.000 NA
ATOM      4  C   UNL     1       7.005   5.566  15.660  0.00  0.00    +0.000 A 
ATOM      5  C   UNL     1       6.869   5.179  14.319  0.00  0.00    +0.000 A 
ATOM      6  C   UNL     1       6.154   4.020  14.012  0.00  0.00    +0.000 A 
ATOM      7  C   UNL     1       5.588   3.259  15.031  0.00  0.00    +0.000 A 
ATOM      8  C   UNL     1       5.713   3.629  16.378  0.00  0.00    +0.000 A 
ATOM      9  C   UNL     1       6.417   4.812  16.678  0.00  0.00    +0.000 A 
ATOM     10  N   UNL     1       6.770   5.477  17.861  0.00  0.00    +0.000 N 
ATOM     11  C   UNL     1       6.462   5.157  19.197  0.00  0.00    +0.000 C 
ATOM     12  O   UNL     1       7.179   5.559  20.107  0.00  0.00    +0.000 OA
ENDROOT
BRANCH  11  13
ATOM     13  C   UNL     1       5.201   4.415  19.438  0.00  0.00    +0.000 C 
ATOM     14  C   UNL     1       4.023   5.062  19.422  0.00  0.00    +0.000 C 
BRANCH  14  15
ATOM     15  C   UNL     1       2.779   4.312  19.590  0.00  0.00    +0.000 A 
ATOM     16  C   UNL     1       2.318   3.988  20.869  0.00  0.00    +0.000 A 
ATOM     17  C   UNL     1       1.186   3.184  21.025  0.00  0.00    +0.000 A 
ATOM     18  C   UNL     1       0.508   2.708  19.904  0.00  0.00    +0.000 A 
ATOM     19  C   UNL     1       0.949   3.049  18.625  0.00  0.00    +0.000 A 
ATOM     20  C   UNL     1       2.081   3.850  18.468  0.00  0.00    +0.000 A 
ENDBRANCH  14  15
ENDBRANCH  11  13
TORSDOF 2
ENDMDL
MODEL 3
REMARK VINA RESULT:      -7.9      2.084      6.135
REMARK  Name = 
REMARK  3 active torsions:
REMARK  status: ('A' for Active; 'I' for Inactive)
REMARK    1  A    between atoms: C_1  and  C_2
REMARK    2  A    between atoms: C_11  and  C_13
REMARK    3  A    between atoms: C_14  and  C_15
REMARK                            x       y       z     vdW  Elec       q    Type
REMARK                         _______ _______ _______ _____ _____    ______ ____
ROOT
ATOM      1  C   UNL     1       8.090   7.595  18.387  0.00  0.00    +0.000 C 
ATOM      2  C   UNL     1       7.557   6.580  17.438  0.00  0.00    +0.000 A 
ATOM      3  N   UNL     1       7.672   6.679  16.134  0.00  0.00    +0.000 NA
ATOM      4  C   UNL     1       7.024   5.600  15.620  0.00  0.00    +0.000 A 
ATOM      5  C   UNL     1       6.893   5.233  14.272  0.00  0.00    +0.000 A 
ATOM      6  C   UNL     1       6.212   4.058  13.948  0.00  0.00    +0.000 A 
ATOM      7  C   UNL     1       5.678   3.261  14.955  0.00  0.00    +0.000 A 
ATOM      8  C   UNL     1       5.799   3.610  16.309  0.00  0.00    +0.000 A 
ATOM      9  C   UNL     1       6.467   4.810  16.626  0.00  0.00    +0.000 A 
ATOM     10  N   UNL     1       6.806   5.464  17.820  0.00  0.00    +0.000 N 
ATOM     11  C   UNL     1       6.516   5.109  19.151  0.00  0.00    +0.000 C 
ATOM     12  O   UNL     1       7.226   5.518  20.064  0.00  0.00    +0.000 OA
ENDROOT
BRANCH  11  13
ATOM     13  C   UNL     1       5.282   4.323  19.386  0.00  0.00    +0.000 C 
ATOM     14  C   UNL     1       4.083   4.929  19.375  0.00  0.00    +0.000 C 
BRANCH  14  15
ATOM     15  C   UNL     1       2.865   4.136  19.535  0.00  0.00    +0.000 A 
ATOM     16  C   UNL     1       2.243   3.566  18.421  0.00  0.00    +0.000 A 
ATOM     17  C   UNL     1       1.025   2.896  18.562  0.00  0.00    +0.000 A 
ATOM     18  C   UNL     1       0.429   2.787  19.817  0.00  0.00    +0.000 A 
ATOM     19  C   UNL     1       1.058   3.332  20.937  0.00  0.00    +0.000 A 
ATOM     20  C   UNL     1       2.273   4.005  20.797  0.00  0.00    +0.000 A 
ENDBRANCH  14  15
ENDBRANCH  11  13
TORSDOF 2
ENDMDL
MODEL 4
REMARK VINA RESULT:      -7.8      0.258      1.110
REMARK  Name = 
REMARK  3 active torsions:
REMARK  status: ('A' for Active; 'I' for Inactive)
REMARK    1  A    between atoms: C_1  and  C_2
REMARK    2  A    between atoms: C_11  and  C_13
REMARK    3  A    between atoms: C_14  and  C_15
REMARK                            x       y       z     vdW  Elec       q    Type
REMARK                         _______ _______ _______ _____ _____    ______ ____
ROOT
ATOM      1  C   UNL     1       7.896   6.211  18.917  0.00  0.00    +0.000 C 
ATOM      2  C   UNL     1       6.610   5.490  18.711  0.00  0.00    +0.000 A 
ATOM      3  N   UNL     1       5.811   5.144  19.695  0.00  0.00    +0.000 NA
ATOM      4  C   UNL     1       4.781   4.470  19.117  0.00  0.00    +0.000 A 
ATOM      5  C   UNL     1       3.648   3.925  19.741  0.00  0.00    +0.000 A 
ATOM      6  C   UNL     1       2.677   3.296  18.961  0.00  0.00    +0.000 A 
ATOM      7  C   UNL     1       2.832   3.220  17.580  0.00  0.00    +0.000 A 
ATOM      8  C   UNL     1       3.956   3.759  16.938  0.00  0.00    +0.000 A 
ATOM      9  C   UNL     1       4.944   4.372  17.734  0.00  0.00    +0.000 A 
ATOM     10  N   UNL     1       6.154   5.030  17.472  0.00  0.00    +0.000 N 
ATOM     11  C   UNL     1       6.810   5.249  16.245  0.00  0.00    +0.000 C 
ATOM     12  O   UNL     1       7.596   6.183  16.127  0.00  0.00    +0.000 OA
ENDROOT
BRANCH  11  13
ATOM     13  C   UNL     1       6.580   4.254  15.172  0.00  0.00    +0.000 C 
ATOM     14  C   UNL     1       6.156   4.653  13.960  0.00  0.00    +0.000 C 
BRANCH  14  15
ATOM     15  C   UNL     1       6.000   3.673  12.885  0.00  0.00    +0.000 A 
ATOM     16  C   UNL     1       7.122   3.054  12.327  0.00  0.00    +0.000 A 
ATOM     17  C   UNL     1       6.981   2.198  11.233  0.00  0.00    +0.000 A 
ATOM     18  C   UNL     1       5.718   1.952  10.697  0.00  0.00    +0.000 A 
ATOM     19  C   UNL     1       4.592   2.547  11.265  0.00  0.00    +0.000 A 
ATOM     20  C   UNL     1       4.732   3.406  12.357  0.00  0.00    +0.000 A 
ENDBRANCH  14  15
ENDBRANCH  11  13
TORSDOF 2
ENDMDL
MODEL 5
REMARK VINA RESULT:      -7.8      4.760      7.488
REMARK  Name = 
REMARK  3 active torsions:
REMARK  status: ('A' for Active; 'I' for Inactive)
REMARK    1  A    between atoms: C_1  and  C_2
REMARK    2  A    between atoms: C_11  and  C_13
REMARK    3  A    between atoms: C_14  and  C_15
REMARK                            x       y       z     vdW  Elec       q    Type
REMARK                         _______ _______ _______ _____ _____    ______ ____
ROOT
ATOM      1  C   UNL     1       4.893   4.904  16.067  0.00  0.00    +0.000 C 
ATOM      2  C   UNL     1       4.023   4.500  17.205  0.00  0.00    +0.000 A 
ATOM      3  N   UNL     1       3.738   3.250  17.488  0.00  0.00    +0.000 NA
ATOM      4  C   UNL     1       2.888   3.293  18.549  0.00  0.00    +0.000 A 
ATOM      5  C   UNL     1       2.323   2.215  19.246  0.00  0.00    +0.000 A 
ATOM      6  C   UNL     1       1.495   2.470  20.340  0.00  0.00    +0.000 A 
ATOM      7  C   UNL     1       1.241   3.781  20.733  0.00  0.00    +0.000 A 
ATOM      8  C   UNL     1       1.798   4.872  20.049  0.00  0.00    +0.000 A 
ATOM      9  C   UNL     1       2.614   4.607  18.932  0.00  0.00    +0.000 A 
ATOM     10  N   UNL     1       3.349   5.399  18.038  0.00  0.00    +0.000 N 
ATOM     11  C   UNL     1       3.459   6.800  17.961  0.00  0.00    +0.000 C 
ATOM     12  O   UNL     1       4.442   7.312  17.436  0.00  0.00    +0.000 OA
ENDROOT
BRANCH  11  13
ATOM     13  C   UNL     1       2.304   7.594  18.443  0.00  0.00    +0.000 C 
ATOM     14  C   UNL     1       2.100   8.840  17.982  0.00  0.00    +0.000 C 
BRANCH  14  15
ATOM     15  C   UNL     1       0.919   9.589  18.408  0.00  0.00    +0.000 A 
ATOM     16  C   UNL     1      -0.240   9.583  17.627  0.00  0.00    +0.000 A 
ATOM     17  C   UNL     1      -1.330  10.380  17.981  0.00  0.00    +0.000 A 
ATOM     18  C   UNL     1      -1.269  11.181  19.121  0.00  0.00    +0.000 A 
ATOM     19  C   UNL     1      -0.124  11.173  19.917  0.00  0.00    +0.000 A 
ATOM     20  C   UNL     1       0.968  10.379  19.563  0.00  0.00    +0.000 A 
ENDBRANCH  14  15
ENDBRANCH  11  13
TORSDOF 2
ENDMDL
MODEL 6
REMARK VINA RESULT:      -7.8      4.557      7.431
REMARK  Name = 
REMARK  3 active torsions:
REMARK  status: ('A' for Active; 'I' for Inactive)
REMARK    1  A    between atoms: C_1  and  C_2
REMARK    2  A    between atoms: C_11  and  C_13
REMARK    3  A    between atoms: C_14  and  C_15
REMARK                            x       y       z     vdW  Elec       q    Type
REMARK                         _______ _______ _______ _____ _____    ______ ____
ROOT
ATOM      1  C   UNL     1       4.751   4.666  15.998  0.00  0.00    +0.000 C 
ATOM      2  C   UNL     1       3.899   4.333  17.172  0.00  0.00    +0.000 A 
ATOM      3  N   UNL     1       3.476   3.118  17.435  0.00  0.00    +0.000 NA
ATOM      4  C   UNL     1       2.695   3.228  18.543  0.00  0.00    +0.000 A 
ATOM      5  C   UNL     1       2.037   2.203  19.240  0.00  0.00    +0.000 A 
ATOM      6  C   UNL     1       1.306   2.519  20.387  0.00  0.00    +0.000 A 
ATOM      7  C   UNL     1       1.240   3.836  20.831  0.00  0.00    +0.000 A 
ATOM      8  C   UNL     1       1.891   4.874  20.148  0.00  0.00    +0.000 A 
ATOM      9  C   UNL     1       2.607   4.551  18.978  0.00  0.00    +0.000 A 
ATOM     10  N   UNL     1       3.387   5.277  18.067  0.00  0.00    +0.000 N 
ATOM     11  C   UNL     1       3.668   6.656  18.024  0.00  0.00    +0.000 C 
ATOM     12  O   UNL     1       4.678   7.061  17.459  0.00  0.00    +0.000 OA
ENDROOT
BRANCH  11  13
ATOM     13  C   UNL     1       2.648   7.568  18.594  0.00  0.00    +0.000 C 
ATOM     14  C   UNL     1       2.011   8.448  17.803  0.00  0.00    +0.000 C 
BRANCH  14  15
ATOM     15  C   UNL     1       0.956   9.295  18.359  0.00  0.00    +0.000 A 
ATOM     16  C   UNL     1       0.978   9.655  19.709  0.00  0.00    +0.000 A 
ATOM     17  C   UNL     1      -0.082  10.376  20.262  0.00  0.00    +0.000 A 
ATOM     18  C   UNL     1      -1.165  10.747  19.466  0.00  0.00    +0.000 A 
ATOM     19  C   UNL     1      -1.181  10.413  18.112  0.00  0.00    +0.000 A 
ATOM     20  C   UNL     1      -0.123   9.689  17.558  0.00  0.00    +0.000 A 
ENDBRANCH  14  15
ENDBRANCH  11  13
TORSDOF 2
ENDMDL
MODEL 7
REMARK VINA RESULT:      -7.4      4.472      7.399
REMARK  Name = 
REMARK  3 active torsions:
REMARK  status: ('A' for Active; 'I' for Inactive)
REMARK    1  A    between atoms: C_1  and  C_2
REMARK    2  A    between atoms: C_11  and  C_13
REMARK    3  A    between atoms: C_14  and  C_15
REMARK                            x       y       z     vdW  Elec       q    Type
REMARK                         _______ _______ _______ _____ _____    ______ ____
ROOT
ATOM      1  C   UNL     1       3.806   2.552  19.471  0.00  0.00    +0.000 C 
ATOM      2  C   UNL     1       4.614   3.693  18.963  0.00  0.00    +0.000 A 
ATOM      3  N   UNL     1       5.918   3.773  19.100  0.00  0.00    +0.000 NA
ATOM      4  C   UNL     1       6.277   4.967  18.559  0.00  0.00    +0.000 A 
ATOM      5  C   UNL     1       7.568   5.503  18.430  0.00  0.00    +0.000 A 
ATOM      6  C   UNL     1       7.733   6.741  17.808  0.00  0.00    +0.000 A 
ATOM      7  C   UNL     1       6.627   7.428  17.317  0.00  0.00    +0.000 A 
ATOM      8  C   UNL     1       5.329   6.909  17.435  0.00  0.00    +0.000 A 
ATOM      9  C   UNL     1       5.168   5.670  18.086  0.00  0.00    +0.000 A 
ATOM     10  N   UNL     1       4.075   4.837  18.366  0.00  0.00    +0.000 N 
ATOM     11  C   UNL     1       2.706   5.032  18.098  0.00  0.00    +0.000 C 
ATOM     12  O   UNL     1       1.956   4.067  18.002  0.00  0.00    +0.000 OA
ENDROOT
BRANCH  11  13
ATOM     13  C   UNL     1       2.223   6.432  18.044  0.00  0.00    +0.000 C 
ATOM     14  C   UNL     1       2.135   7.159  19.171  0.00  0.00    +0.000 C 
BRANCH  14  15
ATOM     15  C   UNL     1       1.726   8.562  19.101  0.00  0.00    +0.000 A 
ATOM     16  C   UNL     1       2.069   9.342  17.993  0.00  0.00    +0.000 A 
ATOM     17  C   UNL     1       1.768  10.705  17.974  0.00  0.00    +0.000 A 
ATOM     18  C   UNL     1       1.117  11.293  19.058  0.00  0.00    +0.000 A 
ATOM     19  C   UNL     1       0.750  10.514  20.155  0.00  0.00    +0.000 A 
ATOM     20  C   UNL     1       1.052   9.151  20.177  0.00  0.00    +0.000 A 
ENDBRANCH  14  15
ENDBRANCH  11  13
TORSDOF 2
ENDMDL
MODEL 8
REMARK VINA RESULT:      -7.4      2.723      3.863
REMARK  Name = 
REMARK  3 active torsions:
REMARK  status: ('A' for Active; 'I' for Inactive)
REMARK    1  A    between atoms: C_1  and  C_2
REMARK    2  A    between atoms: C_11  and  C_13
REMARK    3  A    between atoms: C_14  and  C_15
REMARK                            x       y       z     vdW  Elec       q    Type
REMARK                         _______ _______ _______ _____ _____    ______ ____
ROOT
ATOM      1  C   UNL     1       2.639   3.159  21.176  0.00  0.00    +0.000 C 
ATOM      2  C   UNL     1       2.652   4.446  20.429  0.00  0.00    +0.000 A 
ATOM      3  N   UNL     1       1.869   5.459  20.723  0.00  0.00    +0.000 NA
ATOM      4  C   UNL     1       2.138   6.418  19.797  0.00  0.00    +0.000 A 
ATOM      5  C   UNL     1       1.586   7.704  19.701  0.00  0.00    +0.000 A 
ATOM      6  C   UNL     1       2.023   8.560  18.689  0.00  0.00    +0.000 A 
ATOM      7  C   UNL     1       3.000   8.138  17.791  0.00  0.00    +0.000 A 
ATOM      8  C   UNL     1       3.564   6.856  17.871  0.00  0.00    +0.000 A 
ATOM      9  C   UNL     1       3.101   5.990  18.881  0.00  0.00    +0.000 A 
ATOM     10  N   UNL     1       3.426   4.689  19.291  0.00  0.00    +0.000 N 
ATOM     11  C   UNL     1       4.350   3.779  18.741  0.00  0.00    +0.000 C 
ATOM     12  O   UNL     1       4.826   2.890  19.439  0.00  0.00    +0.000 OA
ENDROOT
BRANCH  11  13
ATOM     13  C   UNL     1       4.624   3.893  17.289  0.00  0.00    +0.000 C 
ATOM     14  C   UNL     1       5.826   4.317  16.860  0.00  0.00    +0.000 C 
BRANCH  14  15
ATOM     15  C   UNL     1       6.113   4.358  15.426  0.00  0.00    +0.000 A 
ATOM     16  C   UNL     1       5.288   3.682  14.522  0.00  0.00    +0.000 A 
ATOM     17  C   UNL     1       5.621   3.636  13.167  0.00  0.00    +0.000 A 
ATOM     18  C   UNL     1       6.775   4.271  12.709  0.00  0.00    +0.000 A 
ATOM     19  C   UNL     1       7.588   4.968  13.602  0.00  0.00    +0.000 A 
ATOM     20  C   UNL     1       7.258   5.012  14.958  0.00  0.00    +0.000 A 
ENDBRANCH  14  15
ENDBRANCH  11  13
TORSDOF 2
ENDMDL
MODEL 9
REMARK VINA RESULT:      -7.3      2.727      4.025
REMARK  Name = 
REMARK  3 active torsions:
REMARK  status: ('A' for Active; 'I' for Inactive)
REMARK    1  A    between atoms: C_1  and  C_2
REMARK    2  A    between atoms: C_11  and  C_13
REMARK    3  A    between atoms: C_14  and  C_15
REMARK                            x       y       z     vdW  Elec       q    Type
REMARK                         _______ _______ _______ _____ _____    ______ ____
ROOT
ATOM      1  C   UNL     1       2.591   3.244  21.303  0.00  0.00    +0.000 C 
ATOM      2  C   UNL     1       2.632   4.501  20.507  0.00  0.00    +0.000 A 
ATOM      3  N   UNL     1       1.852   5.530  20.742  0.00  0.00    +0.000 NA
ATOM      4  C   UNL     1       2.151   6.450  19.786  0.00  0.00    +0.000 A 
ATOM      5  C   UNL     1       1.613   7.736  19.626  0.00  0.00    +0.000 A 
ATOM      6  C   UNL     1       2.082   8.548  18.592  0.00  0.00    +0.000 A 
ATOM      7  C   UNL     1       3.077   8.084  17.737  0.00  0.00    +0.000 A 
ATOM      8  C   UNL     1       3.628   6.802  17.880  0.00  0.00    +0.000 A 
ATOM      9  C   UNL     1       3.132   5.979  18.912  0.00  0.00    +0.000 A 
ATOM     10  N   UNL     1       3.437   4.692  19.379  0.00  0.00    +0.000 N 
ATOM     11  C   UNL     1       4.366   3.755  18.888  0.00  0.00    +0.000 C 
ATOM     12  O   UNL     1       4.817   2.891  19.632  0.00  0.00    +0.000 OA
ENDROOT
BRANCH  11  13
ATOM     13  C   UNL     1       4.677   3.810  17.441  0.00  0.00    +0.000 C 
ATOM     14  C   UNL     1       5.863   4.283  17.022  0.00  0.00    +0.000 C 
BRANCH  14  15
ATOM     15  C   UNL     1       6.191   4.267  15.597  0.00  0.00    +0.000 A 
ATOM     16  C   UNL     1       7.300   4.973  15.120  0.00  0.00    +0.000 A 
ATOM     17  C   UNL     1       7.552   5.042  13.748  0.00  0.00    +0.000 A 
ATOM     18  C   UNL     1       6.702   4.400  12.849  0.00  0.00    +0.000 A 
ATOM     19  C   UNL     1       5.608   3.674  13.320  0.00  0.00    +0.000 A 
ATOM     20  C   UNL     1       5.353   3.606  14.691  0.00  0.00    +0.000 A 
ENDBRANCH  14  15
ENDBRANCH  11  13
TORSDOF 2
ENDMDL
