MODEL 1
REMARK VINA RESULT:      -7.5      0.000      0.000
REMARK  Name = 
REMARK  6 active torsions:
REMARK  status: ('A' for Active; 'I' for Inactive)
REMARK    1  A    between atoms: C_1  and  C_2
REMARK    2  A    between atoms: C_2  and  C_3
REMARK    3  A    between atoms: C_3  and  C_4
REMARK    4  A    between atoms: C_4  and  C_5
REMARK    5  A    between atoms: C_11  and  O_12
REMARK    6  A    between atoms: C_15  and  O_16
REMARK                            x       y       z     vdW  Elec       q    Type
REMARK                         _______ _______ _______ _____ _____    ______ ____
ROOT
ATOM      1  C   UNL     1       5.896   5.021  17.162  0.00  0.00    +0.000 C 
ATOM      2  C   UNL     1       5.980   6.386  16.490  0.00  0.00    +0.000 C 
ATOM      3  C   UNL     1       5.097   7.376  16.637  0.00  0.00    +0.000 C 
ATOM      4  C   UNL     1       3.907   7.192  17.478  0.00  0.00    +0.000 C 
ATOM      5  O   UNL     1       3.043   8.065  17.512  0.00  0.00    +0.000 OA
ATOM      6  C   UNL     1       3.780   5.950  18.278  0.00  0.00    +0.000 A 
ATOM      7  C   UNL     1       2.610   5.749  19.037  0.00  0.00    +0.000 A 
ATOM      8  C   UNL     1       2.431   4.595  19.812  0.00  0.00    +0.000 A 
ATOM      9  C   UNL     1       3.467   3.643  19.873  0.00  0.00    +0.000 A 
ATOM     10  C   UNL     1       4.621   3.840  19.087  0.00  0.00    +0.000 A 
ATOM     11  C   UNL     1       4.792   4.967  18.250  0.00  0.00    +0.000 A 
ATOM     12  C   UNL     1       3.314   2.403  20.730  0.00  0.00    +0.000 C 
ATOM     13  C   UNL     1       2.111   2.369  21.617  0.00  0.00    +0.000 C 
ATOM     14  C   UNL     1       1.109   3.249  21.513  0.00  0.00    +0.000 C 
ATOM     15  C   UNL     1       1.108   4.368  20.514  0.00  0.00    +0.000 C 
ENDROOT
BRANCH   1  17
ATOM     16  C   UNL     1       7.875   5.595  18.767  0.00  0.00    +0.000 C 
ATOM     17  C   UNL     1       7.341   4.693  17.658  0.00  0.00    +0.000 C 
ENDBRANCH   1  17
BRANCH   1  18
ATOM     18  C   UNL     1       5.419   3.983  16.088  0.00  0.00    +0.000 C 
ATOM     19  C   UNL     1       5.995   4.107  14.686  0.00  0.00    +0.000 C 
ENDBRANCH   1  18
BRANCH   7  20
ATOM     20  O   UNL     1       1.570   6.651  19.028  0.00  0.00    +0.000 OA
ATOM     21  H   UNL     1       1.577   7.142  19.880  0.00  0.00    +0.000 HD
ENDBRANCH   7  20
BRANCH  10  22
ATOM     22  O   UNL     1       5.606   2.887  19.073  0.00  0.00    +0.000 OA
ATOM     23  H   UNL     1       6.482   3.284  19.184  0.00  0.00    +0.000 HD
ENDBRANCH  10  22
TORSDOF 4
ENDMDL
MODEL 2
REMARK VINA RESULT:      -7.0      1.590      5.158
REMARK  Name = 
REMARK  6 active torsions:
REMARK  status: ('A' for Active; 'I' for Inactive)
REMARK    1  A    between atoms: C_1  and  C_2
REMARK    2  A    between atoms: C_2  and  C_3
REMARK    3  A    between atoms: C_3  and  C_4
REMARK    4  A    between atoms: C_4  and  C_5
REMARK    5  A    between atoms: C_11  and  O_12
REMARK    6  A    between atoms: C_15  and  O_16
REMARK                            x       y       z     vdW  Elec       q    Type
REMARK                         _______ _______ _______ _____ _____    ______ ____
ROOT
ATOM      1  C   UNL     1       2.751   3.356  19.882  0.00  0.00    +0.000 C 
ATOM      2  C   UNL     1       1.858   4.248  20.736  0.00  0.00    +0.000 C 
ATOM      3  C   UNL     1       1.686   5.561  20.565  0.00  0.00    +0.000 C 
ATOM      4  C   UNL     1       2.409   6.274  19.504  0.00  0.00    +0.000 C 
ATOM      5  O   UNL     1       2.335   7.497  19.431  0.00  0.00    +0.000 OA
ATOM      6  C   UNL     1       3.213   5.490  18.534  0.00  0.00    +0.000 A 
ATOM      7  C   UNL     1       3.954   6.181  17.554  0.00  0.00    +0.000 A 
ATOM      8  C   UNL     1       4.733   5.496  16.611  0.00  0.00    +0.000 A 
ATOM      9  C   UNL     1       4.731   4.089  16.613  0.00  0.00    +0.000 A 
ATOM     10  C   UNL     1       4.010   3.408  17.616  0.00  0.00    +0.000 A 
ATOM     11  C   UNL     1       3.269   4.083  18.614  0.00  0.00    +0.000 A 
ATOM     12  C   UNL     1       5.538   3.323  15.583  0.00  0.00    +0.000 C 
ATOM     13  C   UNL     1       6.151   4.144  14.495  0.00  0.00    +0.000 C 
ATOM     14  C   UNL     1       6.192   5.481  14.532  0.00  0.00    +0.000 C 
ATOM     15  C   UNL     1       5.606   6.283  15.655  0.00  0.00    +0.000 C 
ENDROOT
BRANCH   1  17
ATOM     16  C   UNL     1       0.658   2.229  18.802  0.00  0.00    +0.000 C 
ATOM     17  C   UNL     1       1.934   2.051  19.620  0.00  0.00    +0.000 C 
ENDBRANCH   1  17
BRANCH   1  18
ATOM     18  C   UNL     1       4.053   3.051  20.702  0.00  0.00    +0.000 C 
ATOM     19  C   UNL     1       4.481   1.597  20.824  0.00  0.00    +0.000 C 
ENDBRANCH   1  18
BRANCH   7  20
ATOM     20  O   UNL     1       3.983   7.555  17.494  0.00  0.00    +0.000 OA
ATOM     21  H   UNL     1       4.912   7.841  17.341  0.00  0.00    +0.000 HD
ENDBRANCH   7  20
BRANCH  10  22
ATOM     22  O   UNL     1       4.059   2.041  17.681  0.00  0.00    +0.000 OA
ATOM     23  H   UNL     1       3.171   1.657  17.715  0.00  0.00    +0.000 HD
ENDBRANCH  10  22
TORSDOF 4
ENDMDL
MODEL 3
REMARK VINA RESULT:      -7.0      2.061      4.401
REMARK  Name = 
REMARK  6 active torsions:
REMARK  status: ('A' for Active; 'I' for Inactive)
REMARK    1  A    between atoms: C_1  and  C_2
REMARK    2  A    between atoms: C_2  and  C_3
REMARK    3  A    between atoms: C_3  and  C_4
REMARK    4  A    between atoms: C_4  and  C_5
REMARK    5  A    between atoms: C_11  and  O_12
REMARK    6  A    between atoms: C_15  and  O_16
REMARK                            x       y       z     vdW  Elec       q    Type
REMARK                         _______ _______ _______ _____ _____    ______ ____
ROOT
ATOM      1  C   UNL     1       5.055   5.233  17.314  0.00  0.00    +0.000 C 
ATOM      2  C   UNL     1       5.220   3.804  17.816  0.00  0.00    +0.000 C 
ATOM      3  C   UNL     1       4.565   3.267  18.848  0.00  0.00    +0.000 C 
ATOM      4  C   UNL     1       3.614   4.071  19.625  0.00  0.00    +0.000 C 
ATOM      5  O   UNL     1       3.106   3.603  20.641  0.00  0.00    +0.000 OA
ATOM      6  C   UNL     1       3.281   5.438  19.156  0.00  0.00    +0.000 A 
ATOM      7  C   UNL     1       2.414   6.230  19.936  0.00  0.00    +0.000 A 
ATOM      8  C   UNL     1       2.063   7.529  19.546  0.00  0.00    +0.000 A 
ATOM      9  C   UNL     1       2.546   8.032  18.323  0.00  0.00    +0.000 A 
ATOM     10  C   UNL     1       3.436   7.242  17.564  0.00  0.00    +0.000 A 
ATOM     11  C   UNL     1       3.851   5.954  17.973  0.00  0.00    +0.000 A 
ATOM     12  C   UNL     1       2.155   9.421  17.860  0.00  0.00    +0.000 C 
ATOM     13  C   UNL     1       1.107  10.108  18.676  0.00  0.00    +0.000 C 
ATOM     14  C   UNL     1       0.695   9.646  19.863  0.00  0.00    +0.000 C 
ATOM     15  C   UNL     1       1.227   8.385  20.475  0.00  0.00    +0.000 C 
ENDROOT
BRANCH   1  17
ATOM     16  C   UNL     1       5.900   4.069  15.134  0.00  0.00    +0.000 C 
ATOM     17  C   UNL     1       5.009   5.141  15.755  0.00  0.00    +0.000 C 
ENDBRANCH   1  17
BRANCH   1  18
ATOM     18  C   UNL     1       6.299   6.060  17.793  0.00  0.00    +0.000 C 
ATOM     19  C   UNL     1       7.536   5.285  18.220  0.00  0.00    +0.000 C 
ENDBRANCH   1  18
BRANCH   7  20
ATOM     20  O   UNL     1       1.900   5.787  21.133  0.00  0.00    +0.000 OA
ATOM     21  H   UNL     1       1.835   6.554  21.746  0.00  0.00    +0.000 HD
ENDBRANCH   7  20
BRANCH  10  22
ATOM     22  O   UNL     1       3.977   7.745  16.410  0.00  0.00    +0.000 OA
ATOM     23  H   UNL     1       4.942   7.668  16.411  0.00  0.00    +0.000 HD
ENDBRANCH  10  22
TORSDOF 4
ENDMDL
MODEL 4
REMARK VINA RESULT:      -6.9      2.356      4.434
REMARK  Name = 
REMARK  6 active torsions:
REMARK  status: ('A' for Active; 'I' for Inactive)
REMARK    1  A    between atoms: C_1  and  C_2
REMARK    2  A    between atoms: C_2  and  C_3
REMARK    3  A    between atoms: C_3  and  C_4
REMARK    4  A    between atoms: C_4  and  C_5
REMARK    5  A    between atoms: C_11  and  O_12
REMARK    6  A    between atoms: C_15  and  O_16
REMARK                            x       y       z     vdW  Elec       q    Type
REMARK                         _______ _______ _______ _____ _____    ______ ____
ROOT
ATOM      1  C   UNL     1       3.004   3.795  18.862  0.00  0.00    +0.000 C 
ATOM      2  C   UNL     1       4.051   3.433  17.815  0.00  0.00    +0.000 C 
ATOM      3  C   UNL     1       4.643   4.294  16.984  0.00  0.00    +0.000 C 
ATOM      4  C   UNL     1       4.284   5.717  17.008  0.00  0.00    +0.000 C 
ATOM      5  O   UNL     1       4.748   6.478  16.163  0.00  0.00    +0.000 OA
ATOM      6  C   UNL     1       3.367   6.208  18.066  0.00  0.00    +0.000 A 
ATOM      7  C   UNL     1       2.977   7.562  18.051  0.00  0.00    +0.000 A 
ATOM      8  C   UNL     1       2.112   8.083  19.023  0.00  0.00    +0.000 A 
ATOM      9  C   UNL     1       1.668   7.247  20.065  0.00  0.00    +0.000 A 
ATOM     10  C   UNL     1       2.042   5.887  20.054  0.00  0.00    +0.000 A 
ATOM     11  C   UNL     1       2.862   5.328  19.047  0.00  0.00    +0.000 A 
ATOM     12  C   UNL     1       0.760   7.794  21.148  0.00  0.00    +0.000 C 
ATOM     13  C   UNL     1       0.541   9.273  21.129  0.00  0.00    +0.000 C 
ATOM     14  C   UNL     1       0.922  10.049  20.107  0.00  0.00    +0.000 C 
ATOM     15  C   UNL     1       1.625   9.512  18.896  0.00  0.00    +0.000 C 
ENDROOT
BRANCH   1  17
ATOM     16  C   UNL     1       4.623   2.111  20.029  0.00  0.00    +0.000 C 
ATOM     17  C   UNL     1       3.387   2.998  20.149  0.00  0.00    +0.000 C 
ENDBRANCH   1  17
BRANCH   1  18
ATOM     18  C   UNL     1       1.603   3.349  18.318  0.00  0.00    +0.000 C 
ATOM     19  C   UNL     1       0.903   2.204  19.035  0.00  0.00    +0.000 C 
ENDBRANCH   1  18
BRANCH   7  20
ATOM     20  O   UNL     1       3.390   8.429  17.066  0.00  0.00    +0.000 OA
ATOM     21  H   UNL     1       2.912   9.282  17.181  0.00  0.00    +0.000 HD
ENDBRANCH   7  20
BRANCH  10  22
ATOM     22  O   UNL     1       1.557   5.040  21.016  0.00  0.00    +0.000 OA
ATOM     23  H   UNL     1       1.297   4.188  20.638  0.00  0.00    +0.000 HD
ENDBRANCH  10  22
TORSDOF 4
ENDMDL
MODEL 5
REMARK VINA RESULT:      -6.6      2.346      5.099
REMARK  Name = 
REMARK  6 active torsions:
REMARK  status: ('A' for Active; 'I' for Inactive)
REMARK    1  A    between atoms: C_1  and  C_2
REMARK    2  A    between atoms: C_2  and  C_3
REMARK    3  A    between atoms: C_3  and  C_4
REMARK    4  A    between atoms: C_4  and  C_5
REMARK    5  A    between atoms: C_11  and  O_12
REMARK    6  A    between atoms: C_15  and  O_16
REMARK                            x       y       z     vdW  Elec       q    Type
REMARK                         _______ _______ _______ _____ _____    ______ ____
ROOT
ATOM      1  C   UNL     1       2.645   4.104  19.676  0.00  0.00    +0.000 C 
ATOM      2  C   UNL     1       3.630   3.291  18.846  0.00  0.00    +0.000 C 
ATOM      3  C   UNL     1       4.331   3.751  17.807  0.00  0.00    +0.000 C 
ATOM      4  C   UNL     1       4.166   5.138  17.356  0.00  0.00    +0.000 C 
ATOM      5  O   UNL     1       4.726   5.516  16.330  0.00  0.00    +0.000 OA
ATOM      6  C   UNL     1       3.327   6.059  18.160  0.00  0.00    +0.000 A 
ATOM      7  C   UNL     1       3.122   7.372  17.692  0.00  0.00    +0.000 A 
ATOM      8  C   UNL     1       2.337   8.288  18.408  0.00  0.00    +0.000 A 
ATOM      9  C   UNL     1       1.788   7.900  19.644  0.00  0.00    +0.000 A 
ATOM     10  C   UNL     1       1.975   6.575  20.089  0.00  0.00    +0.000 A 
ATOM     11  C   UNL     1       2.710   5.619  19.351  0.00  0.00    +0.000 A 
ATOM     12  C   UNL     1       0.964   8.881  20.455  0.00  0.00    +0.000 C 
ATOM     13  C   UNL     1       0.946  10.289  19.951  0.00  0.00    +0.000 C 
ATOM     14  C   UNL     1       1.425  10.634  18.750  0.00  0.00    +0.000 C 
ATOM     15  C   UNL     1       2.046   9.648  17.806  0.00  0.00    +0.000 C 
ENDROOT
BRANCH   1  17
ATOM     16  C   UNL     1       1.887   2.811  21.815  0.00  0.00    +0.000 C 
ATOM     17  C   UNL     1       2.921   3.727  21.167  0.00  0.00    +0.000 C 
ENDBRANCH   1  17
BRANCH   1  18
ATOM     18  C   UNL     1       1.194   3.688  19.249  0.00  0.00    +0.000 C 
ATOM     19  C   UNL     1       1.025   2.348  18.550  0.00  0.00    +0.000 C 
ENDBRANCH   1  18
BRANCH   7  20
ATOM     20  O   UNL     1       3.644   7.812  16.498  0.00  0.00    +0.000 OA
ATOM     21  H   UNL     1       3.460   8.775  16.413  0.00  0.00    +0.000 HD
ENDBRANCH   7  20
BRANCH  10  22
ATOM     22  O   UNL     1       1.384   6.157  21.252  0.00  0.00    +0.000 OA
ATOM     23  H   UNL     1       2.033   6.060  21.963  0.00  0.00    +0.000 HD
ENDBRANCH  10  22
TORSDOF 4
ENDMDL
MODEL 6
REMARK VINA RESULT:      -6.4      4.542      7.134
REMARK  Name = 
REMARK  6 active torsions:
REMARK  status: ('A' for Active; 'I' for Inactive)
REMARK    1  A    between atoms: C_1  and  C_2
REMARK    2  A    between atoms: C_2  and  C_3
REMARK    3  A    between atoms: C_3  and  C_4
REMARK    4  A    between atoms: C_4  and  C_5
REMARK    5  A    between atoms: C_11  and  O_12
REMARK    6  A    between atoms: C_15  and  O_16
REMARK                            x       y       z     vdW  Elec       q    Type
REMARK                         _______ _______ _______ _____ _____    ______ ____
ROOT
ATOM      1  C   UNL     1       0.013  11.181  19.203  0.00  0.00    +0.000 C 
ATOM      2  C   UNL     1      -0.672  11.604  20.496  0.00  0.00    +0.000 C 
ATOM      3  C   UNL     1      -0.653  10.918  21.642  0.00  0.00    +0.000 C 
ATOM      4  C   UNL     1       0.043   9.628  21.725  0.00  0.00    +0.000 C 
ATOM      5  O   UNL     1      -0.044   8.952  22.746  0.00  0.00    +0.000 OA
ATOM      6  C   UNL     1       0.849   9.173  20.565  0.00  0.00    +0.000 A 
ATOM      7  C   UNL     1       1.466   7.908  20.624  0.00  0.00    +0.000 A 
ATOM      8  C   UNL     1       2.239   7.422  19.560  0.00  0.00    +0.000 A 
ATOM      9  C   UNL     1       2.442   8.239  18.432  0.00  0.00    +0.000 A 
ATOM     10  C   UNL     1       1.796   9.491  18.371  0.00  0.00    +0.000 A 
ATOM     11  C   UNL     1       0.962   9.971  19.407  0.00  0.00    +0.000 A 
ATOM     12  C   UNL     1       3.301   7.753  17.281  0.00  0.00    +0.000 C 
ATOM     13  C   UNL     1       4.038   6.474  17.515  0.00  0.00    +0.000 C 
ATOM     14  C   UNL     1       3.797   5.680  18.566  0.00  0.00    +0.000 C 
ATOM     15  C   UNL     1       2.782   6.009  19.619  0.00  0.00    +0.000 C 
ENDROOT
BRANCH   1  17
ATOM     16  C   UNL     1       1.763  13.095  19.507  0.00  0.00    +0.000 C 
ATOM     17  C   UNL     1       0.684  12.469  18.628  0.00  0.00    +0.000 C 
ENDBRANCH   1  17
BRANCH   1  18
ATOM     18  C   UNL     1      -1.089  10.636  18.229  0.00  0.00    +0.000 C 
ATOM     19  C   UNL     1      -2.314  11.506  17.996  0.00  0.00    +0.000 C 
ENDBRANCH   1  18
BRANCH   7  20
ATOM     20  O   UNL     1       1.314   7.071  21.706  0.00  0.00    +0.000 OA
ATOM     21  H   UNL     1       0.774   7.534  22.385  0.00  0.00    +0.000 HD
ENDBRANCH   7  20
BRANCH  10  22
ATOM     22  O   UNL     1       1.919  10.268  17.249  0.00  0.00    +0.000 OA
ATOM     23  H   UNL     1       1.433   9.889  16.502  0.00  0.00    +0.000 HD
ENDBRANCH  10  22
TORSDOF 4
ENDMDL
MODEL 7
REMARK VINA RESULT:      -6.4      2.106      4.578
REMARK  Name = 
REMARK  6 active torsions:
REMARK  status: ('A' for Active; 'I' for Inactive)
REMARK    1  A    between atoms: C_1  and  C_2
REMARK    2  A    between atoms: C_2  and  C_3
REMARK    3  A    between atoms: C_3  and  C_4
REMARK    4  A    between atoms: C_4  and  C_5
REMARK    5  A    between atoms: C_11  and  O_12
REMARK    6  A    between atoms: C_15  and  O_16
REMARK                            x       y       z     vdW  Elec       q    Type
REMARK                         _______ _______ _______ _____ _____    ______ ____
ROOT
ATOM      1  C   UNL     1       4.927   4.601  18.433  0.00  0.00    +0.000 C 
ATOM      2  C   UNL     1       4.774   3.305  19.221  0.00  0.00    +0.000 C 
ATOM      3  C   UNL     1       3.872   3.085  20.180  0.00  0.00    +0.000 C 
ATOM      4  C   UNL     1       2.938   4.145  20.579  0.00  0.00    +0.000 C 
ATOM      5  O   UNL     1       2.193   3.971  21.540  0.00  0.00    +0.000 OA
ATOM      6  C   UNL     1       2.911   5.408  19.801  0.00  0.00    +0.000 A 
ATOM      7  C   UNL     1       2.057   6.446  20.223  0.00  0.00    +0.000 A 
ATOM      8  C   UNL     1       1.988   7.662  19.529  0.00  0.00    +0.000 A 
ATOM      9  C   UNL     1       2.751   7.827  18.358  0.00  0.00    +0.000 A 
ATOM     10  C   UNL     1       3.625   6.793  17.961  0.00  0.00    +0.000 A 
ATOM     11  C   UNL     1       3.754   5.584  18.683  0.00  0.00    +0.000 A 
ATOM     12  C   UNL     1       2.671   9.119  17.570  0.00  0.00    +0.000 C 
ATOM     13  C   UNL     1       1.617  10.085  18.009  0.00  0.00    +0.000 C 
ATOM     14  C   UNL     1       0.936   9.943  19.152  0.00  0.00    +0.000 C 
ATOM     15  C   UNL     1       1.147   8.791  20.089  0.00  0.00    +0.000 C 
ENDROOT
BRANCH   1  17
ATOM     16  C   UNL     1       3.968   3.456  16.291  0.00  0.00    +0.000 C 
ATOM     17  C   UNL     1       5.141   4.179  16.945  0.00  0.00    +0.000 C 
ENDBRANCH   1  17
BRANCH   1  18
ATOM     18  C   UNL     1       6.181   5.360  18.991  0.00  0.00    +0.000 C 
ATOM     19  C   UNL     1       7.420   5.411  18.110  0.00  0.00    +0.000 C 
ENDBRANCH   1  18
BRANCH   7  20
ATOM     20  O   UNL     1       1.277   6.337  21.351  0.00  0.00    +0.000 OA
ATOM     21  H   UNL     1       1.454   7.114  21.928  0.00  0.00    +0.000 HD
ENDBRANCH   7  20
BRANCH  10  22
ATOM     22  O   UNL     1       4.432   6.966  16.868  0.00  0.00    +0.000 OA
ATOM     23  H   UNL     1       5.320   6.614  17.026  0.00  0.00    +0.000 HD
ENDBRANCH  10  22
TORSDOF 4
ENDMDL
MODEL 8
REMARK VINA RESULT:      -6.1      5.244      7.541
REMARK  Name = 
REMARK  6 active torsions:
REMARK  status: ('A' for Active; 'I' for Inactive)
REMARK    1  A    between atoms: C_1  and  C_2
REMARK    2  A    between atoms: C_2  and  C_3
REMARK    3  A    between atoms: C_3  and  C_4
REMARK    4  A    between atoms: C_4  and  C_5
REMARK    5  A    between atoms: C_11  and  O_12
REMARK    6  A    between atoms: C_15  and  O_16
REMARK                            x       y       z     vdW  Elec       q    Type
REMARK                         _______ _______ _______ _____ _____    ______ ____
ROOT
ATOM      1  C   UNL     1       0.128  12.091  19.145  0.00  0.00    +0.000 C 
ATOM      2  C   UNL     1      -0.407  12.905  20.316  0.00  0.00    +0.000 C 
ATOM      3  C   UNL     1      -0.491  12.481  21.579  0.00  0.00    +0.000 C 
ATOM      4  C   UNL     1      -0.078  11.117  21.934  0.00  0.00    +0.000 C 
ATOM      5  O   UNL     1      -0.268  10.699  23.073  0.00  0.00    +0.000 OA
ATOM      6  C   UNL     1       0.572  10.274  20.901  0.00  0.00    +0.000 A 
ATOM      7  C   UNL     1       0.913   8.946  21.227  0.00  0.00    +0.000 A 
ATOM      8  C   UNL     1       1.528   8.100  20.294  0.00  0.00    +0.000 A 
ATOM      9  C   UNL     1       1.858   8.607  19.023  0.00  0.00    +0.000 A 
ATOM     10  C   UNL     1       1.486   9.928  18.697  0.00  0.00    +0.000 A 
ATOM     11  C   UNL     1       0.809  10.776  19.604  0.00  0.00    +0.000 A 
ATOM     12  C   UNL     1       2.554   7.724  18.005  0.00  0.00    +0.000 C 
ATOM     13  C   UNL     1       3.015   6.393  18.507  0.00  0.00    +0.000 C 
ATOM     14  C   UNL     1       2.651   5.901  19.696  0.00  0.00    +0.000 C 
ATOM     15  C   UNL     1       1.766   6.646  20.650  0.00  0.00    +0.000 C 
ENDROOT
BRANCH   1  17
ATOM     16  C   UNL     1       2.242  13.622  19.065  0.00  0.00    +0.000 C 
ATOM     17  C   UNL     1       1.033  13.061  18.321  0.00  0.00    +0.000 C 
ENDBRANCH   1  17
BRANCH   1  18
ATOM     18  C   UNL     1      -1.098  11.605  18.295  0.00  0.00    +0.000 C 
ATOM     19  C   UNL     1      -2.488  11.946  18.808  0.00  0.00    +0.000 C 
ENDBRANCH   1  18
BRANCH   7  20
ATOM     20  O   UNL     1       0.628   8.400  22.457  0.00  0.00    +0.000 OA
ATOM     21  H   UNL     1       0.955   7.472  22.470  0.00  0.00    +0.000 HD
ENDBRANCH   7  20
BRANCH  10  22
ATOM     22  O   UNL     1       1.730  10.414  17.439  0.00  0.00    +0.000 OA
ATOM     23  H   UNL     1       0.916  10.727  17.019  0.00  0.00    +0.000 HD
ENDBRANCH  10  22
TORSDOF 4
ENDMDL
MODEL 9
REMARK VINA RESULT:      -6.1      8.979     11.869
REMARK  Name = 
REMARK  6 active torsions:
REMARK  status: ('A' for Active; 'I' for Inactive)
REMARK    1  A    between atoms: C_1  and  C_2
REMARK    2  A    between atoms: C_2  and  C_3
REMARK    3  A    between atoms: C_3  and  C_4
REMARK    4  A    between atoms: C_4  and  C_5
REMARK    5  A    between atoms: C_11  and  O_12
REMARK    6  A    between atoms: C_15  and  O_16
REMARK                            x       y       z     vdW  Elec       q    Type
REMARK                         _______ _______ _______ _____ _____    ______ ____
ROOT
ATOM      1  C   UNL     1       9.857  11.674  19.118  0.00  0.00    +0.000 C 
ATOM      2  C   UNL     1       9.400  10.982  20.396  0.00  0.00    +0.000 C 
ATOM      3  C   UNL     1       9.135  11.592  21.553  0.00  0.00    +0.000 C 
ATOM      4  C   UNL     1       9.304  13.044  21.685  0.00  0.00    +0.000 C 
ATOM      5  O   UNL     1       9.172  13.577  22.783  0.00  0.00    +0.000 OA
ATOM      6  C   UNL     1       9.628  13.840  20.475  0.00  0.00    +0.000 A 
ATOM      7  C   UNL     1       9.849  15.225  20.615  0.00  0.00    +0.000 A 
ATOM      8  C   UNL     1      10.159  16.029  19.510  0.00  0.00    +0.000 A 
ATOM      9  C   UNL     1      10.198  15.448  18.228  0.00  0.00    +0.000 A 
ATOM     10  C   UNL     1      10.003  14.056  18.104  0.00  0.00    +0.000 A 
ATOM     11  C   UNL     1       9.752  13.219  19.215  0.00  0.00    +0.000 A 
ATOM     12  C   UNL     1      10.497  16.301  17.011  0.00  0.00    +0.000 C 
ATOM     13  C   UNL     1      10.553  17.776  17.249  0.00  0.00    +0.000 C 
ATOM     14  C   UNL     1      10.569  18.313  18.475  0.00  0.00    +0.000 C 
ATOM     15  C   UNL     1      10.508  17.488  19.725  0.00  0.00    +0.000 C 
ENDROOT
BRANCH   1  17
ATOM     16  C   UNL     1       8.537   9.605  18.225  0.00  0.00    +0.000 C 
ATOM     17  C   UNL     1       9.043  11.020  17.956  0.00  0.00    +0.000 C 
ENDBRANCH   1  17
BRANCH   1  18
ATOM     18  C   UNL     1      11.393  11.410  18.949  0.00  0.00    +0.000 C 
ATOM     19  C   UNL     1      12.327  11.994  19.998  0.00  0.00    +0.000 C 
ENDBRANCH   1  18
BRANCH   7  20
ATOM     20  O   UNL     1       9.811  15.850  21.839  0.00  0.00    +0.000 OA
ATOM     21  H   UNL     1      10.667  15.691  22.298  0.00  0.00    +0.000 HD
ENDBRANCH   7  20
BRANCH  10  22
ATOM     22  O   UNL     1      10.114  13.461  16.875  0.00  0.00    +0.000 OA
ATOM     23  H   UNL     1      10.560  14.040  16.241  0.00  0.00    +0.000 HD
ENDBRANCH  10  22
TORSDOF 4
ENDMDL
