MODEL 1
REMARK VINA RESULT:      -7.8      0.000      0.000
REMARK  Name = 
REMARK  7 active torsions:
REMARK  status: ('A' for Active; 'I' for Inactive)
REMARK    1  A    between atoms: C_1  and  N_2
REMARK    2  A    between atoms: N_2  and  C_3
REMARK    3  A    between atoms: N_2  and  C_4
REMARK    4  A    between atoms: C_4  and  C_5
REMARK    5  A    between atoms: C_5  and  N_6
REMARK    6  A    between atoms: C_8  and  C_9
REMARK    7  A    between atoms: C_19  and  C_20
REMARK                            x       y       z     vdW  Elec       q    Type
REMARK                         _______ _______ _______ _____ _____    ______ ____
ROOT
ATOM      1  C   UNL     1       1.138   9.897  19.344  0.00  0.00    +0.000 A 
ATOM      2  C   UNL     1       0.786   9.332  20.599  0.00  0.00    +0.000 A 
ATOM      3  C   UNL     1       1.112   7.986  20.933  0.00  0.00    +0.000 A 
ATOM      4  C   UNL     1       1.804   7.236  19.996  0.00  0.00    +0.000 A 
ATOM      5  C   UNL     1       2.077   7.817  18.752  0.00  0.00    +0.000 A 
ATOM      6  C   UNL     1       1.721   9.091  18.387  0.00  0.00    +0.000 A 
ATOM      7  C   UNL     1       3.004   6.990  18.070  0.00  0.00    +0.000 A 
ATOM      8  N   UNL     1       3.948   7.318  17.181  0.00  0.00    +0.000 N 
ATOM      9  C   UNL     1       4.812   6.262  17.100  0.00  0.00    +0.000 A 
ATOM     10  C   UNL     1       5.966   6.174  16.315  0.00  0.00    +0.000 A 
ATOM     11  C   UNL     1       7.010   5.868  17.180  0.00  0.00    +0.000 A 
ATOM     12  C   UNL     1       6.836   4.734  17.977  0.00  0.00    +0.000 A 
ATOM     13  C   UNL     1       5.541   4.419  18.450  0.00  0.00    +0.000 A 
ATOM     14  C   UNL     1       4.545   5.383  18.181  0.00  0.00    +0.000 A 
ATOM     15  C   UNL     1       3.376   5.892  18.811  0.00  0.00    +0.000 A 
ATOM     16  C   UNL     1       2.581   5.909  20.050  0.00  0.00    +0.000 C 
ATOM     17  O   UNL     1       2.608   5.113  20.972  0.00  0.00    +0.000 OA
ATOM     18  H   UNL     1       4.127   8.240  16.803  0.00  0.00    +0.000 HD
ENDROOT
BRANCH   1  21
ATOM     19  N   UNL     1       0.514  13.393  18.728  0.00  0.00    +0.000 N 
ATOM     20  C   UNL     1       0.062  12.183  19.186  0.00  0.00    +0.000 A 
ATOM     21  C   UNL     1       1.107  11.306  19.028  0.00  0.00    +0.000 A 
ATOM     22  C   UNL     1       2.130  12.093  18.429  0.00  0.00    +0.000 A 
ATOM     23  N   UNL     1       1.760  13.355  18.230  0.00  0.00    +0.000 NA
BRANCH  19  24
ATOM     24  C   UNL     1      -0.181  14.664  18.794  0.00  0.00    +0.000 C 
BRANCH  24  25
ATOM     25  C   UNL     1       0.637  15.725  19.534  0.00  0.00    +0.000 C 
BRANCH  25  27
ATOM     26  C   UNL     1       1.920  17.088  18.018  0.00  0.00    +0.000 C 
ATOM     27  N   UNL     1       0.705  17.026  18.835  0.00  0.00    +0.000 NA
ATOM     28  C   UNL     1      -0.468  17.273  17.995  0.00  0.00    +0.000 C 
ENDBRANCH  25  27
ENDBRANCH  24  25
ENDBRANCH  19  24
ENDBRANCH   1  21
BRANCH  11  29
ATOM     29  C   UNL     1       7.677   7.012  17.773  0.00  0.00    +0.000 C 
ATOM     30  N   UNL     1       8.256   7.846  18.344  0.00  0.00    +0.000 NA
ENDBRANCH  11  29
TORSDOF 5
ENDMDL
MODEL 2
REMARK VINA RESULT:      -7.8      1.207      1.692
REMARK  Name = 
REMARK  7 active torsions:
REMARK  status: ('A' for Active; 'I' for Inactive)
REMARK    1  A    between atoms: C_1  and  N_2
REMARK    2  A    between atoms: N_2  and  C_3
REMARK    3  A    between atoms: N_2  and  C_4
REMARK    4  A    between atoms: C_4  and  C_5
REMARK    5  A    between atoms: C_5  and  N_6
REMARK    6  A    between atoms: C_8  and  C_9
REMARK    7  A    between atoms: C_19  and  C_20
REMARK                            x       y       z     vdW  Elec       q    Type
REMARK                         _______ _______ _______ _____ _____    ______ ____
ROOT
ATOM      1  C   UNL     1       0.964   9.610  19.448  0.00  0.00    +0.000 A 
ATOM      2  C   UNL     1       0.714   9.000  20.706  0.00  0.00    +0.000 A 
ATOM      3  C   UNL     1       1.168   7.683  21.004  0.00  0.00    +0.000 A 
ATOM      4  C   UNL     1       1.884   7.009  20.028  0.00  0.00    +0.000 A 
ATOM      5  C   UNL     1       2.055   7.628  18.785  0.00  0.00    +0.000 A 
ATOM      6  C   UNL     1       1.576   8.871  18.455  0.00  0.00    +0.000 A 
ATOM      7  C   UNL     1       3.022   6.894  18.053  0.00  0.00    +0.000 A 
ATOM      8  N   UNL     1       3.897   7.316  17.133  0.00  0.00    +0.000 N 
ATOM      9  C   UNL     1       4.845   6.340  17.000  0.00  0.00    +0.000 A 
ATOM     10  C   UNL     1       5.969   6.364  16.169  0.00  0.00    +0.000 A 
ATOM     11  C   UNL     1       7.070   6.138  16.987  0.00  0.00    +0.000 A 
ATOM     12  C   UNL     1       7.027   4.983  17.771  0.00  0.00    +0.000 A 
ATOM     13  C   UNL     1       5.785   4.549  18.289  0.00  0.00    +0.000 A 
ATOM     14  C   UNL     1       4.699   5.426  18.076  0.00  0.00    +0.000 A 
ATOM     15  C   UNL     1       3.517   5.823  18.760  0.00  0.00    +0.000 A 
ATOM     16  C   UNL     1       2.775   5.755  20.029  0.00  0.00    +0.000 C 
ATOM     17  O   UNL     1       2.907   4.951  20.936  0.00  0.00    +0.000 OA
ATOM     18  H   UNL     1       3.980   8.254  16.764  0.00  0.00    +0.000 HD
ENDROOT
BRANCH   1  21
ATOM     19  N   UNL     1       1.064  13.182  18.973  0.00  0.00    +0.000 N 
ATOM     20  C   UNL     1       1.680  12.038  19.409  0.00  0.00    +0.000 A 
ATOM     21  C   UNL     1       0.798  11.015  19.157  0.00  0.00    +0.000 A 
ATOM     22  C   UNL     1      -0.337  11.668  18.600  0.00  0.00    +0.000 A 
ATOM     23  N   UNL     1      -0.180  12.986  18.507  0.00  0.00    +0.000 NA
BRANCH  19  24
ATOM     24  C   UNL     1       1.639  14.512  18.912  0.00  0.00    +0.000 C 
BRANCH  24  25
ATOM     25  C   UNL     1       3.167  14.478  18.994  0.00  0.00    +0.000 C 
BRANCH  25  27
ATOM     26  C   UNL     1       3.344  16.352  17.491  0.00  0.00    +0.000 C 
ATOM     27  N   UNL     1       3.843  15.008  17.790  0.00  0.00    +0.000 NA
ATOM     28  C   UNL     1       5.300  15.042  17.934  0.00  0.00    +0.000 C 
ENDBRANCH  25  27
ENDBRANCH  24  25
ENDBRANCH  19  24
ENDBRANCH   1  21
BRANCH  11  29
ATOM     29  C   UNL     1       7.660   7.328  17.573  0.00  0.00    +0.000 C 
ATOM     30  N   UNL     1       8.020   8.347  18.007  0.00  0.00    +0.000 NA
ENDBRANCH  11  29
TORSDOF 5
ENDMDL
MODEL 3
REMARK VINA RESULT:      -7.6      4.591     10.137
REMARK  Name = 
REMARK  7 active torsions:
REMARK  status: ('A' for Active; 'I' for Inactive)
REMARK    1  A    between atoms: C_1  and  N_2
REMARK    2  A    between atoms: N_2  and  C_3
REMARK    3  A    between atoms: N_2  and  C_4
REMARK    4  A    between atoms: C_4  and  C_5
REMARK    5  A    between atoms: C_5  and  N_6
REMARK    6  A    between atoms: C_8  and  C_9
REMARK    7  A    between atoms: C_19  and  C_20
REMARK                            x       y       z     vdW  Elec       q    Type
REMARK                         _______ _______ _______ _____ _____    ______ ____
ROOT
ATOM      1  C   UNL     1       0.449  10.471  19.953  0.00  0.00    +0.000 A 
ATOM      2  C   UNL     1       0.634  11.053  21.236  0.00  0.00    +0.000 A 
ATOM      3  C   UNL     1      -0.293  11.995  21.772  0.00  0.00    +0.000 A 
ATOM      4  C   UNL     1      -1.400  12.320  21.007  0.00  0.00    +0.000 A 
ATOM      5  C   UNL     1      -1.508  11.766  19.727  0.00  0.00    +0.000 A 
ATOM      6  C   UNL     1      -0.600  10.904  19.166  0.00  0.00    +0.000 A 
ATOM      7  C   UNL     1      -2.818  12.015  19.244  0.00  0.00    +0.000 A 
ATOM      8  N   UNL     1      -3.571  11.293  18.407  0.00  0.00    +0.000 N 
ATOM      9  C   UNL     1      -4.859  11.730  18.542  0.00  0.00    +0.000 A 
ATOM     10  C   UNL     1      -5.989  11.241  17.880  0.00  0.00    +0.000 A 
ATOM     11  C   UNL     1      -6.903  10.888  18.867  0.00  0.00    +0.000 A 
ATOM     12  C   UNL     1      -7.230  11.886  19.788  0.00  0.00    +0.000 A 
ATOM     13  C   UNL     1      -6.235  12.811  20.182  0.00  0.00    +0.000 A 
ATOM     14  C   UNL     1      -4.934  12.544  19.702  0.00  0.00    +0.000 A 
ATOM     15  C   UNL     1      -3.594  12.696  20.153  0.00  0.00    +0.000 A 
ATOM     16  C   UNL     1      -2.736  13.023  21.304  0.00  0.00    +0.000 C 
ATOM     17  O   UNL     1      -3.039  13.622  22.321  0.00  0.00    +0.000 OA
ATOM     18  H   UNL     1      -3.297  10.445  17.928  0.00  0.00    +0.000 HD
ENDROOT
BRANCH   1  21
ATOM     19  N   UNL     1       2.232   7.419  19.252  0.00  0.00    +0.000 N 
ATOM     20  C   UNL     1       1.598   8.225  20.160  0.00  0.00    +0.000 A 
ATOM     21  C   UNL     1       1.162   9.319  19.453  0.00  0.00    +0.000 A 
ATOM     22  C   UNL     1       1.625   9.080  18.129  0.00  0.00    +0.000 A 
ATOM     23  N   UNL     1       2.292   7.935  18.014  0.00  0.00    +0.000 NA
BRANCH  19  24
ATOM     24  C   UNL     1       2.762   6.089  19.488  0.00  0.00    +0.000 C 
BRANCH  24  25
ATOM     25  C   UNL     1       1.869   5.278  20.430  0.00  0.00    +0.000 C 
BRANCH  25  27
ATOM     26  C   UNL     1       1.437   3.077  21.309  0.00  0.00    +0.000 C 
ATOM     27  N   UNL     1       2.484   4.019  20.903  0.00  0.00    +0.000 NA
ATOM     28  C   UNL     1       3.342   3.399  19.892  0.00  0.00    +0.000 C 
ENDBRANCH  25  27
ENDBRANCH  24  25
ENDBRANCH  19  24
ENDBRANCH   1  21
BRANCH  11  29
ATOM     29  C   UNL     1      -6.784   9.528  19.361  0.00  0.00    +0.000 C 
ATOM     30  N   UNL     1      -6.810   8.416  19.706  0.00  0.00    +0.000 NA
ENDBRANCH  11  29
TORSDOF 5
ENDMDL
MODEL 4
REMARK VINA RESULT:      -7.6      0.633      1.102
REMARK  Name = 
REMARK  7 active torsions:
REMARK  status: ('A' for Active; 'I' for Inactive)
REMARK    1  A    between atoms: C_1  and  N_2
REMARK    2  A    between atoms: N_2  and  C_3
REMARK    3  A    between atoms: N_2  and  C_4
REMARK    4  A    between atoms: C_4  and  C_5
REMARK    5  A    between atoms: C_5  and  N_6
REMARK    6  A    between atoms: C_8  and  C_9
REMARK    7  A    between atoms: C_19  and  C_20
REMARK                            x       y       z     vdW  Elec       q    Type
REMARK                         _______ _______ _______ _____ _____    ______ ____
ROOT
ATOM      1  C   UNL     1       1.193   9.820  19.329  0.00  0.00    +0.000 A 
ATOM      2  C   UNL     1       0.850   9.245  20.582  0.00  0.00    +0.000 A 
ATOM      3  C   UNL     1       1.186   7.898  20.905  0.00  0.00    +0.000 A 
ATOM      4  C   UNL     1       1.879   7.159  19.961  0.00  0.00    +0.000 A 
ATOM      5  C   UNL     1       2.144   7.750  18.720  0.00  0.00    +0.000 A 
ATOM      6  C   UNL     1       1.779   9.024  18.364  0.00  0.00    +0.000 A 
ATOM      7  C   UNL     1       3.074   6.933  18.029  0.00  0.00    +0.000 A 
ATOM      8  N   UNL     1       4.013   7.274  17.139  0.00  0.00    +0.000 N 
ATOM      9  C   UNL     1       4.883   6.223  17.047  0.00  0.00    +0.000 A 
ATOM     10  C   UNL     1       6.034   6.148  16.257  0.00  0.00    +0.000 A 
ATOM     11  C   UNL     1       7.083   5.843  17.117  0.00  0.00    +0.000 A 
ATOM     12  C   UNL     1       6.919   4.703  17.906  0.00  0.00    +0.000 A 
ATOM     13  C   UNL     1       5.628   4.376  18.382  0.00  0.00    +0.000 A 
ATOM     14  C   UNL     1       4.625   5.335  18.123  0.00  0.00    +0.000 A 
ATOM     15  C   UNL     1       3.455   5.833  18.761  0.00  0.00    +0.000 A 
ATOM     16  C   UNL     1       2.665   5.837  20.003  0.00  0.00    +0.000 C 
ATOM     17  O   UNL     1       2.700   5.034  20.919  0.00  0.00    +0.000 OA
ATOM     18  H   UNL     1       4.184   8.199  16.766  0.00  0.00    +0.000 HD
ENDROOT
BRANCH   1  21
ATOM     19  N   UNL     1       0.561  13.326  18.784  0.00  0.00    +0.000 N 
ATOM     20  C   UNL     1       0.136  12.119  19.274  0.00  0.00    +0.000 A 
ATOM     21  C   UNL     1       1.153  11.231  19.023  0.00  0.00    +0.000 A 
ATOM     22  C   UNL     1       2.130  12.009  18.341  0.00  0.00    +0.000 A 
ATOM     23  N   UNL     1       1.760  13.277  18.180  0.00  0.00    +0.000 NA
BRANCH  19  24
ATOM     24  C   UNL     1      -0.110  14.605  18.915  0.00  0.00    +0.000 C 
BRANCH  24  25
ATOM     25  C   UNL     1       0.874  15.775  18.855  0.00  0.00    +0.000 C 
BRANCH  25  27
ATOM     26  C   UNL     1       0.101  16.092  21.115  0.00  0.00    +0.000 C 
ATOM     27  N   UNL     1       1.196  16.356  20.177  0.00  0.00    +0.000 NA
ATOM     28  C   UNL     1       2.452  15.842  20.725  0.00  0.00    +0.000 C 
ENDBRANCH  25  27
ENDBRANCH  24  25
ENDBRANCH  19  24
ENDBRANCH   1  21
BRANCH  11  29
ATOM     29  C   UNL     1       7.746   6.987  17.715  0.00  0.00    +0.000 C 
ATOM     30  N   UNL     1       8.192   7.892  18.298  0.00  0.00    +0.000 NA
ENDBRANCH  11  29
TORSDOF 5
ENDMDL
MODEL 5
REMARK VINA RESULT:      -7.5      0.992      1.482
REMARK  Name = 
REMARK  7 active torsions:
REMARK  status: ('A' for Active; 'I' for Inactive)
REMARK    1  A    between atoms: C_1  and  N_2
REMARK    2  A    between atoms: N_2  and  C_3
REMARK    3  A    between atoms: N_2  and  C_4
REMARK    4  A    between atoms: C_4  and  C_5
REMARK    5  A    between atoms: C_5  and  N_6
REMARK    6  A    between atoms: C_8  and  C_9
REMARK    7  A    between atoms: C_19  and  C_20
REMARK                            x       y       z     vdW  Elec       q    Type
REMARK                         _______ _______ _______ _____ _____    ______ ____
ROOT
ATOM      1  C   UNL     1       1.175  10.204  19.315  0.00  0.00    +0.000 A 
ATOM      2  C   UNL     1       0.780   9.671  20.572  0.00  0.00    +0.000 A 
ATOM      3  C   UNL     1       1.028   8.312  20.920  0.00  0.00    +0.000 A 
ATOM      4  C   UNL     1       1.687   7.517  19.998  0.00  0.00    +0.000 A 
ATOM      5  C   UNL     1       2.004   8.070  18.752  0.00  0.00    +0.000 A 
ATOM      6  C   UNL     1       1.723   9.359  18.372  0.00  0.00    +0.000 A 
ATOM      7  C   UNL     1       2.892   7.187  18.087  0.00  0.00    +0.000 A 
ATOM      8  N   UNL     1       3.862   7.455  17.206  0.00  0.00    +0.000 N 
ATOM      9  C   UNL     1       4.667   6.352  17.143  0.00  0.00    +0.000 A 
ATOM     10  C   UNL     1       5.822   6.194  16.371  0.00  0.00    +0.000 A 
ATOM     11  C   UNL     1       6.839   5.838  17.250  0.00  0.00    +0.000 A 
ATOM     12  C   UNL     1       6.594   4.723  18.055  0.00  0.00    +0.000 A 
ATOM     13  C   UNL     1       5.279   4.484  18.516  0.00  0.00    +0.000 A 
ATOM     14  C   UNL     1       4.341   5.499  18.228  0.00  0.00    +0.000 A 
ATOM     15  C   UNL     1       3.195   6.078  18.841  0.00  0.00    +0.000 A 
ATOM     16  C   UNL     1       2.389   6.150  20.071  0.00  0.00    +0.000 C 
ATOM     17  O   UNL     1       2.362   5.362  21.000  0.00  0.00    +0.000 OA
ATOM     18  H   UNL     1       4.095   8.362  16.822  0.00  0.00    +0.000 HD
ENDROOT
BRANCH   1  21
ATOM     19  N   UNL     1       1.871  13.647  18.506  0.00  0.00    +0.000 N 
ATOM     20  C   UNL     1       2.337  12.383  18.756  0.00  0.00    +0.000 A 
ATOM     21  C   UNL     1       1.226  11.610  18.988  0.00  0.00    +0.000 A 
ATOM     22  C   UNL     1       0.142  12.527  18.888  0.00  0.00    +0.000 A 
ATOM     23  N   UNL     1       0.538  13.767  18.615  0.00  0.00    +0.000 NA
BRANCH  19  24
ATOM     24  C   UNL     1       2.651  14.796  18.089  0.00  0.00    +0.000 C 
BRANCH  24  25
ATOM     25  C   UNL     1       2.068  16.107  18.624  0.00  0.00    +0.000 C 
BRANCH  25  27
ATOM     26  C   UNL     1       2.963  17.571  20.315  0.00  0.00    +0.000 C 
ATOM     27  N   UNL     1       3.085  17.139  18.920  0.00  0.00    +0.000 NA
ATOM     28  C   UNL     1       4.449  16.672  18.664  0.00  0.00    +0.000 C 
ENDBRANCH  25  27
ENDBRANCH  24  25
ENDBRANCH  19  24
ENDBRANCH   1  21
BRANCH  11  29
ATOM     29  C   UNL     1       7.562   6.950  17.841  0.00  0.00    +0.000 C 
ATOM     30  N   UNL     1       8.199   7.858  18.195  0.00  0.00    +0.000 NA
ENDBRANCH  11  29
TORSDOF 5
ENDMDL
MODEL 6
REMARK VINA RESULT:      -7.5      4.496     10.078
REMARK  Name = 
REMARK  7 active torsions:
REMARK  status: ('A' for Active; 'I' for Inactive)
REMARK    1  A    between atoms: C_1  and  N_2
REMARK    2  A    between atoms: N_2  and  C_3
REMARK    3  A    between atoms: N_2  and  C_4
REMARK    4  A    between atoms: C_4  and  C_5
REMARK    5  A    between atoms: C_5  and  N_6
REMARK    6  A    between atoms: C_8  and  C_9
REMARK    7  A    between atoms: C_19  and  C_20
REMARK                            x       y       z     vdW  Elec       q    Type
REMARK                         _______ _______ _______ _____ _____    ______ ____
ROOT
ATOM      1  C   UNL     1       0.400  10.413  20.120  0.00  0.00    +0.000 A 
ATOM      2  C   UNL     1       0.535  10.959  21.425  0.00  0.00    +0.000 A 
ATOM      3  C   UNL     1      -0.400  11.902  21.943  0.00  0.00    +0.000 A 
ATOM      4  C   UNL     1      -1.467  12.265  21.139  0.00  0.00    +0.000 A 
ATOM      5  C   UNL     1      -1.526  11.745  19.841  0.00  0.00    +0.000 A 
ATOM      6  C   UNL     1      -0.606  10.882  19.299  0.00  0.00    +0.000 A 
ATOM      7  C   UNL     1      -2.808  12.027  19.307  0.00  0.00    +0.000 A 
ATOM      8  N   UNL     1      -3.534  11.339  18.419  0.00  0.00    +0.000 N 
ATOM      9  C   UNL     1      -4.820  11.793  18.508  0.00  0.00    +0.000 A 
ATOM     10  C   UNL     1      -5.927  11.340  17.784  0.00  0.00    +0.000 A 
ATOM     11  C   UNL     1      -6.889  10.976  18.720  0.00  0.00    +0.000 A 
ATOM     12  C   UNL     1      -7.242  11.955  19.651  0.00  0.00    +0.000 A 
ATOM     13  C   UNL     1      -6.252  12.854  20.112  0.00  0.00    +0.000 A 
ATOM     14  C   UNL     1      -4.935  12.578  19.684  0.00  0.00    +0.000 A 
ATOM     15  C   UNL     1      -3.614  12.697  20.198  0.00  0.00    +0.000 A 
ATOM     16  C   UNL     1      -2.804  12.981  21.394  0.00  0.00    +0.000 C 
ATOM     17  O   UNL     1      -3.143  13.558  22.413  0.00  0.00    +0.000 OA
ATOM     18  H   UNL     1      -3.251  10.499  17.930  0.00  0.00    +0.000 HD
ENDROOT
BRANCH   1  21
ATOM     19  N   UNL     1       2.182   7.359  19.422  0.00  0.00    +0.000 N 
ATOM     20  C   UNL     1       1.533   8.159  20.326  0.00  0.00    +0.000 A 
ATOM     21  C   UNL     1       1.117   9.263  19.622  0.00  0.00    +0.000 A 
ATOM     22  C   UNL     1       1.606   9.036  18.305  0.00  0.00    +0.000 A 
ATOM     23  N   UNL     1       2.269   7.889  18.191  0.00  0.00    +0.000 NA
BRANCH  19  24
ATOM     24  C   UNL     1       2.700   6.025  19.654  0.00  0.00    +0.000 C 
BRANCH  24  25
ATOM     25  C   UNL     1       3.919   5.725  18.779  0.00  0.00    +0.000 C 
BRANCH  25  27
ATOM     26  C   UNL     1       4.319   3.392  19.225  0.00  0.00    +0.000 C 
ATOM     27  N   UNL     1       3.922   4.363  18.202  0.00  0.00    +0.000 NA
ATOM     28  C   UNL     1       2.624   3.988  17.641  0.00  0.00    +0.000 C 
ENDBRANCH  25  27
ENDBRANCH  24  25
ENDBRANCH  19  24
ENDBRANCH   1  21
BRANCH  11  29
ATOM     29  C   UNL     1      -6.812   9.602  19.183  0.00  0.00    +0.000 C 
ATOM     30  N   UNL     1      -6.854   8.530  19.634  0.00  0.00    +0.000 NA
ENDBRANCH  11  29
TORSDOF 5
ENDMDL
MODEL 7
REMARK VINA RESULT:      -7.5      4.657     10.240
REMARK  Name = 
REMARK  7 active torsions:
REMARK  status: ('A' for Active; 'I' for Inactive)
REMARK    1  A    between atoms: C_1  and  N_2
REMARK    2  A    between atoms: N_2  and  C_3
REMARK    3  A    between atoms: N_2  and  C_4
REMARK    4  A    between atoms: C_4  and  C_5
REMARK    5  A    between atoms: C_5  and  N_6
REMARK    6  A    between atoms: C_8  and  C_9
REMARK    7  A    between atoms: C_19  and  C_20
REMARK                            x       y       z     vdW  Elec       q    Type
REMARK                         _______ _______ _______ _____ _____    ______ ____
ROOT
ATOM      1  C   UNL     1       0.090  10.425  20.785  0.00  0.00    +0.000 A 
ATOM      2  C   UNL     1       0.114  10.195  22.187  0.00  0.00    +0.000 A 
ATOM      3  C   UNL     1      -0.822  10.816  23.063  0.00  0.00    +0.000 A 
ATOM      4  C   UNL     1      -1.780  11.646  22.506  0.00  0.00    +0.000 A 
ATOM      5  C   UNL     1      -1.728  11.887  21.128  0.00  0.00    +0.000 A 
ATOM      6  C   UNL     1      -0.800  11.348  20.272  0.00  0.00    +0.000 A 
ATOM      7  C   UNL     1      -2.932  12.528  20.744  0.00  0.00    +0.000 A 
ATOM      8  N   UNL     1      -3.593  12.478  19.582  0.00  0.00    +0.000 N 
ATOM      9  C   UNL     1      -4.858  12.942  19.816  0.00  0.00    +0.000 A 
ATOM     10  C   UNL     1      -5.903  13.041  18.894  0.00  0.00    +0.000 A 
ATOM     11  C   UNL     1      -6.975  12.340  19.434  0.00  0.00    +0.000 A 
ATOM     12  C   UNL     1      -7.375  12.720  20.717  0.00  0.00    +0.000 A 
ATOM     13  C   UNL     1      -6.396  13.145  21.645  0.00  0.00    +0.000 A 
ATOM     14  C   UNL     1      -5.057  13.007  21.219  0.00  0.00    +0.000 A 
ATOM     15  C   UNL     1      -3.793  12.711  21.801  0.00  0.00    +0.000 A 
ATOM     16  C   UNL     1      -3.100  12.251  23.015  0.00  0.00    +0.000 C 
ATOM     17  O   UNL     1      -3.514  12.243  24.161  0.00  0.00    +0.000 OA
ATOM     18  H   UNL     1      -3.303  11.992  18.743  0.00  0.00    +0.000 HD
ENDROOT
BRANCH   1  21
ATOM     19  N   UNL     1       2.042   8.155  18.778  0.00  0.00    +0.000 N 
ATOM     20  C   UNL     1       1.578   8.528  20.012  0.00  0.00    +0.000 A 
ATOM     21  C   UNL     1       0.797   9.638  19.801  0.00  0.00    +0.000 A 
ATOM     22  C   UNL     1       0.893   9.866  18.400  0.00  0.00    +0.000 A 
ATOM     23  N   UNL     1       1.666   8.975  17.784  0.00  0.00    +0.000 NA
BRANCH  19  24
ATOM     24  C   UNL     1       2.813   6.968  18.460  0.00  0.00    +0.000 C 
BRANCH  24  25
ATOM     25  C   UNL     1       2.621   5.865  19.503  0.00  0.00    +0.000 C 
BRANCH  25  27
ATOM     26  C   UNL     1       2.216   3.539  19.979  0.00  0.00    +0.000 C 
ATOM     27  N   UNL     1       2.565   4.502  18.932  0.00  0.00    +0.000 NA
ATOM     28  C   UNL     1       1.614   4.396  17.825  0.00  0.00    +0.000 C 
ENDBRANCH  25  27
ENDBRANCH  24  25
ENDBRANCH  19  24
ENDBRANCH   1  21
BRANCH  11  29
ATOM     29  C   UNL     1      -7.016  10.926  19.107  0.00  0.00    +0.000 C 
ATOM     30  N   UNL     1      -7.039   9.769  18.976  0.00  0.00    +0.000 NA
ENDBRANCH  11  29
TORSDOF 5
ENDMDL
MODEL 8
REMARK VINA RESULT:      -7.5      1.383      1.805
REMARK  Name = 
REMARK  7 active torsions:
REMARK  status: ('A' for Active; 'I' for Inactive)
REMARK    1  A    between atoms: C_1  and  N_2
REMARK    2  A    between atoms: N_2  and  C_3
REMARK    3  A    between atoms: N_2  and  C_4
REMARK    4  A    between atoms: C_4  and  C_5
REMARK    5  A    between atoms: C_5  and  N_6
REMARK    6  A    between atoms: C_8  and  C_9
REMARK    7  A    between atoms: C_19  and  C_20
REMARK                            x       y       z     vdW  Elec       q    Type
REMARK                         _______ _______ _______ _____ _____    ______ ____
ROOT
ATOM      1  C   UNL     1       1.087   9.695  20.019  0.00  0.00    +0.000 A 
ATOM      2  C   UNL     1       0.805   8.959  21.201  0.00  0.00    +0.000 A 
ATOM      3  C   UNL     1       1.134   7.577  21.319  0.00  0.00    +0.000 A 
ATOM      4  C   UNL     1       1.757   6.966  20.244  0.00  0.00    +0.000 A 
ATOM      5  C   UNL     1       1.961   7.717  19.081  0.00  0.00    +0.000 A 
ATOM      6  C   UNL     1       1.600   9.031  18.923  0.00  0.00    +0.000 A 
ATOM      7  C   UNL     1       2.834   6.991  18.232  0.00  0.00    +0.000 A 
ATOM      8  N   UNL     1       3.726   7.439  17.341  0.00  0.00    +0.000 N 
ATOM      9  C   UNL     1       4.569   6.402  17.057  0.00  0.00    +0.000 A 
ATOM     10  C   UNL     1       5.671   6.422  16.197  0.00  0.00    +0.000 A 
ATOM     11  C   UNL     1       6.762   5.991  16.942  0.00  0.00    +0.000 A 
ATOM     12  C   UNL     1       6.623   4.757  17.580  0.00  0.00    +0.000 A 
ATOM     13  C   UNL     1       5.356   4.382  18.083  0.00  0.00    +0.000 A 
ATOM     14  C   UNL     1       4.358   5.379  18.017  0.00  0.00    +0.000 A 
ATOM     15  C   UNL     1       3.236   5.798  18.784  0.00  0.00    +0.000 A 
ATOM     16  C   UNL     1       2.519   5.642  20.061  0.00  0.00    +0.000 C 
ATOM     17  O   UNL     1       2.592   4.722  20.857  0.00  0.00    +0.000 OA
ATOM     18  H   UNL     1       3.893   8.405  17.087  0.00  0.00    +0.000 HD
ENDROOT
BRANCH   1  21
ATOM     19  N   UNL     1       1.265  13.210  19.238  0.00  0.00    +0.000 N 
ATOM     20  C   UNL     1       1.489  11.911  18.862  0.00  0.00    +0.000 A 
ATOM     21  C   UNL     1       1.055  11.135  19.909  0.00  0.00    +0.000 A 
ATOM     22  C   UNL     1       0.622  12.079  20.882  0.00  0.00    +0.000 A 
ATOM     23  N   UNL     1       0.769  13.339  20.479  0.00  0.00    +0.000 NA
BRANCH  19  24
ATOM     24  C   UNL     1       1.447  14.396  18.424  0.00  0.00    +0.000 C 
BRANCH  24  25
ATOM     25  C   UNL     1       2.590  15.273  18.941  0.00  0.00    +0.000 C 
BRANCH  25  27
ATOM     26  C   UNL     1       4.783  14.788  18.070  0.00  0.00    +0.000 C 
ATOM     27  N   UNL     1       3.852  14.537  19.173  0.00  0.00    +0.000 NA
ATOM     28  C   UNL     1       4.484  14.895  20.444  0.00  0.00    +0.000 C 
ENDBRANCH  25  27
ENDBRANCH  24  25
ENDBRANCH  19  24
ENDBRANCH   1  21
BRANCH  11  29
ATOM     29  C   UNL     1       7.480   7.037  17.649  0.00  0.00    +0.000 C 
ATOM     30  N   UNL     1       8.159   7.791  18.220  0.00  0.00    +0.000 NA
ENDBRANCH  11  29
TORSDOF 5
ENDMDL
MODEL 9
REMARK VINA RESULT:      -7.5      1.293      1.809
REMARK  Name = 
REMARK  7 active torsions:
REMARK  status: ('A' for Active; 'I' for Inactive)
REMARK    1  A    between atoms: C_1  and  N_2
REMARK    2  A    between atoms: N_2  and  C_3
REMARK    3  A    between atoms: N_2  and  C_4
REMARK    4  A    between atoms: C_4  and  C_5
REMARK    5  A    between atoms: C_5  and  N_6
REMARK    6  A    between atoms: C_8  and  C_9
REMARK    7  A    between atoms: C_19  and  C_20
REMARK                            x       y       z     vdW  Elec       q    Type
REMARK                         _______ _______ _______ _____ _____    ______ ____
ROOT
ATOM      1  C   UNL     1       1.073   9.682  19.598  0.00  0.00    +0.000 A 
ATOM      2  C   UNL     1       0.743   9.027  20.814  0.00  0.00    +0.000 A 
ATOM      3  C   UNL     1       1.116   7.674  21.061  0.00  0.00    +0.000 A 
ATOM      4  C   UNL     1       1.832   7.010  20.080  0.00  0.00    +0.000 A 
ATOM      5  C   UNL     1       2.084   7.678  18.876  0.00  0.00    +0.000 A 
ATOM      6  C   UNL     1       1.683   8.960  18.592  0.00  0.00    +0.000 A 
ATOM      7  C   UNL     1       3.038   6.929  18.143  0.00  0.00    +0.000 A 
ATOM      8  N   UNL     1       3.969   7.346  17.278  0.00  0.00    +0.000 N 
ATOM      9  C   UNL     1       4.869   6.328  17.130  0.00  0.00    +0.000 A 
ATOM     10  C   UNL     1       6.024   6.331  16.342  0.00  0.00    +0.000 A 
ATOM     11  C   UNL     1       7.079   6.006  17.187  0.00  0.00    +0.000 A 
ATOM     12  C   UNL     1       6.946   4.818  17.909  0.00  0.00    +0.000 A 
ATOM     13  C   UNL     1       5.663   4.429  18.360  0.00  0.00    +0.000 A 
ATOM     14  C   UNL     1       4.634   5.373  18.153  0.00  0.00    +0.000 A 
ATOM     15  C   UNL     1       3.449   5.800  18.812  0.00  0.00    +0.000 A 
ATOM     16  C   UNL     1       2.656   5.710  20.049  0.00  0.00    +0.000 C 
ATOM     17  O   UNL     1       2.711   4.858  20.919  0.00  0.00    +0.000 OA
ATOM     18  H   UNL     1       4.115   8.296  16.960  0.00  0.00    +0.000 HD
ENDROOT
BRANCH   1  21
ATOM     19  N   UNL     1       0.388  13.212  19.341  0.00  0.00    +0.000 N 
ATOM     20  C   UNL     1       0.042  11.982  19.837  0.00  0.00    +0.000 A 
ATOM     21  C   UNL     1       0.994  11.107  19.373  0.00  0.00    +0.000 A 
ATOM     22  C   UNL     1       1.847  11.918  18.573  0.00  0.00    +0.000 A 
ATOM     23  N   UNL     1       1.466  13.192  18.540  0.00  0.00    +0.000 NA
BRANCH  19  24
ATOM     24  C   UNL     1      -0.240  14.482  19.648  0.00  0.00    +0.000 C 
BRANCH  24  25
ATOM     25  C   UNL     1      -1.322  14.341  20.720  0.00  0.00    +0.000 C 
BRANCH  25  27
ATOM     26  C   UNL     1      -1.067  13.736  23.038  0.00  0.00    +0.000 C 
ATOM     27  N   UNL     1      -0.906  14.814  22.059  0.00  0.00    +0.000 NA
ATOM     28  C   UNL     1       0.476  15.297  22.078  0.00  0.00    +0.000 C 
ENDBRANCH  25  27
ENDBRANCH  24  25
ENDBRANCH  19  24
ENDBRANCH   1  21
BRANCH  11  29
ATOM     29  C   UNL     1       7.708   7.133  17.853  0.00  0.00    +0.000 C 
ATOM     30  N   UNL     1       8.311   8.023  18.299  0.00  0.00    +0.000 NA
ENDBRANCH  11  29
TORSDOF 5
ENDMDL
