MODEL 1
REMARK VINA RESULT:      -6.2      0.000      0.000
REMARK  Name = 
REMARK  1 active torsions:
REMARK  status: ('A' for Active; 'I' for Inactive)
REMARK    1  A    between atoms: C_5  and  N_6
REMARK                            x       y       z     vdW  Elec       q    Type
REMARK                         _______ _______ _______ _____ _____    ______ ____
ROOT
ATOM      1  N   UNL     1       1.755   2.605  21.974  0.00  0.00    +0.000 N 
ATOM      2  C   UNL     1       2.579   3.221  21.037  0.00  0.00    +0.000 A 
ATOM      3  C   UNL     1       2.409   4.554  20.714  0.00  0.00    +0.000 A 
ATOM      4  C   UNL     1       3.276   5.142  19.788  0.00  0.00    +0.000 A 
ATOM      5  C   UNL     1       4.314   4.415  19.197  0.00  0.00    +0.000 A 
ATOM      6  C   UNL     1       4.375   3.079  19.608  0.00  0.00    +0.000 A 
ATOM      7  N   UNL     1       3.549   2.472  20.503  0.00  0.00    +0.000 NA
ATOM      8  H   UNL     1       0.778   2.705  21.731  0.00  0.00    +0.000 HD
ATOM      9  H   UNL     1       2.039   1.628  22.010  0.00  0.00    +0.000 HD
ENDROOT
BRANCH   5  10
ATOM     10  N   UNL     1       5.181   4.984  18.290  0.00  0.00    +0.000 N 
ATOM     11  C   UNL     1       6.538   5.419  18.668  0.00  0.00    +0.000 C 
ATOM     12  C   UNL     1       7.598   4.656  17.839  0.00  0.00    +0.000 C 
ATOM     13  N   UNL     1       7.386   4.735  16.380  0.00  0.00    +0.000 NA
ATOM     14  C   UNL     1       6.020   4.272  16.062  0.00  0.00    +0.000 C 
ATOM     15  C   UNL     1       4.924   5.034  16.840  0.00  0.00    +0.000 C 
ATOM     16  H   UNL     1       8.059   4.130  15.912  0.00  0.00    +0.000 HD
ENDBRANCH   5  10
TORSDOF 1
ENDMDL
MODEL 2
REMARK VINA RESULT:      -6.1      1.751      2.039
REMARK  Name = 
REMARK  1 active torsions:
REMARK  status: ('A' for Active; 'I' for Inactive)
REMARK    1  A    between atoms: C_5  and  N_6
REMARK                            x       y       z     vdW  Elec       q    Type
REMARK                         _______ _______ _______ _____ _____    ______ ____
ROOT
ATOM      1  N   UNL     1       0.719   3.436  20.541  0.00  0.00    +0.000 N 
ATOM      2  C   UNL     1       1.690   3.814  19.619  0.00  0.00    +0.000 A 
ATOM      3  C   UNL     1       1.455   3.709  18.261  0.00  0.00    +0.000 A 
ATOM      4  C   UNL     1       2.446   4.126  17.367  0.00  0.00    +0.000 A 
ATOM      5  C   UNL     1       3.658   4.656  17.819  0.00  0.00    +0.000 A 
ATOM      6  C   UNL     1       3.771   4.705  19.213  0.00  0.00    +0.000 A 
ATOM      7  N   UNL     1       2.830   4.307  20.112  0.00  0.00    +0.000 NA
ATOM      8  H   UNL     1       0.414   2.483  20.388  0.00  0.00    +0.000 HD
ATOM      9  H   UNL     1       1.133   3.558  21.462  0.00  0.00    +0.000 HD
ENDROOT
BRANCH   5  10
ATOM     10  N   UNL     1       4.641   5.079  16.950  0.00  0.00    +0.000 N 
ATOM     11  C   UNL     1       4.879   6.506  16.670  0.00  0.00    +0.000 C 
ATOM     12  C   UNL     1       6.322   6.900  17.068  0.00  0.00    +0.000 C 
ATOM     13  N   UNL     1       7.362   6.043  16.464  0.00  0.00    +0.000 NA
ATOM     14  C   UNL     1       7.080   4.632  16.793  0.00  0.00    +0.000 C 
ATOM     15  C   UNL     1       5.661   4.183  16.377  0.00  0.00    +0.000 C 
ATOM     16  H   UNL     1       8.269   6.300  16.851  0.00  0.00    +0.000 HD
ENDBRANCH   5  10
TORSDOF 1
ENDMDL
MODEL 3
REMARK VINA RESULT:      -6.1      1.575      5.286
REMARK  Name = 
REMARK  1 active torsions:
REMARK  status: ('A' for Active; 'I' for Inactive)
REMARK    1  A    between atoms: C_5  and  N_6
REMARK                            x       y       z     vdW  Elec       q    Type
REMARK                         _______ _______ _______ _____ _____    ______ ____
ROOT
ATOM      1  N   UNL     1       7.245   5.508  15.940  0.00  0.00    +0.000 N 
ATOM      2  C   UNL     1       6.226   4.973  16.722  0.00  0.00    +0.000 A 
ATOM      3  C   UNL     1       5.102   4.420  16.137  0.00  0.00    +0.000 A 
ATOM      4  C   UNL     1       4.114   3.868  16.957  0.00  0.00    +0.000 A 
ATOM      5  C   UNL     1       4.247   3.852  18.349  0.00  0.00    +0.000 A 
ATOM      6  C   UNL     1       5.426   4.444  18.812  0.00  0.00    +0.000 A 
ATOM      7  N   UNL     1       6.408   4.993  18.046  0.00  0.00    +0.000 NA
ATOM      8  H   UNL     1       6.893   6.212  15.304  0.00  0.00    +0.000 HD
ATOM      9  H   UNL     1       7.934   5.890  16.585  0.00  0.00    +0.000 HD
ENDROOT
BRANCH   5  10
ATOM     10  N   UNL     1       3.285   3.304  19.169  0.00  0.00    +0.000 N 
ATOM     11  C   UNL     1       2.845   3.963  20.412  0.00  0.00    +0.000 C 
ATOM     12  C   UNL     1       1.329   4.272  20.350  0.00  0.00    +0.000 C 
ATOM     13  N   UNL     1       0.494   3.097  20.029  0.00  0.00    +0.000 NA
ATOM     14  C   UNL     1       0.971   2.491  18.770  0.00  0.00    +0.000 C 
ATOM     15  C   UNL     1       2.473   2.131  18.800  0.00  0.00    +0.000 C 
ATOM     16  H   UNL     1      -0.472   3.400  19.908  0.00  0.00    +0.000 HD
ENDBRANCH   5  10
TORSDOF 1
ENDMDL
MODEL 4
REMARK VINA RESULT:      -6.1      1.510      5.387
REMARK  Name = 
REMARK  1 active torsions:
REMARK  status: ('A' for Active; 'I' for Inactive)
REMARK    1  A    between atoms: C_5  and  N_6
REMARK                            x       y       z     vdW  Elec       q    Type
REMARK                         _______ _______ _______ _____ _____    ______ ____
ROOT
ATOM      1  N   UNL     1       7.559   4.682  16.338  0.00  0.00    +0.000 N 
ATOM      2  C   UNL     1       6.323   4.644  16.977  0.00  0.00    +0.000 A 
ATOM      3  C   UNL     1       5.252   3.983  16.405  0.00  0.00    +0.000 A 
ATOM      4  C   UNL     1       4.035   3.945  17.092  0.00  0.00    +0.000 A 
ATOM      5  C   UNL     1       3.887   4.547  18.346  0.00  0.00    +0.000 A 
ATOM      6  C   UNL     1       5.043   5.183  18.809  0.00  0.00    +0.000 A 
ATOM      7  N   UNL     1       6.242   5.243  18.169  0.00  0.00    +0.000 NA
ATOM      8  H   UNL     1       7.479   5.050  15.399  0.00  0.00    +0.000 HD
ATOM      9  H   UNL     1       8.167   5.254  16.919  0.00  0.00    +0.000 HD
ENDROOT
BRANCH   5  10
ATOM     10  N   UNL     1       2.696   4.510  19.038  0.00  0.00    +0.000 N 
ATOM     11  C   UNL     1       1.472   3.920  18.464  0.00  0.00    +0.000 C 
ATOM     12  C   UNL     1       0.980   2.744  19.342  0.00  0.00    +0.000 C 
ATOM     13  N   UNL     1       0.802   3.095  20.765  0.00  0.00    +0.000 NA
ATOM     14  C   UNL     1       2.060   3.663  21.286  0.00  0.00    +0.000 C 
ATOM     15  C   UNL     1       2.571   4.867  20.463  0.00  0.00    +0.000 C 
ATOM     16  H   UNL     1       0.575   2.251  21.289  0.00  0.00    +0.000 HD
ENDBRANCH   5  10
TORSDOF 1
ENDMDL
MODEL 5
REMARK VINA RESULT:      -6.0      1.431      1.611
REMARK  Name = 
REMARK  1 active torsions:
REMARK  status: ('A' for Active; 'I' for Inactive)
REMARK    1  A    between atoms: C_5  and  N_6
REMARK                            x       y       z     vdW  Elec       q    Type
REMARK                         _______ _______ _______ _____ _____    ______ ____
ROOT
ATOM      1  N   UNL     1       0.696   3.223  20.389  0.00  0.00    +0.000 N 
ATOM      2  C   UNL     1       1.800   3.642  19.654  0.00  0.00    +0.000 A 
ATOM      3  C   UNL     1       2.020   3.165  18.375  0.00  0.00    +0.000 A 
ATOM      4  C   UNL     1       3.126   3.633  17.659  0.00  0.00    +0.000 A 
ATOM      5  C   UNL     1       4.000   4.579  18.204  0.00  0.00    +0.000 A 
ATOM      6  C   UNL     1       3.667   4.976  19.503  0.00  0.00    +0.000 A 
ATOM      7  N   UNL     1       2.602   4.542  20.231  0.00  0.00    +0.000 NA
ATOM      8  H   UNL     1       0.661   2.214  20.463  0.00  0.00    +0.000 HD
ATOM      9  H   UNL     1       0.771   3.667  21.302  0.00  0.00    +0.000 HD
ENDROOT
BRANCH   5  10
ATOM     10  N   UNL     1       5.089   5.055  17.506  0.00  0.00    +0.000 N 
ATOM     11  C   UNL     1       6.318   5.507  18.184  0.00  0.00    +0.000 C 
ATOM     12  C   UNL     1       7.529   4.661  17.723  0.00  0.00    +0.000 C 
ATOM     13  N   UNL     1       7.700   4.613  16.257  0.00  0.00    +0.000 NA
ATOM     14  C   UNL     1       6.446   4.139  15.638  0.00  0.00    +0.000 C 
ATOM     15  C   UNL     1       5.214   4.979  16.040  0.00  0.00    +0.000 C 
ATOM     16  H   UNL     1       8.450   3.961  16.031  0.00  0.00    +0.000 HD
ENDBRANCH   5  10
TORSDOF 1
ENDMDL
MODEL 6
REMARK VINA RESULT:      -6.0      1.517      2.111
REMARK  Name = 
REMARK  1 active torsions:
REMARK  status: ('A' for Active; 'I' for Inactive)
REMARK    1  A    between atoms: C_5  and  N_6
REMARK                            x       y       z     vdW  Elec       q    Type
REMARK                         _______ _______ _______ _____ _____    ______ ____
ROOT
ATOM      1  N   UNL     1       0.673   3.395  20.148  0.00  0.00    +0.000 N 
ATOM      2  C   UNL     1       1.851   3.569  19.428  0.00  0.00    +0.000 A 
ATOM      3  C   UNL     1       1.825   4.055  18.135  0.00  0.00    +0.000 A 
ATOM      4  C   UNL     1       3.033   4.241  17.456  0.00  0.00    +0.000 A 
ATOM      5  C   UNL     1       4.260   3.959  18.063  0.00  0.00    +0.000 A 
ATOM      6  C   UNL     1       4.148   3.472  19.370  0.00  0.00    +0.000 A 
ATOM      7  N   UNL     1       2.992   3.276  20.060  0.00  0.00    +0.000 NA
ATOM      8  H   UNL     1       0.016   2.809  19.648  0.00  0.00    +0.000 HD
ATOM      9  H   UNL     1       0.938   2.990  21.043  0.00  0.00    +0.000 HD
ENDROOT
BRANCH   5  10
ATOM     10  N   UNL     1       5.459   4.145  17.410  0.00  0.00    +0.000 N 
ATOM     11  C   UNL     1       5.605   3.923  15.959  0.00  0.00    +0.000 C 
ATOM     12  C   UNL     1       6.052   5.228  15.257  0.00  0.00    +0.000 C 
ATOM     13  N   UNL     1       7.264   5.835  15.842  0.00  0.00    +0.000 NA
ATOM     14  C   UNL     1       7.053   6.047  17.287  0.00  0.00    +0.000 C 
ATOM     15  C   UNL     1       6.642   4.761  18.038  0.00  0.00    +0.000 C 
ATOM     16  H   UNL     1       7.435   6.735  15.395  0.00  0.00    +0.000 HD
ENDBRANCH   5  10
TORSDOF 1
ENDMDL
MODEL 7
REMARK VINA RESULT:      -6.0      2.000      2.000
REMARK  Name = 
REMARK  1 active torsions:
REMARK  status: ('A' for Active; 'I' for Inactive)
REMARK    1  A    between atoms: C_5  and  N_6
REMARK                            x       y       z     vdW  Elec       q    Type
REMARK                         _______ _______ _______ _____ _____    ______ ____
ROOT
ATOM      1  N   UNL     1       0.688   1.800  18.710  0.00  0.00    +0.000 N 
ATOM      2  C   UNL     1       1.736   2.631  18.326  0.00  0.00    +0.000 A 
ATOM      3  C   UNL     1       1.535   3.987  18.150  0.00  0.00    +0.000 A 
ATOM      4  C   UNL     1       2.620   4.792  17.791  0.00  0.00    +0.000 A 
ATOM      5  C   UNL     1       3.900   4.256  17.620  0.00  0.00    +0.000 A 
ATOM      6  C   UNL     1       3.967   2.874  17.824  0.00  0.00    +0.000 A 
ATOM      7  N   UNL     1       2.934   2.059  18.172  0.00  0.00    +0.000 NA
ATOM      8  H   UNL     1      -0.099   1.881  18.079  0.00  0.00    +0.000 HD
ATOM      9  H   UNL     1       1.062   0.854  18.730  0.00  0.00    +0.000 HD
ENDROOT
BRANCH   5  10
ATOM     10  N   UNL     1       4.980   5.038  17.275  0.00  0.00    +0.000 N 
ATOM     11  C   UNL     1       6.269   4.955  17.986  0.00  0.00    +0.000 C 
ATOM     12  C   UNL     1       7.398   4.546  17.009  0.00  0.00    +0.000 C 
ATOM     13  N   UNL     1       7.489   5.405  15.812  0.00  0.00    +0.000 NA
ATOM     14  C   UNL     1       6.178   5.436  15.134  0.00  0.00    +0.000 C 
ATOM     15  C   UNL     1       5.024   5.876  16.063  0.00  0.00    +0.000 C 
ATOM     16  H   UNL     1       8.183   5.014  15.175  0.00  0.00    +0.000 HD
ENDBRANCH   5  10
TORSDOF 1
ENDMDL
MODEL 8
REMARK VINA RESULT:      -6.0      1.788      5.780
REMARK  Name = 
REMARK  1 active torsions:
REMARK  status: ('A' for Active; 'I' for Inactive)
REMARK    1  A    between atoms: C_5  and  N_6
REMARK                            x       y       z     vdW  Elec       q    Type
REMARK                         _______ _______ _______ _____ _____    ______ ____
ROOT
ATOM      1  N   UNL     1       7.999   5.503  13.725  0.00  0.00    +0.000 N 
ATOM      2  C   UNL     1       7.055   5.176  14.693  0.00  0.00    +0.000 A 
ATOM      3  C   UNL     1       6.120   4.183  14.463  0.00  0.00    +0.000 A 
ATOM      4  C   UNL     1       5.207   3.865  15.472  0.00  0.00    +0.000 A 
ATOM      5  C   UNL     1       5.230   4.519  16.708  0.00  0.00    +0.000 A 
ATOM      6  C   UNL     1       6.219   5.502  16.811  0.00  0.00    +0.000 A 
ATOM      7  N   UNL     1       7.123   5.841  15.850  0.00  0.00    +0.000 NA
ATOM      8  H   UNL     1       7.559   5.739  12.844  0.00  0.00    +0.000 HD
ATOM      9  H   UNL     1       8.539   6.280  14.099  0.00  0.00    +0.000 HD
ENDROOT
BRANCH   5  10
ATOM     10  N   UNL     1       4.341   4.211  17.715  0.00  0.00    +0.000 N 
ATOM     11  C   UNL     1       2.917   3.936  17.448  0.00  0.00    +0.000 C 
ATOM     12  C   UNL     1       2.548   2.507  17.913  0.00  0.00    +0.000 C 
ATOM     13  N   UNL     1       2.904   2.227  19.318  0.00  0.00    +0.000 NA
ATOM     14  C   UNL     1       4.340   2.503  19.520  0.00  0.00    +0.000 C 
ATOM     15  C   UNL     1       4.748   3.934  19.104  0.00  0.00    +0.000 C 
ATOM     16  H   UNL     1       2.724   1.243  19.517  0.00  0.00    +0.000 HD
ENDBRANCH   5  10
TORSDOF 1
ENDMDL
MODEL 9
REMARK VINA RESULT:      -6.0      2.179      2.240
REMARK  Name = 
REMARK  1 active torsions:
REMARK  status: ('A' for Active; 'I' for Inactive)
REMARK    1  A    between atoms: C_5  and  N_6
REMARK                            x       y       z     vdW  Elec       q    Type
REMARK                         _______ _______ _______ _____ _____    ______ ____
ROOT
ATOM      1  N   UNL     1       1.120   1.744  18.965  0.00  0.00    +0.000 N 
ATOM      2  C   UNL     1       1.982   2.661  18.370  0.00  0.00    +0.000 A 
ATOM      3  C   UNL     1       1.651   4.002  18.304  0.00  0.00    +0.000 A 
ATOM      4  C   UNL     1       2.556   4.895  17.723  0.00  0.00    +0.000 A 
ATOM      5  C   UNL     1       3.787   4.462  17.222  0.00  0.00    +0.000 A 
ATOM      6  C   UNL     1       3.998   3.085  17.348  0.00  0.00    +0.000 A 
ATOM      7  N   UNL     1       3.140   2.186  17.904  0.00  0.00    +0.000 NA
ATOM      8  H   UNL     1       0.198   1.779  18.550  0.00  0.00    +0.000 HD
ATOM      9  H   UNL     1       1.552   0.829  18.854  0.00  0.00    +0.000 HD
ENDROOT
BRANCH   5  10
ATOM     10  N   UNL     1       4.693   5.332  16.654  0.00  0.00    +0.000 N 
ATOM     11  C   UNL     1       5.108   6.579  17.323  0.00  0.00    +0.000 C 
ATOM     12  C   UNL     1       6.636   6.574  17.571  0.00  0.00    +0.000 C 
ATOM     13  N   UNL     1       7.436   6.311  16.358  0.00  0.00    +0.000 NA
ATOM     14  C   UNL     1       6.987   5.046  15.745  0.00  0.00    +0.000 C 
ATOM     15  C   UNL     1       5.472   5.020  15.443  0.00  0.00    +0.000 C 
ATOM     16  H   UNL     1       8.417   6.224  16.620  0.00  0.00    +0.000 HD
ENDBRANCH   5  10
TORSDOF 1
ENDMDL
