MODEL 1
REMARK VINA RESULT:      -6.4      0.000      0.000
REMARK  Name = 
REMARK  6 active torsions:
REMARK  status: ('A' for Active; 'I' for Inactive)
REMARK    1  A    between atoms: C_1  and  N_2
REMARK    2  A    between atoms: N_2  and  C_3
REMARK    3  A    between atoms: N_2  and  C_10
REMARK    4  A    between atoms: C_3  and  C_4
REMARK    5  A    between atoms: C_10  and  C_11
REMARK    6  A    between atoms: C_11  and  O_12
REMARK                            x       y       z     vdW  Elec       q    Type
REMARK                         _______ _______ _______ _____ _____    ______ ____
ROOT
ATOM      1  C   UNL     1       3.440   7.424  17.675  0.00  0.00    +0.000 C 
ATOM      2  N   UNL     1       3.767   6.089  18.204  0.00  0.00    +0.000 NA
ENDROOT
BRANCH   2   3
ATOM      3  C   UNL     1       5.205   5.677  17.927  0.00  0.00    +0.000 C 
ATOM      4  C   UNL     1       6.052   6.924  17.526  0.00  0.00    +0.000 C 
ATOM      5  C   UNL     1       7.408   6.554  16.929  0.00  0.00    +0.000 C 
ATOM      6  O   UNL     1       7.257   5.708  15.796  0.00  0.00    +0.000 OA
ATOM      7  C   UNL     1       6.607   4.485  16.113  0.00  0.00    +0.000 C 
ATOM      8  C   UNL     1       5.218   4.728  16.687  0.00  0.00    +0.000 C 
BRANCH   3   9
ATOM      9  C   UNL     1       5.883   4.928  19.130  0.00  0.00    +0.000 C 
BRANCH   9  10
ATOM     10  O   UNL     1       5.592   3.537  19.186  0.00  0.00    +0.000 OA
ATOM     11  H   UNL     1       5.029   3.372  19.959  0.00  0.00    +0.000 HD
ENDBRANCH   9  10
ENDBRANCH   3   9
ENDBRANCH   2   3
BRANCH   2  12
ATOM     12  C   UNL     1       2.754   5.104  17.757  0.00  0.00    +0.000 C 
BRANCH  12  13
ATOM     13  C   UNL     1       2.195   4.212  18.848  0.00  0.00    +0.000 A 
ATOM     14  S   UNL     1       2.047   2.518  18.609  0.00  0.00    +0.000 S 
ATOM     15  C   UNL     1       1.391   2.289  20.174  0.00  0.00    +0.000 A 
ATOM     16  C   UNL     1       1.248   3.475  20.852  0.00  0.00    +0.000 A 
ATOM     17  C   UNL     1       1.703   4.585  20.085  0.00  0.00    +0.000 A 
ATOM     18 CL   UNL     1       1.615   6.183  20.698  0.00  0.00    +0.000 Cl
ENDBRANCH  12  13
ENDBRANCH   2  12
TORSDOF 5
ENDMDL
MODEL 2
REMARK VINA RESULT:      -6.1      1.963      2.151
REMARK  Name = 
REMARK  6 active torsions:
REMARK  status: ('A' for Active; 'I' for Inactive)
REMARK    1  A    between atoms: C_1  and  N_2
REMARK    2  A    between atoms: N_2  and  C_3
REMARK    3  A    between atoms: N_2  and  C_10
REMARK    4  A    between atoms: C_3  and  C_4
REMARK    5  A    between atoms: C_10  and  C_11
REMARK    6  A    between atoms: C_11  and  O_12
REMARK                            x       y       z     vdW  Elec       q    Type
REMARK                         _______ _______ _______ _____ _____    ______ ____
ROOT
ATOM      1  C   UNL     1       4.265   5.584  19.461  0.00  0.00    +0.000 C 
ATOM      2  N   UNL     1       5.150   4.533  18.932  0.00  0.00    +0.000 NA
ENDROOT
BRANCH   2   3
ATOM      3  C   UNL     1       5.785   4.907  17.602  0.00  0.00    +0.000 C 
ATOM      4  C   UNL     1       5.040   6.124  16.975  0.00  0.00    +0.000 C 
ATOM      5  C   UNL     1       5.405   6.355  15.510  0.00  0.00    +0.000 C 
ATOM      6  O   UNL     1       5.149   5.196  14.728  0.00  0.00    +0.000 OA
ATOM      7  C   UNL     1       5.900   4.070  15.160  0.00  0.00    +0.000 C 
ATOM      8  C   UNL     1       5.589   3.718  16.608  0.00  0.00    +0.000 C 
BRANCH   3   9
ATOM      9  C   UNL     1       7.324   5.212  17.708  0.00  0.00    +0.000 C 
BRANCH   9  10
ATOM     10  O   UNL     1       8.147   4.052  17.704  0.00  0.00    +0.000 OA
ATOM     11  H   UNL     1       7.675   3.343  17.241  0.00  0.00    +0.000 HD
ENDBRANCH   9  10
ENDBRANCH   3   9
ENDBRANCH   2   3
BRANCH   2  12
ATOM     12  C   UNL     1       4.444   3.230  18.927  0.00  0.00    +0.000 C 
BRANCH  12  13
ATOM     13  C   UNL     1       3.099   3.221  19.627  0.00  0.00    +0.000 A 
ATOM     14  S   UNL     1       2.942   2.602  21.221  0.00  0.00    +0.000 S 
ATOM     15  C   UNL     1       1.261   2.931  21.251  0.00  0.00    +0.000 A 
ATOM     16  C   UNL     1       0.817   3.461  20.065  0.00  0.00    +0.000 A 
ATOM     17  C   UNL     1       1.874   3.620  19.125  0.00  0.00    +0.000 A 
ATOM     18 CL   UNL     1       1.580   4.245  17.556  0.00  0.00    +0.000 Cl
ENDBRANCH  12  13
ENDBRANCH   2  12
TORSDOF 5
ENDMDL
MODEL 3
REMARK VINA RESULT:      -6.0      2.981      5.721
REMARK  Name = 
REMARK  6 active torsions:
REMARK  status: ('A' for Active; 'I' for Inactive)
REMARK    1  A    between atoms: C_1  and  N_2
REMARK    2  A    between atoms: N_2  and  C_3
REMARK    3  A    between atoms: N_2  and  C_10
REMARK    4  A    between atoms: C_3  and  C_4
REMARK    5  A    between atoms: C_10  and  C_11
REMARK    6  A    between atoms: C_11  and  O_12
REMARK                            x       y       z     vdW  Elec       q    Type
REMARK                         _______ _______ _______ _____ _____    ______ ____
ROOT
ATOM      1  C   UNL     1       3.854   5.882  19.131  0.00  0.00    +0.000 C 
ATOM      2  N   UNL     1       4.004   4.594  18.434  0.00  0.00    +0.000 NA
ENDROOT
BRANCH   2   3
ATOM      3  C   UNL     1       3.153   3.488  19.039  0.00  0.00    +0.000 C 
ATOM      4  C   UNL     1       1.912   3.212  18.136  0.00  0.00    +0.000 C 
ATOM      5  C   UNL     1       0.853   2.354  18.826  0.00  0.00    +0.000 C 
ATOM      6  O   UNL     1       0.422   2.950  20.043  0.00  0.00    +0.000 OA
ATOM      7  C   UNL     1       1.482   3.112  20.975  0.00  0.00    +0.000 C 
ATOM      8  C   UNL     1       2.590   3.989  20.407  0.00  0.00    +0.000 C 
BRANCH   3   9
ATOM      9  C   UNL     1       3.946   2.154  19.290  0.00  0.00    +0.000 C 
BRANCH   9  10
ATOM     10  O   UNL     1       3.951   1.265  18.180  0.00  0.00    +0.000 OA
ATOM     11  H   UNL     1       3.823   1.785  17.371  0.00  0.00    +0.000 HD
ENDBRANCH   9  10
ENDBRANCH   3   9
ENDBRANCH   2   3
BRANCH   2  12
ATOM     12  C   UNL     1       5.441   4.253  18.301  0.00  0.00    +0.000 C 
BRANCH  12  13
ATOM     13  C   UNL     1       6.373   5.438  18.140  0.00  0.00    +0.000 A 
ATOM     14  S   UNL     1       7.587   5.768  19.309  0.00  0.00    +0.000 S 
ATOM     15  C   UNL     1       8.133   7.144  18.448  0.00  0.00    +0.000 A 
ATOM     16  C   UNL     1       7.387   7.375  17.318  0.00  0.00    +0.000 A 
ATOM     17  C   UNL     1       6.366   6.398  17.145  0.00  0.00    +0.000 A 
ATOM     18 CL   UNL     1       5.283   6.472  15.819  0.00  0.00    +0.000 Cl
ENDBRANCH  12  13
ENDBRANCH   2  12
TORSDOF 5
ENDMDL
MODEL 4
REMARK VINA RESULT:      -6.0      2.808      5.462
REMARK  Name = 
REMARK  6 active torsions:
REMARK  status: ('A' for Active; 'I' for Inactive)
REMARK    1  A    between atoms: C_1  and  N_2
REMARK    2  A    between atoms: N_2  and  C_3
REMARK    3  A    between atoms: N_2  and  C_10
REMARK    4  A    between atoms: C_3  and  C_4
REMARK    5  A    between atoms: C_10  and  C_11
REMARK    6  A    between atoms: C_11  and  O_12
REMARK                            x       y       z     vdW  Elec       q    Type
REMARK                         _______ _______ _______ _____ _____    ______ ____
ROOT
ATOM      1  C   UNL     1       2.520   6.231  18.574  0.00  0.00    +0.000 C 
ATOM      2  N   UNL     1       3.253   4.969  18.384  0.00  0.00    +0.000 NA
ENDROOT
BRANCH   2   3
ATOM      3  C   UNL     1       2.694   3.827  19.218  0.00  0.00    +0.000 C 
ATOM      4  C   UNL     1       1.826   4.389  20.384  0.00  0.00    +0.000 C 
ATOM      5  C   UNL     1       1.497   3.338  21.442  0.00  0.00    +0.000 C 
ATOM      6  O   UNL     1       2.680   2.759  21.977  0.00  0.00    +0.000 OA
ATOM      7  C   UNL     1       3.463   2.107  20.987  0.00  0.00    +0.000 C 
ATOM      8  C   UNL     1       3.886   3.073  19.889  0.00  0.00    +0.000 C 
BRANCH   3   9
ATOM      9  C   UNL     1       1.863   2.788  18.379  0.00  0.00    +0.000 C 
BRANCH   9  10
ATOM     10  O   UNL     1       2.650   1.774  17.768  0.00  0.00    +0.000 OA
ATOM     11  H   UNL     1       2.650   0.995  18.347  0.00  0.00    +0.000 HD
ENDBRANCH   9  10
ENDBRANCH   3   9
ENDBRANCH   2   3
BRANCH   2  12
ATOM     12  C   UNL     1       4.707   5.196  18.558  0.00  0.00    +0.000 C 
BRANCH  12  13
ATOM     13  C   UNL     1       5.544   5.012  17.307  0.00  0.00    +0.000 A 
ATOM     14  S   UNL     1       5.062   3.910  16.081  0.00  0.00    +0.000 S 
ATOM     15  C   UNL     1       6.433   4.278  15.123  0.00  0.00    +0.000 A 
ATOM     16  C   UNL     1       7.262   5.186  15.734  0.00  0.00    +0.000 A 
ATOM     17  C   UNL     1       6.755   5.602  16.997  0.00  0.00    +0.000 A 
ATOM     18 CL   UNL     1       7.614   6.720  17.973  0.00  0.00    +0.000 Cl
ENDBRANCH  12  13
ENDBRANCH   2  12
TORSDOF 5
ENDMDL
MODEL 5
REMARK VINA RESULT:      -5.9      2.083      2.806
REMARK  Name = 
REMARK  6 active torsions:
REMARK  status: ('A' for Active; 'I' for Inactive)
REMARK    1  A    between atoms: C_1  and  N_2
REMARK    2  A    between atoms: N_2  and  C_3
REMARK    3  A    between atoms: N_2  and  C_10
REMARK    4  A    between atoms: C_3  and  C_4
REMARK    5  A    between atoms: C_10  and  C_11
REMARK    6  A    between atoms: C_11  and  O_12
REMARK                            x       y       z     vdW  Elec       q    Type
REMARK                         _______ _______ _______ _____ _____    ______ ____
ROOT
ATOM      1  C   UNL     1       3.972   2.574  17.764  0.00  0.00    +0.000 C 
ATOM      2  N   UNL     1       3.752   3.780  16.948  0.00  0.00    +0.000 NA
ENDROOT
BRANCH   2   3
ATOM      3  C   UNL     1       5.005   4.627  16.791  0.00  0.00    +0.000 C 
ATOM      4  C   UNL     1       5.803   4.175  15.530  0.00  0.00    +0.000 C 
ATOM      5  C   UNL     1       7.216   4.751  15.483  0.00  0.00    +0.000 C 
ATOM      6  O   UNL     1       7.952   4.406  16.650  0.00  0.00    +0.000 OA
ATOM      7  C   UNL     1       7.351   4.903  17.838  0.00  0.00    +0.000 C 
ATOM      8  C   UNL     1       5.939   4.362  18.014  0.00  0.00    +0.000 C 
BRANCH   3   9
ATOM      9  C   UNL     1       4.712   6.170  16.719  0.00  0.00    +0.000 C 
BRANCH   9  10
ATOM     10  O   UNL     1       5.012   6.760  15.461  0.00  0.00    +0.000 OA
ATOM     11  H   UNL     1       4.712   6.158  14.761  0.00  0.00    +0.000 HD
ENDBRANCH   9  10
ENDBRANCH   3   9
ENDBRANCH   2   3
BRANCH   2  12
ATOM     12  C   UNL     1       2.572   4.523  17.450  0.00  0.00    +0.000 C 
BRANCH  12  13
ATOM     13  C   UNL     1       2.249   4.310  18.915  0.00  0.00    +0.000 A 
ATOM     14  S   UNL     1       3.015   5.251  20.131  0.00  0.00    +0.000 S 
ATOM     15  C   UNL     1       2.167   4.443  21.381  0.00  0.00    +0.000 A 
ATOM     16  C   UNL     1       1.350   3.453  20.894  0.00  0.00    +0.000 A 
ATOM     17  C   UNL     1       1.403   3.369  19.474  0.00  0.00    +0.000 A 
ATOM     18 CL   UNL     1       0.488   2.198  18.618  0.00  0.00    +0.000 Cl
ENDBRANCH  12  13
ENDBRANCH   2  12
TORSDOF 5
ENDMDL
MODEL 6
REMARK VINA RESULT:      -5.9      1.874      2.572
REMARK  Name = 
REMARK  6 active torsions:
REMARK  status: ('A' for Active; 'I' for Inactive)
REMARK    1  A    between atoms: C_1  and  N_2
REMARK    2  A    between atoms: N_2  and  C_3
REMARK    3  A    between atoms: N_2  and  C_10
REMARK    4  A    between atoms: C_3  and  C_4
REMARK    5  A    between atoms: C_10  and  C_11
REMARK    6  A    between atoms: C_11  and  O_12
REMARK                            x       y       z     vdW  Elec       q    Type
REMARK                         _______ _______ _______ _____ _____    ______ ____
ROOT
ATOM      1  C   UNL     1       2.986   6.736  18.276  0.00  0.00    +0.000 C 
ATOM      2  N   UNL     1       3.893   5.606  18.532  0.00  0.00    +0.000 NA
ENDROOT
BRANCH   2   3
ATOM      3  C   UNL     1       5.214   5.725  17.789  0.00  0.00    +0.000 C 
ATOM      4  C   UNL     1       5.435   4.474  16.885  0.00  0.00    +0.000 C 
ATOM      5  C   UNL     1       6.865   4.365  16.360  0.00  0.00    +0.000 C 
ATOM      6  O   UNL     1       7.805   4.342  17.427  0.00  0.00    +0.000 OA
ATOM      7  C   UNL     1       7.753   5.518  18.223  0.00  0.00    +0.000 C 
ATOM      8  C   UNL     1       6.373   5.714  18.835  0.00  0.00    +0.000 C 
BRANCH   3   9
ATOM      9  C   UNL     1       5.334   7.038  16.933  0.00  0.00    +0.000 C 
BRANCH   9  10
ATOM     10  O   UNL     1       5.129   6.843  15.540  0.00  0.00    +0.000 OA
ATOM     11  H   UNL     1       4.986   7.710  15.127  0.00  0.00    +0.000 HD
ENDBRANCH   9  10
ENDBRANCH   3   9
ENDBRANCH   2   3
BRANCH   2  12
ATOM     12  C   UNL     1       3.181   4.324  18.309  0.00  0.00    +0.000 C 
BRANCH  12  13
ATOM     13  C   UNL     1       2.637   3.662  19.560  0.00  0.00    +0.000 A 
ATOM     14  S   UNL     1       1.079   4.061  20.160  0.00  0.00    +0.000 S 
ATOM     15  C   UNL     1       1.234   2.971  21.472  0.00  0.00    +0.000 A 
ATOM     16  C   UNL     1       2.457   2.346  21.481  0.00  0.00    +0.000 A 
ATOM     17  C   UNL     1       3.270   2.750  20.385  0.00  0.00    +0.000 A 
ATOM     18 CL   UNL     1       4.854   2.129  20.178  0.00  0.00    +0.000 Cl
ENDBRANCH  12  13
ENDBRANCH   2  12
TORSDOF 5
ENDMDL
MODEL 7
REMARK VINA RESULT:      -5.9      2.654      5.541
REMARK  Name = 
REMARK  6 active torsions:
REMARK  status: ('A' for Active; 'I' for Inactive)
REMARK    1  A    between atoms: C_1  and  N_2
REMARK    2  A    between atoms: N_2  and  C_3
REMARK    3  A    between atoms: N_2  and  C_10
REMARK    4  A    between atoms: C_3  and  C_4
REMARK    5  A    between atoms: C_10  and  C_11
REMARK    6  A    between atoms: C_11  and  O_12
REMARK                            x       y       z     vdW  Elec       q    Type
REMARK                         _______ _______ _______ _____ _____    ______ ____
ROOT
ATOM      1  C   UNL     1       2.767   6.389  18.825  0.00  0.00    +0.000 C 
ATOM      2  N   UNL     1       3.522   5.167  18.506  0.00  0.00    +0.000 NA
ENDROOT
BRANCH   2   3
ATOM      3  C   UNL     1       3.144   3.988  19.388  0.00  0.00    +0.000 C 
ATOM      4  C   UNL     1       1.980   3.181  18.736  0.00  0.00    +0.000 C 
ATOM      5  C   UNL     1       1.335   2.185  19.697  0.00  0.00    +0.000 C 
ATOM      6  O   UNL     1       0.854   2.836  20.866  0.00  0.00    +0.000 OA
ATOM      7  C   UNL     1       1.888   3.487  21.591  0.00  0.00    +0.000 C 
ATOM      8  C   UNL     1       2.586   4.538  20.739  0.00  0.00    +0.000 C 
BRANCH   3   9
ATOM      9  C   UNL     1       4.351   3.032  19.706  0.00  0.00    +0.000 C 
BRANCH   9  10
ATOM     10  O   UNL     1       4.447   1.909  18.839  0.00  0.00    +0.000 OA
ATOM     11  H   UNL     1       3.863   2.059  18.079  0.00  0.00    +0.000 HD
ENDBRANCH   9  10
ENDBRANCH   3   9
ENDBRANCH   2   3
BRANCH   2  12
ATOM     12  C   UNL     1       4.974   5.462  18.471  0.00  0.00    +0.000 C 
BRANCH  12  13
ATOM     13  C   UNL     1       5.654   5.209  17.140  0.00  0.00    +0.000 A 
ATOM     14  S   UNL     1       5.095   3.971  16.089  0.00  0.00    +0.000 S 
ATOM     15  C   UNL     1       6.302   4.325  14.926  0.00  0.00    +0.000 A 
ATOM     16  C   UNL     1       7.138   5.333  15.340  0.00  0.00    +0.000 A 
ATOM     17  C   UNL     1       6.771   5.837  16.620  0.00  0.00    +0.000 A 
ATOM     18 CL   UNL     1       7.669   7.088  17.372  0.00  0.00    +0.000 Cl
ENDBRANCH  12  13
ENDBRANCH   2  12
TORSDOF 5
ENDMDL
MODEL 8
REMARK VINA RESULT:      -5.8      2.834      5.574
REMARK  Name = 
REMARK  6 active torsions:
REMARK  status: ('A' for Active; 'I' for Inactive)
REMARK    1  A    between atoms: C_1  and  N_2
REMARK    2  A    between atoms: N_2  and  C_3
REMARK    3  A    between atoms: N_2  and  C_10
REMARK    4  A    between atoms: C_3  and  C_4
REMARK    5  A    between atoms: C_10  and  C_11
REMARK    6  A    between atoms: C_11  and  O_12
REMARK                            x       y       z     vdW  Elec       q    Type
REMARK                         _______ _______ _______ _____ _____    ______ ____
ROOT
ATOM      1  C   UNL     1       2.718   2.077  17.186  0.00  0.00    +0.000 C 
ATOM      2  N   UNL     1       3.621   2.954  17.949  0.00  0.00    +0.000 NA
ENDROOT
BRANCH   2   3
ATOM      3  C   UNL     1       3.236   3.070  19.416  0.00  0.00    +0.000 C 
ATOM      4  C   UNL     1       1.905   2.303  19.683  0.00  0.00    +0.000 C 
ATOM      5  C   UNL     1       1.290   2.635  21.041  0.00  0.00    +0.000 C 
ATOM      6  O   UNL     1       1.060   4.032  21.174  0.00  0.00    +0.000 OA
ATOM      7  C   UNL     1       2.256   4.793  21.074  0.00  0.00    +0.000 C 
ATOM      8  C   UNL     1       2.944   4.571  19.734  0.00  0.00    +0.000 C 
BRANCH   3   9
ATOM      9  C   UNL     1       4.356   2.567  20.398  0.00  0.00    +0.000 C 
BRANCH   9  10
ATOM     10  O   UNL     1       5.143   1.500  19.883  0.00  0.00    +0.000 OA
ATOM     11  H   UNL     1       4.678   0.666  20.054  0.00  0.00    +0.000 HD
ENDBRANCH   9  10
ENDBRANCH   3   9
ENDBRANCH   2   3
BRANCH   2  12
ATOM     12  C   UNL     1       3.773   4.254  17.253  0.00  0.00    +0.000 C 
BRANCH  12  13
ATOM     13  C   UNL     1       5.158   4.534  16.703  0.00  0.00    +0.000 A 
ATOM     14  S   UNL     1       5.513   4.277  15.042  0.00  0.00    +0.000 S 
ATOM     15  C   UNL     1       7.136   4.784  15.245  0.00  0.00    +0.000 A 
ATOM     16  C   UNL     1       7.418   5.102  16.551  0.00  0.00    +0.000 A 
ATOM     17  C   UNL     1       6.281   4.950  17.393  0.00  0.00    +0.000 A 
ATOM     18 CL   UNL     1       6.374   5.266  19.076  0.00  0.00    +0.000 Cl
ENDBRANCH  12  13
ENDBRANCH   2  12
TORSDOF 5
ENDMDL
MODEL 9
REMARK VINA RESULT:      -5.8      1.875      2.362
REMARK  Name = 
REMARK  6 active torsions:
REMARK  status: ('A' for Active; 'I' for Inactive)
REMARK    1  A    between atoms: C_1  and  N_2
REMARK    2  A    between atoms: N_2  and  C_3
REMARK    3  A    between atoms: N_2  and  C_10
REMARK    4  A    between atoms: C_3  and  C_4
REMARK    5  A    between atoms: C_10  and  C_11
REMARK    6  A    between atoms: C_11  and  O_12
REMARK                            x       y       z     vdW  Elec       q    Type
REMARK                         _______ _______ _______ _____ _____    ______ ____
ROOT
ATOM      1  C   UNL     1       3.326   7.374  17.779  0.00  0.00    +0.000 C 
ATOM      2  N   UNL     1       3.856   6.087  18.257  0.00  0.00    +0.000 NA
ENDROOT
BRANCH   2   3
ATOM      3  C   UNL     1       5.306   5.858  17.862  0.00  0.00    +0.000 C 
ATOM      4  C   UNL     1       6.122   5.347  19.089  0.00  0.00    +0.000 C 
ATOM      5  C   UNL     1       7.631   5.400  18.863  0.00  0.00    +0.000 C 
ATOM      6  O   UNL     1       8.057   6.716  18.535  0.00  0.00    +0.000 OA
ATOM      7  C   UNL     1       7.452   7.203  17.345  0.00  0.00    +0.000 C 
ATOM      8  C   UNL     1       5.935   7.232  17.466  0.00  0.00    +0.000 C 
BRANCH   3   9
ATOM      9  C   UNL     1       5.476   4.870  16.651  0.00  0.00    +0.000 C 
BRANCH   9  10
ATOM     10  O   UNL     1       5.838   3.548  17.028  0.00  0.00    +0.000 OA
ATOM     11  H   UNL     1       6.804   3.470  16.983  0.00  0.00    +0.000 HD
ENDBRANCH   9  10
ENDBRANCH   3   9
ENDBRANCH   2   3
BRANCH   2  12
ATOM     12  C   UNL     1       2.939   4.987  17.874  0.00  0.00    +0.000 C 
BRANCH  12  13
ATOM     13  C   UNL     1       2.412   4.155  19.027  0.00  0.00    +0.000 A 
ATOM     14  S   UNL     1       1.699   4.903  20.399  0.00  0.00    +0.000 S 
ATOM     15  C   UNL     1       1.408   3.392  21.151  0.00  0.00    +0.000 A 
ATOM     16  C   UNL     1       1.876   2.343  20.400  0.00  0.00    +0.000 A 
ATOM     17  C   UNL     1       2.463   2.781  19.180  0.00  0.00    +0.000 A 
ATOM     18 CL   UNL     1       3.142   1.666  18.070  0.00  0.00    +0.000 Cl
ENDBRANCH  12  13
ENDBRANCH   2  12
TORSDOF 5
ENDMDL
