MODEL 1
REMARK VINA RESULT:      -7.6      0.000      0.000
REMARK  Name = 
REMARK  6 active torsions:
REMARK  status: ('A' for Active; 'I' for Inactive)
REMARK    1  A    between atoms: C_1  and  C_2
REMARK    2  A    between atoms: C_4  and  O_5
REMARK    3  A    between atoms: O_5  and  C_6
REMARK    4  A    between atoms: C_6  and  C_7
REMARK    5  A    between atoms: N_9  and  C_10
REMARK    6  A    between atoms: C_10  and  C_11
REMARK                            x       y       z     vdW  Elec       q    Type
REMARK                         _______ _______ _______ _____ _____    ______ ____
ROOT
ATOM      1  C   UNL     1       5.641   6.313  17.723  0.00  0.00    +0.000 C 
ATOM      2  O   UNL     1       5.163   7.163  16.976  0.00  0.00    +0.000 OA
ATOM      3  N   UNL     1       4.908   5.650  18.687  0.00  0.00    +0.000 N 
ATOM      4  H   UNL     1       5.317   4.854  19.159  0.00  0.00    +0.000 HD
ENDROOT
BRANCH   1   5
ATOM      5  C   UNL     1       7.118   5.932  17.691  0.00  0.00    +0.000 C 
BRANCH   5   6
ATOM      6  O   UNL     1       7.284   4.631  17.142  0.00  0.00    +0.000 OA
BRANCH   6  10
ATOM      7  C   UNL     1       5.683   3.568  12.576  0.00  0.00    +0.000 C 
ATOM      8  C   UNL     1       6.289   4.041  13.832  0.00  0.00    +0.000 A 
ATOM      9  C   UNL     1       6.172   3.690  15.156  0.00  0.00    +0.000 A 
ATOM     10  C   UNL     1       7.031   4.586  15.813  0.00  0.00    +0.000 A 
ATOM     11  N   UNL     1       7.658   5.406  14.968  0.00  0.00    +0.000 NA
ATOM     12  O   UNL     1       7.183   5.064  13.714  0.00  0.00    +0.000 OA
ENDBRANCH   6  10
ENDBRANCH   5   6
ENDBRANCH   1   5
BRANCH   3  13
ATOM     13  C   UNL     1       3.510   5.928  18.918  0.00  0.00    +0.000 C 
BRANCH  13  14
ATOM     14  C   UNL     1       2.674   4.682  18.932  0.00  0.00    +0.000 A 
ATOM     15  C   UNL     1       2.881   3.668  17.987  0.00  0.00    +0.000 A 
ATOM     16  C   UNL     1       2.089   2.517  17.996  0.00  0.00    +0.000 A 
ATOM     17  C   UNL     1       1.088   2.362  18.954  0.00  0.00    +0.000 A 
ATOM     18  C   UNL     1       0.882   3.358  19.909  0.00  0.00    +0.000 A 
ATOM     19  C   UNL     1       1.674   4.503  19.893  0.00  0.00    +0.000 A 
ATOM     20  F   UNL     1       1.461   5.449  20.819  0.00  0.00    +0.000 F 
ENDBRANCH  13  14
ENDBRANCH   3  13
TORSDOF 5
ENDMDL
MODEL 2
REMARK VINA RESULT:      -7.6      1.109      1.513
REMARK  Name = 
REMARK  6 active torsions:
REMARK  status: ('A' for Active; 'I' for Inactive)
REMARK    1  A    between atoms: C_1  and  C_2
REMARK    2  A    between atoms: C_4  and  O_5
REMARK    3  A    between atoms: O_5  and  C_6
REMARK    4  A    between atoms: C_6  and  C_7
REMARK    5  A    between atoms: N_9  and  C_10
REMARK    6  A    between atoms: C_10  and  C_11
REMARK                            x       y       z     vdW  Elec       q    Type
REMARK                         _______ _______ _______ _____ _____    ______ ____
ROOT
ATOM      1  C   UNL     1       4.994   6.353  18.001  0.00  0.00    +0.000 C 
ATOM      2  O   UNL     1       4.386   7.072  17.212  0.00  0.00    +0.000 OA
ATOM      3  N   UNL     1       4.407   5.782  19.113  0.00  0.00    +0.000 N 
ATOM      4  H   UNL     1       4.914   5.076  19.632  0.00  0.00    +0.000 HD
ENDROOT
BRANCH   1   5
ATOM      5  C   UNL     1       6.482   6.053  17.858  0.00  0.00    +0.000 C 
BRANCH   5   6
ATOM      6  O   UNL     1       6.677   4.730  17.375  0.00  0.00    +0.000 OA
BRANCH   6  10
ATOM      7  C   UNL     1       6.040   3.560  12.603  0.00  0.00    +0.000 C 
ATOM      8  C   UNL     1       6.372   4.068  13.946  0.00  0.00    +0.000 A 
ATOM      9  C   UNL     1       6.008   3.729  15.227  0.00  0.00    +0.000 A 
ATOM     10  C   UNL     1       6.693   4.660  16.024  0.00  0.00    +0.000 A 
ATOM     11  N   UNL     1       7.449   5.491  15.303  0.00  0.00    +0.000 NA
ATOM     12  O   UNL     1       7.240   5.118  13.986  0.00  0.00    +0.000 OA
ENDBRANCH   6  10
ENDBRANCH   5   6
ENDBRANCH   1   5
BRANCH   3  13
ATOM     13  C   UNL     1       3.024   6.010  19.458  0.00  0.00    +0.000 C 
BRANCH  13  14
ATOM     14  C   UNL     1       2.253   4.731  19.608  0.00  0.00    +0.000 A 
ATOM     15  C   UNL     1       1.907   4.246  20.877  0.00  0.00    +0.000 A 
ATOM     16  C   UNL     1       1.203   3.048  21.011  0.00  0.00    +0.000 A 
ATOM     17  C   UNL     1       0.826   2.325  19.880  0.00  0.00    +0.000 A 
ATOM     18  C   UNL     1       1.151   2.805  18.611  0.00  0.00    +0.000 A 
ATOM     19  C   UNL     1       1.855   3.999  18.485  0.00  0.00    +0.000 A 
ATOM     20  F   UNL     1       2.158   4.445  17.257  0.00  0.00    +0.000 F 
ENDBRANCH  13  14
ENDBRANCH   3  13
TORSDOF 5
ENDMDL
MODEL 3
REMARK VINA RESULT:      -7.5      1.032      1.170
REMARK  Name = 
REMARK  6 active torsions:
REMARK  status: ('A' for Active; 'I' for Inactive)
REMARK    1  A    between atoms: C_1  and  C_2
REMARK    2  A    between atoms: C_4  and  O_5
REMARK    3  A    between atoms: O_5  and  C_6
REMARK    4  A    between atoms: C_6  and  C_7
REMARK    5  A    between atoms: N_9  and  C_10
REMARK    6  A    between atoms: C_10  and  C_11
REMARK                            x       y       z     vdW  Elec       q    Type
REMARK                         _______ _______ _______ _____ _____    ______ ____
ROOT
ATOM      1  C   UNL     1       5.747   4.995  18.382  0.00  0.00    +0.000 C 
ATOM      2  O   UNL     1       5.834   4.596  19.540  0.00  0.00    +0.000 OA
ATOM      3  N   UNL     1       4.680   5.736  17.913  0.00  0.00    +0.000 N 
ATOM      4  H   UNL     1       4.741   6.168  17.000  0.00  0.00    +0.000 HD
ENDROOT
BRANCH   1   5
ATOM      5  C   UNL     1       6.794   4.670  17.322  0.00  0.00    +0.000 C 
BRANCH   5   6
ATOM      6  O   UNL     1       6.785   5.656  16.297  0.00  0.00    +0.000 OA
BRANCH   6  10
ATOM      7  C   UNL     1       5.831   3.071  12.181  0.00  0.00    +0.000 C 
ATOM      8  C   UNL     1       6.288   3.929  13.287  0.00  0.00    +0.000 A 
ATOM      9  C   UNL     1       5.879   4.139  14.582  0.00  0.00    +0.000 A 
ATOM     10  C   UNL     1       6.764   5.122  15.054  0.00  0.00    +0.000 A 
ATOM     11  N   UNL     1       7.672   5.473  14.141  0.00  0.00    +0.000 NA
ATOM     12  O   UNL     1       7.365   4.721  13.020  0.00  0.00    +0.000 OA
ENDBRANCH   6  10
ENDBRANCH   5   6
ENDBRANCH   1   5
BRANCH   3  13
ATOM     13  C   UNL     1       3.555   6.081  18.749  0.00  0.00    +0.000 C 
BRANCH  13  14
ATOM     14  C   UNL     1       2.614   4.928  18.947  0.00  0.00    +0.000 A 
ATOM     15  C   UNL     1       2.467   3.944  17.958  0.00  0.00    +0.000 A 
ATOM     16  C   UNL     1       1.579   2.882  18.141  0.00  0.00    +0.000 A 
ATOM     17  C   UNL     1       0.835   2.784  19.317  0.00  0.00    +0.000 A 
ATOM     18  C   UNL     1       0.984   3.748  20.313  0.00  0.00    +0.000 A 
ATOM     19  C   UNL     1       1.869   4.806  20.123  0.00  0.00    +0.000 A 
ATOM     20  F   UNL     1       1.999   5.723  21.093  0.00  0.00    +0.000 F 
ENDBRANCH  13  14
ENDBRANCH   3  13
TORSDOF 5
ENDMDL
MODEL 4
REMARK VINA RESULT:      -7.5      1.749      2.110
REMARK  Name = 
REMARK  6 active torsions:
REMARK  status: ('A' for Active; 'I' for Inactive)
REMARK    1  A    between atoms: C_1  and  C_2
REMARK    2  A    between atoms: C_4  and  O_5
REMARK    3  A    between atoms: O_5  and  C_6
REMARK    4  A    between atoms: C_6  and  C_7
REMARK    5  A    between atoms: N_9  and  C_10
REMARK    6  A    between atoms: C_10  and  C_11
REMARK                            x       y       z     vdW  Elec       q    Type
REMARK                         _______ _______ _______ _____ _____    ______ ____
ROOT
ATOM      1  C   UNL     1       6.167   5.333  17.895  0.00  0.00    +0.000 C 
ATOM      2  O   UNL     1       6.980   5.490  18.803  0.00  0.00    +0.000 OA
ATOM      3  N   UNL     1       5.089   4.474  17.982  0.00  0.00    +0.000 N 
ATOM      4  H   UNL     1       4.372   4.507  17.269  0.00  0.00    +0.000 HD
ENDROOT
BRANCH   1   5
ATOM      5  C   UNL     1       6.292   6.042  16.551  0.00  0.00    +0.000 C 
BRANCH   5   6
ATOM      6  O   UNL     1       7.457   5.602  15.864  0.00  0.00    +0.000 OA
BRANCH   6  10
ATOM      7  C   UNL     1       5.702   2.998  12.033  0.00  0.00    +0.000 C 
ATOM      8  C   UNL     1       6.366   3.866  13.021  0.00  0.00    +0.000 A 
ATOM      9  C   UNL     1       6.238   4.066  14.375  0.00  0.00    +0.000 A 
ATOM     10  C   UNL     1       7.182   5.068  14.651  0.00  0.00    +0.000 A 
ATOM     11  N   UNL     1       7.865   5.441  13.567  0.00  0.00    +0.000 NA
ATOM     12  O   UNL     1       7.342   4.682  12.534  0.00  0.00    +0.000 OA
ENDBRANCH   6  10
ENDBRANCH   5   6
ENDBRANCH   1   5
BRANCH   3  13
ATOM     13  C   UNL     1       4.845   3.660  19.149  0.00  0.00    +0.000 C 
BRANCH  13  14
ATOM     14  C   UNL     1       3.386   3.577  19.493  0.00  0.00    +0.000 A 
ATOM     15  C   UNL     1       2.768   4.584  20.247  0.00  0.00    +0.000 A 
ATOM     16  C   UNL     1       1.415   4.494  20.578  0.00  0.00    +0.000 A 
ATOM     17  C   UNL     1       0.660   3.402  20.151  0.00  0.00    +0.000 A 
ATOM     18  C   UNL     1       1.260   2.400  19.388  0.00  0.00    +0.000 A 
ATOM     19  C   UNL     1       2.610   2.496  19.064  0.00  0.00    +0.000 A 
ATOM     20  F   UNL     1       3.170   1.523  18.329  0.00  0.00    +0.000 F 
ENDBRANCH  13  14
ENDBRANCH   3  13
TORSDOF 5
ENDMDL
MODEL 5
REMARK VINA RESULT:      -7.5      1.509      1.577
REMARK  Name = 
REMARK  6 active torsions:
REMARK  status: ('A' for Active; 'I' for Inactive)
REMARK    1  A    between atoms: C_1  and  C_2
REMARK    2  A    between atoms: C_4  and  O_5
REMARK    3  A    between atoms: O_5  and  C_6
REMARK    4  A    between atoms: C_6  and  C_7
REMARK    5  A    between atoms: N_9  and  C_10
REMARK    6  A    between atoms: C_10  and  C_11
REMARK                            x       y       z     vdW  Elec       q    Type
REMARK                         _______ _______ _______ _____ _____    ______ ____
ROOT
ATOM      1  C   UNL     1       5.980   5.268  17.571  0.00  0.00    +0.000 C 
ATOM      2  O   UNL     1       5.409   6.322  17.299  0.00  0.00    +0.000 OA
ATOM      3  N   UNL     1       5.627   4.469  18.640  0.00  0.00    +0.000 N 
ATOM      4  H   UNL     1       6.026   3.542  18.718  0.00  0.00    +0.000 HD
ENDROOT
BRANCH   1   5
ATOM      5  C   UNL     1       7.176   4.755  16.777  0.00  0.00    +0.000 C 
BRANCH   5   6
ATOM      6  O   UNL     1       7.450   5.616  15.680  0.00  0.00    +0.000 OA
BRANCH   6  10
ATOM      7  C   UNL     1       5.734   2.880  11.924  0.00  0.00    +0.000 C 
ATOM      8  C   UNL     1       6.386   3.784  12.887  0.00  0.00    +0.000 A 
ATOM      9  C   UNL     1       6.253   4.023  14.234  0.00  0.00    +0.000 A 
ATOM     10  C   UNL     1       7.184   5.044  14.483  0.00  0.00    +0.000 A 
ATOM     11  N   UNL     1       7.865   5.392  13.389  0.00  0.00    +0.000 NA
ATOM     12  O   UNL     1       7.354   4.597  12.378  0.00  0.00    +0.000 OA
ENDBRANCH   6  10
ENDBRANCH   5   6
ENDBRANCH   1   5
BRANCH   3  13
ATOM     13  C   UNL     1       4.565   4.825  19.552  0.00  0.00    +0.000 C 
BRANCH  13  14
ATOM     14  C   UNL     1       3.296   4.073  19.275  0.00  0.00    +0.000 A 
ATOM     15  C   UNL     1       2.395   4.520  18.298  0.00  0.00    +0.000 A 
ATOM     16  C   UNL     1       1.209   3.825  18.055  0.00  0.00    +0.000 A 
ATOM     17  C   UNL     1       0.913   2.669  18.778  0.00  0.00    +0.000 A 
ATOM     18  C   UNL     1       1.808   2.206  19.741  0.00  0.00    +0.000 A 
ATOM     19  C   UNL     1       2.988   2.906  19.979  0.00  0.00    +0.000 A 
ATOM     20  F   UNL     1       3.837   2.444  20.909  0.00  0.00    +0.000 F 
ENDBRANCH  13  14
ENDBRANCH   3  13
TORSDOF 5
ENDMDL
MODEL 6
REMARK VINA RESULT:      -7.3      1.992      2.396
REMARK  Name = 
REMARK  6 active torsions:
REMARK  status: ('A' for Active; 'I' for Inactive)
REMARK    1  A    between atoms: C_1  and  C_2
REMARK    2  A    between atoms: C_4  and  O_5
REMARK    3  A    between atoms: O_5  and  C_6
REMARK    4  A    between atoms: C_6  and  C_7
REMARK    5  A    between atoms: N_9  and  C_10
REMARK    6  A    between atoms: C_10  and  C_11
REMARK                            x       y       z     vdW  Elec       q    Type
REMARK                         _______ _______ _______ _____ _____    ______ ____
ROOT
ATOM      1  C   UNL     1       5.341   4.847  18.950  0.00  0.00    +0.000 C 
ATOM      2  O   UNL     1       4.815   5.434  19.892  0.00  0.00    +0.000 OA
ATOM      3  N   UNL     1       5.350   3.472  18.822  0.00  0.00    +0.000 N 
ATOM      4  H   UNL     1       5.656   3.058  17.951  0.00  0.00    +0.000 HD
ENDROOT
BRANCH   1   5
ATOM      5  C   UNL     1       6.084   5.581  17.839  0.00  0.00    +0.000 C 
BRANCH   5   6
ATOM      6  O   UNL     1       5.313   5.584  16.644  0.00  0.00    +0.000 OA
BRANCH   6  10
ATOM      7  C   UNL     1       7.019   3.988  12.275  0.00  0.00    +0.000 C 
ATOM      8  C   UNL     1       6.724   4.538  13.609  0.00  0.00    +0.000 A 
ATOM      9  C   UNL     1       5.608   4.589  14.411  0.00  0.00    +0.000 A 
ATOM     10  C   UNL     1       6.047   5.291  15.545  0.00  0.00    +0.000 A 
ATOM     11  N   UNL     1       7.337   5.623  15.473  0.00  0.00    +0.000 NA
ATOM     12  O   UNL     1       7.763   5.151  14.243  0.00  0.00    +0.000 OA
ENDBRANCH   6  10
ENDBRANCH   5   6
ENDBRANCH   1   5
BRANCH   3  13
ATOM     13  C   UNL     1       4.761   2.602  19.813  0.00  0.00    +0.000 C 
BRANCH  13  14
ATOM     14  C   UNL     1       3.261   2.669  19.815  0.00  0.00    +0.000 A 
ATOM     15  C   UNL     1       2.568   3.211  20.906  0.00  0.00    +0.000 A 
ATOM     16  C   UNL     1       1.173   3.257  20.909  0.00  0.00    +0.000 A 
ATOM     17  C   UNL     1       0.453   2.772  19.817  0.00  0.00    +0.000 A 
ATOM     18  C   UNL     1       1.132   2.245  18.719  0.00  0.00    +0.000 A 
ATOM     19  C   UNL     1       2.523   2.200  18.724  0.00  0.00    +0.000 A 
ATOM     20  F   UNL     1       3.158   1.690  17.658  0.00  0.00    +0.000 F 
ENDBRANCH  13  14
ENDBRANCH   3  13
TORSDOF 5
ENDMDL
MODEL 7
REMARK VINA RESULT:      -7.3      1.770      2.111
REMARK  Name = 
REMARK  6 active torsions:
REMARK  status: ('A' for Active; 'I' for Inactive)
REMARK    1  A    between atoms: C_1  and  C_2
REMARK    2  A    between atoms: C_4  and  O_5
REMARK    3  A    between atoms: O_5  and  C_6
REMARK    4  A    between atoms: C_6  and  C_7
REMARK    5  A    between atoms: N_9  and  C_10
REMARK    6  A    between atoms: C_10  and  C_11
REMARK                            x       y       z     vdW  Elec       q    Type
REMARK                         _______ _______ _______ _____ _____    ______ ____
ROOT
ATOM      1  C   UNL     1       5.055   4.650  17.433  0.00  0.00    +0.000 C 
ATOM      2  O   UNL     1       4.101   5.247  16.940  0.00  0.00    +0.000 OA
ATOM      3  N   UNL     1       4.975   3.361  17.919  0.00  0.00    +0.000 N 
ATOM      4  H   UNL     1       5.826   2.871  18.164  0.00  0.00    +0.000 HD
ENDROOT
BRANCH   1   5
ATOM      5  C   UNL     1       6.427   5.296  17.601  0.00  0.00    +0.000 C 
BRANCH   5   6
ATOM      6  O   UNL     1       7.409   4.573  16.870  0.00  0.00    +0.000 OA
BRANCH   6  10
ATOM      7  C   UNL     1       5.956   3.614  12.232  0.00  0.00    +0.000 C 
ATOM      8  C   UNL     1       6.506   4.071  13.520  0.00  0.00    +0.000 A 
ATOM      9  C   UNL     1       6.403   3.646  14.823  0.00  0.00    +0.000 A 
ATOM     10  C   UNL     1       7.177   4.574  15.536  0.00  0.00    +0.000 A 
ATOM     11  N   UNL     1       7.745   5.485  14.742  0.00  0.00    +0.000 NA
ATOM     12  O   UNL     1       7.314   5.168  13.466  0.00  0.00    +0.000 OA
ENDBRANCH   6  10
ENDBRANCH   5   6
ENDBRANCH   1   5
BRANCH   3  13
ATOM     13  C   UNL     1       3.741   2.611  17.915  0.00  0.00    +0.000 C 
BRANCH  13  14
ATOM     14  C   UNL     1       2.915   2.861  19.143  0.00  0.00    +0.000 A 
ATOM     15  C   UNL     1       1.660   3.478  19.050  0.00  0.00    +0.000 A 
ATOM     16  C   UNL     1       0.902   3.722  20.198  0.00  0.00    +0.000 A 
ATOM     17  C   UNL     1       1.385   3.343  21.450  0.00  0.00    +0.000 A 
ATOM     18  C   UNL     1       2.626   2.715  21.553  0.00  0.00    +0.000 A 
ATOM     19  C   UNL     1       3.376   2.477  20.405  0.00  0.00    +0.000 A 
ATOM     20  F   UNL     1       4.567   1.872  20.525  0.00  0.00    +0.000 F 
ENDBRANCH  13  14
ENDBRANCH   3  13
TORSDOF 5
ENDMDL
MODEL 8
REMARK VINA RESULT:      -7.1      1.249      1.619
REMARK  Name = 
REMARK  6 active torsions:
REMARK  status: ('A' for Active; 'I' for Inactive)
REMARK    1  A    between atoms: C_1  and  C_2
REMARK    2  A    between atoms: C_4  and  O_5
REMARK    3  A    between atoms: O_5  and  C_6
REMARK    4  A    between atoms: C_6  and  C_7
REMARK    5  A    between atoms: N_9  and  C_10
REMARK    6  A    between atoms: C_10  and  C_11
REMARK                            x       y       z     vdW  Elec       q    Type
REMARK                         _______ _______ _______ _____ _____    ______ ____
ROOT
ATOM      1  C   UNL     1       6.890   5.068  17.790  0.00  0.00    +0.000 C 
ATOM      2  O   UNL     1       7.793   4.407  18.296  0.00  0.00    +0.000 OA
ATOM      3  N   UNL     1       5.574   4.995  18.202  0.00  0.00    +0.000 N 
ATOM      4  H   UNL     1       4.909   5.675  17.857  0.00  0.00    +0.000 HD
ENDROOT
BRANCH   1   5
ATOM      5  C   UNL     1       7.123   6.010  16.614  0.00  0.00    +0.000 C 
BRANCH   5   6
ATOM      6  O   UNL     1       6.019   5.971  15.719  0.00  0.00    +0.000 OA
BRANCH   6  10
ATOM      7  C   UNL     1       5.933   2.705  11.995  0.00  0.00    +0.000 C 
ATOM      8  C   UNL     1       6.158   3.743  13.016  0.00  0.00    +0.000 A 
ATOM      9  C   UNL     1       5.469   4.179  14.122  0.00  0.00    +0.000 A 
ATOM     10  C   UNL     1       6.263   5.226  14.616  0.00  0.00    +0.000 A 
ATOM     11  N   UNL     1       7.373   5.409  13.897  0.00  0.00    +0.000 NA
ATOM     12  O   UNL     1       7.302   4.472  12.880  0.00  0.00    +0.000 OA
ENDBRANCH   6  10
ENDBRANCH   5   6
ENDBRANCH   1   5
BRANCH   3  13
ATOM     13  C   UNL     1       5.144   4.103  19.253  0.00  0.00    +0.000 C 
BRANCH  13  14
ATOM     14  C   UNL     1       3.752   3.586  19.032  0.00  0.00    +0.000 A 
ATOM     15  C   UNL     1       3.500   2.592  18.077  0.00  0.00    +0.000 A 
ATOM     16  C   UNL     1       2.201   2.126  17.864  0.00  0.00    +0.000 A 
ATOM     17  C   UNL     1       1.141   2.639  18.610  0.00  0.00    +0.000 A 
ATOM     18  C   UNL     1       1.381   3.618  19.574  0.00  0.00    +0.000 A 
ATOM     19  C   UNL     1       2.679   4.080  19.779  0.00  0.00    +0.000 A 
ATOM     20  F   UNL     1       2.891   5.021  20.711  0.00  0.00    +0.000 F 
ENDBRANCH  13  14
ENDBRANCH   3  13
TORSDOF 5
ENDMDL
MODEL 9
REMARK VINA RESULT:      -7.1      1.812      2.224
REMARK  Name = 
REMARK  6 active torsions:
REMARK  status: ('A' for Active; 'I' for Inactive)
REMARK    1  A    between atoms: C_1  and  C_2
REMARK    2  A    between atoms: C_4  and  O_5
REMARK    3  A    between atoms: O_5  and  C_6
REMARK    4  A    between atoms: C_6  and  C_7
REMARK    5  A    between atoms: N_9  and  C_10
REMARK    6  A    between atoms: C_10  and  C_11
REMARK                            x       y       z     vdW  Elec       q    Type
REMARK                         _______ _______ _______ _____ _____    ______ ____
ROOT
ATOM      1  C   UNL     1       6.417   5.406  18.510  0.00  0.00    +0.000 C 
ATOM      2  O   UNL     1       7.343   5.065  19.242  0.00  0.00    +0.000 OA
ATOM      3  N   UNL     1       5.160   4.837  18.563  0.00  0.00    +0.000 N 
ATOM      4  H   UNL     1       4.401   5.265  18.049  0.00  0.00    +0.000 HD
ENDROOT
BRANCH   1   5
ATOM      5  C   UNL     1       6.575   6.468  17.428  0.00  0.00    +0.000 C 
BRANCH   5   6
ATOM      6  O   UNL     1       7.421   5.995  16.388  0.00  0.00    +0.000 OA
BRANCH   6  10
ATOM      7  C   UNL     1       6.029   3.302  12.470  0.00  0.00    +0.000 C 
ATOM      8  C   UNL     1       6.220   4.119  13.681  0.00  0.00    +0.000 A 
ATOM      9  C   UNL     1       7.311   4.643  14.333  0.00  0.00    +0.000 A 
ATOM     10  C   UNL     1       6.751   5.298  15.441  0.00  0.00    +0.000 A 
ATOM     11  N   UNL     1       5.419   5.219  15.462  0.00  0.00    +0.000 NA
ATOM     12  O   UNL     1       5.085   4.467  14.349  0.00  0.00    +0.000 OA
ENDBRANCH   6  10
ENDBRANCH   5   6
ENDBRANCH   1   5
BRANCH   3  13
ATOM     13  C   UNL     1       4.838   3.763  19.473  0.00  0.00    +0.000 C 
BRANCH  13  14
ATOM     14  C   UNL     1       3.363   3.489  19.536  0.00  0.00    +0.000 A 
ATOM     15  C   UNL     1       2.605   3.888  20.646  0.00  0.00    +0.000 A 
ATOM     16  C   UNL     1       1.237   3.618  20.705  0.00  0.00    +0.000 A 
ATOM     17  C   UNL     1       0.607   2.954  19.653  0.00  0.00    +0.000 A 
ATOM     18  C   UNL     1       1.347   2.565  18.537  0.00  0.00    +0.000 A 
ATOM     19  C   UNL     1       2.712   2.836  18.486  0.00  0.00    +0.000 A 
ATOM     20  F   UNL     1       3.407   2.455  17.404  0.00  0.00    +0.000 F 
ENDBRANCH  13  14
ENDBRANCH   3  13
TORSDOF 5
ENDMDL
