MODEL 1
REMARK VINA RESULT:      -5.8      0.000      0.000
REMARK  Name = 
REMARK  11 active torsions:
REMARK  status: ('A' for Active; 'I' for Inactive)
REMARK    1  A    between atoms: C_2  and  C_3
REMARK    2  A    between atoms: C_2  and  C_4
REMARK    3  A    between atoms: C_4  and  O_5
REMARK    4  A    between atoms: C_4  and  C_6
REMARK    5  A    between atoms: C_7  and  C_8
REMARK    6  A    between atoms: C_8  and  C_9
REMARK    7  A    between atoms: C_9  and  C_10
REMARK    8  A    between atoms: C_10  and  C_11
REMARK    9  A    between atoms: C_11  and  C_12
REMARK   10  A    between atoms: C_12  and  C_13
REMARK   11  A    between atoms: C_13  and  C_14
REMARK                            x       y       z     vdW  Elec       q    Type
REMARK                         _______ _______ _______ _____ _____    ______ ____
ROOT
ATOM      1  C   UNL     1       5.485   5.869  16.939  0.00  0.00    +0.000 C 
ATOM      2  C   UNL     1       5.215   4.594  16.605  0.00  0.00    +0.000 C 
ENDROOT
BRANCH   1   3
ATOM      3  C   UNL     1       6.738   6.601  16.552  0.00  0.00    +0.000 C 
BRANCH   3   5
ATOM      4  C   UNL     1       7.983   8.366  17.798  0.00  0.00    +0.000 C 
ATOM      5  C   UNL     1       7.532   7.098  17.744  0.00  0.00    +0.000 C 
ATOM      6  C   UNL     1       7.830   6.140  18.865  0.00  0.00    +0.000 C 
ENDBRANCH   3   5
BRANCH   3   7
ATOM      7  O   UNL     1       7.552   5.728  15.780  0.00  0.00    +0.000 OA
ATOM      8  H   UNL     1       6.961   5.175  15.248  0.00  0.00    +0.000 HD
ENDBRANCH   3   7
ENDBRANCH   1   3
BRANCH   2   9
ATOM      9  C   UNL     1       3.965   3.876  17.025  0.00  0.00    +0.000 C 
BRANCH   9  10
ATOM     10  C   UNL     1       3.007   4.813  17.760  0.00  0.00    +0.000 C 
BRANCH  10  11
ATOM     11  C   UNL     1       1.590   4.242  17.769  0.00  0.00    +0.000 C 
BRANCH  11  12
ATOM     12  C   UNL     1       1.570   2.826  18.342  0.00  0.00    +0.000 C 
BRANCH  12  13
ATOM     13  C   UNL     1       0.668   2.746  19.572  0.00  0.00    +0.000 C 
BRANCH  13  14
ATOM     14  C   UNL     1       1.189   3.641  20.695  0.00  0.00    +0.000 C 
ATOM     15  C   UNL     1       2.265   2.940  21.506  0.00  0.00    +0.000 C 
ENDBRANCH  13  14
ENDBRANCH  12  13
ENDBRANCH  11  12
ENDBRANCH  10  11
ENDBRANCH   9  10
ENDBRANCH   2   9
TORSDOF 9
ENDMDL
MODEL 2
REMARK VINA RESULT:      -5.7      1.018      1.858
REMARK  Name = 
REMARK  11 active torsions:
REMARK  status: ('A' for Active; 'I' for Inactive)
REMARK    1  A    between atoms: C_2  and  C_3
REMARK    2  A    between atoms: C_2  and  C_4
REMARK    3  A    between atoms: C_4  and  O_5
REMARK    4  A    between atoms: C_4  and  C_6
REMARK    5  A    between atoms: C_7  and  C_8
REMARK    6  A    between atoms: C_8  and  C_9
REMARK    7  A    between atoms: C_9  and  C_10
REMARK    8  A    between atoms: C_10  and  C_11
REMARK    9  A    between atoms: C_11  and  C_12
REMARK   10  A    between atoms: C_12  and  C_13
REMARK   11  A    between atoms: C_13  and  C_14
REMARK                            x       y       z     vdW  Elec       q    Type
REMARK                         _______ _______ _______ _____ _____    ______ ____
ROOT
ATOM      1  C   UNL     1       5.479   5.554  16.705  0.00  0.00    +0.000 C 
ATOM      2  C   UNL     1       4.958   4.543  17.424  0.00  0.00    +0.000 C 
ENDROOT
BRANCH   1   3
ATOM      3  C   UNL     1       6.947   5.849  16.594  0.00  0.00    +0.000 C 
BRANCH   3   5
ATOM      4  C   UNL     1       7.745   6.051  18.948  0.00  0.00    +0.000 C 
ATOM      5  C   UNL     1       7.487   6.644  17.766  0.00  0.00    +0.000 C 
ATOM      6  C   UNL     1       7.713   8.122  17.595  0.00  0.00    +0.000 C 
ENDBRANCH   3   5
BRANCH   3   7
ATOM      7  O   UNL     1       7.650   4.617  16.500  0.00  0.00    +0.000 OA
ATOM      8  H   UNL     1       8.058   4.582  15.623  0.00  0.00    +0.000 HD
ENDBRANCH   3   7
ENDBRANCH   1   3
BRANCH   2   9
ATOM      9  C   UNL     1       3.483   4.284  17.538  0.00  0.00    +0.000 C 
BRANCH   9  10
ATOM     10  C   UNL     1       2.738   5.523  18.032  0.00  0.00    +0.000 C 
BRANCH  10  11
ATOM     11  C   UNL     1       3.150   5.871  19.461  0.00  0.00    +0.000 C 
BRANCH  11  12
ATOM     12  C   UNL     1       2.796   4.742  20.427  0.00  0.00    +0.000 C 
BRANCH  12  13
ATOM     13  C   UNL     1       1.290   4.490  20.449  0.00  0.00    +0.000 C 
BRANCH  13  14
ATOM     14  C   UNL     1       0.982   2.995  20.400  0.00  0.00    +0.000 C 
ATOM     15  C   UNL     1       0.696   2.536  18.980  0.00  0.00    +0.000 C 
ENDBRANCH  13  14
ENDBRANCH  12  13
ENDBRANCH  11  12
ENDBRANCH  10  11
ENDBRANCH   9  10
ENDBRANCH   2   9
TORSDOF 9
ENDMDL
MODEL 3
REMARK VINA RESULT:      -5.6      1.595      2.053
REMARK  Name = 
REMARK  11 active torsions:
REMARK  status: ('A' for Active; 'I' for Inactive)
REMARK    1  A    between atoms: C_2  and  C_3
REMARK    2  A    between atoms: C_2  and  C_4
REMARK    3  A    between atoms: C_4  and  O_5
REMARK    4  A    between atoms: C_4  and  C_6
REMARK    5  A    between atoms: C_7  and  C_8
REMARK    6  A    between atoms: C_8  and  C_9
REMARK    7  A    between atoms: C_9  and  C_10
REMARK    8  A    between atoms: C_10  and  C_11
REMARK    9  A    between atoms: C_11  and  C_12
REMARK   10  A    between atoms: C_12  and  C_13
REMARK   11  A    between atoms: C_13  and  C_14
REMARK                            x       y       z     vdW  Elec       q    Type
REMARK                         _______ _______ _______ _____ _____    ______ ____
ROOT
ATOM      1  C   UNL     1       5.509   4.201  17.842  0.00  0.00    +0.000 C 
ATOM      2  C   UNL     1       4.684   3.603  18.721  0.00  0.00    +0.000 C 
ENDROOT
BRANCH   1   3
ATOM      3  C   UNL     1       6.620   5.138  18.223  0.00  0.00    +0.000 C 
BRANCH   3   5
ATOM      4  C   UNL     1       5.384   6.858  16.906  0.00  0.00    +0.000 C 
ATOM      5  C   UNL     1       6.496   6.505  17.580  0.00  0.00    +0.000 C 
ATOM      6  C   UNL     1       7.651   7.464  17.690  0.00  0.00    +0.000 C 
ENDBRANCH   3   5
BRANCH   3   7
ATOM      7  O   UNL     1       6.624   5.284  19.637  0.00  0.00    +0.000 OA
ATOM      8  H   UNL     1       6.137   6.095  19.846  0.00  0.00    +0.000 HD
ENDBRANCH   3   7
ENDBRANCH   1   3
BRANCH   2   9
ATOM      9  C   UNL     1       3.564   2.690  18.314  0.00  0.00    +0.000 C 
BRANCH   9  10
ATOM     10  C   UNL     1       2.676   3.338  17.252  0.00  0.00    +0.000 C 
BRANCH  10  11
ATOM     11  C   UNL     1       1.677   4.299  17.893  0.00  0.00    +0.000 C 
BRANCH  11  12
ATOM     12  C   UNL     1       1.105   3.718  19.185  0.00  0.00    +0.000 C 
BRANCH  12  13
ATOM     13  C   UNL     1       1.337   4.663  20.362  0.00  0.00    +0.000 C 
BRANCH  13  14
ATOM     14  C   UNL     1       2.126   3.973  21.474  0.00  0.00    +0.000 C 
ATOM     15  C   UNL     1       1.708   2.521  21.626  0.00  0.00    +0.000 C 
ENDBRANCH  13  14
ENDBRANCH  12  13
ENDBRANCH  11  12
ENDBRANCH  10  11
ENDBRANCH   9  10
ENDBRANCH   2   9
TORSDOF 9
ENDMDL
MODEL 4
REMARK VINA RESULT:      -5.6      3.408      6.475
REMARK  Name = 
REMARK  11 active torsions:
REMARK  status: ('A' for Active; 'I' for Inactive)
REMARK    1  A    between atoms: C_2  and  C_3
REMARK    2  A    between atoms: C_2  and  C_4
REMARK    3  A    between atoms: C_4  and  O_5
REMARK    4  A    between atoms: C_4  and  C_6
REMARK    5  A    between atoms: C_7  and  C_8
REMARK    6  A    between atoms: C_8  and  C_9
REMARK    7  A    between atoms: C_9  and  C_10
REMARK    8  A    between atoms: C_10  and  C_11
REMARK    9  A    between atoms: C_11  and  C_12
REMARK   10  A    between atoms: C_12  and  C_13
REMARK   11  A    between atoms: C_13  and  C_14
REMARK                            x       y       z     vdW  Elec       q    Type
REMARK                         _______ _______ _______ _____ _____    ______ ____
ROOT
ATOM      1  C   UNL     1       5.621   4.115  13.800  0.00  0.00    +0.000 C 
ATOM      2  C   UNL     1       6.133   5.017  14.658  0.00  0.00    +0.000 C 
ENDROOT
BRANCH   1   3
ATOM      3  C   UNL     1       6.414   3.409  12.738  0.00  0.00    +0.000 C 
BRANCH   3   5
ATOM      4  C   UNL     1       5.955   1.472  11.235  0.00  0.00    +0.000 C 
ATOM      5  C   UNL     1       5.549   2.647  11.753  0.00  0.00    +0.000 C 
ATOM      6  C   UNL     1       4.227   3.239  11.344  0.00  0.00    +0.000 C 
ENDBRANCH   3   5
BRANCH   3   7
ATOM      7  O   UNL     1       7.185   4.373  12.033  0.00  0.00    +0.000 OA
ATOM      8  H   UNL     1       7.969   4.565  12.569  0.00  0.00    +0.000 HD
ENDBRANCH   3   7
ENDBRANCH   1   3
BRANCH   2   9
ATOM      9  C   UNL     1       5.314   5.728  15.696  0.00  0.00    +0.000 C 
BRANCH   9  10
ATOM     10  C   UNL     1       5.272   4.941  17.006  0.00  0.00    +0.000 C 
BRANCH  10  11
ATOM     11  C   UNL     1       6.680   4.749  17.568  0.00  0.00    +0.000 C 
BRANCH  11  12
ATOM     12  C   UNL     1       6.882   5.570  18.840  0.00  0.00    +0.000 C 
BRANCH  12  13
ATOM     13  C   UNL     1       8.015   6.579  18.667  0.00  0.00    +0.000 C 
BRANCH  13  14
ATOM     14  C   UNL     1       7.635   7.666  17.663  0.00  0.00    +0.000 C 
ATOM     15  C   UNL     1       8.259   9.001  18.032  0.00  0.00    +0.000 C 
ENDBRANCH  13  14
ENDBRANCH  12  13
ENDBRANCH  11  12
ENDBRANCH  10  11
ENDBRANCH   9  10
ENDBRANCH   2   9
TORSDOF 9
ENDMDL
MODEL 5
REMARK VINA RESULT:      -5.6      1.292      1.753
REMARK  Name = 
REMARK  11 active torsions:
REMARK  status: ('A' for Active; 'I' for Inactive)
REMARK    1  A    between atoms: C_2  and  C_3
REMARK    2  A    between atoms: C_2  and  C_4
REMARK    3  A    between atoms: C_4  and  O_5
REMARK    4  A    between atoms: C_4  and  C_6
REMARK    5  A    between atoms: C_7  and  C_8
REMARK    6  A    between atoms: C_8  and  C_9
REMARK    7  A    between atoms: C_9  and  C_10
REMARK    8  A    between atoms: C_10  and  C_11
REMARK    9  A    between atoms: C_11  and  C_12
REMARK   10  A    between atoms: C_12  and  C_13
REMARK   11  A    between atoms: C_13  and  C_14
REMARK                            x       y       z     vdW  Elec       q    Type
REMARK                         _______ _______ _______ _____ _____    ______ ____
ROOT
ATOM      1  C   UNL     1       5.966   4.438  16.446  0.00  0.00    +0.000 C 
ATOM      2  C   UNL     1       4.974   4.315  17.346  0.00  0.00    +0.000 C 
ENDROOT
BRANCH   1   3
ATOM      3  C   UNL     1       7.315   5.027  16.743  0.00  0.00    +0.000 C 
BRANCH   3   5
ATOM      4  C   UNL     1       6.847   7.396  17.365  0.00  0.00    +0.000 C 
ATOM      5  C   UNL     1       7.262   6.170  17.737  0.00  0.00    +0.000 C 
ATOM      6  C   UNL     1       7.705   5.917  19.153  0.00  0.00    +0.000 C 
ENDBRANCH   3   5
BRANCH   3   7
ATOM      7  O   UNL     1       8.155   4.001  17.255  0.00  0.00    +0.000 OA
ATOM      8  H   UNL     1       8.112   4.046  18.221  0.00  0.00    +0.000 HD
ENDBRANCH   3   7
ENDBRANCH   1   3
BRANCH   2   9
ATOM      9  C   UNL     1       3.625   3.745  17.017  0.00  0.00    +0.000 C 
BRANCH   9  10
ATOM     10  C   UNL     1       2.504   4.572  17.646  0.00  0.00    +0.000 C 
BRANCH  10  11
ATOM     11  C   UNL     1       3.070   5.791  18.371  0.00  0.00    +0.000 C 
BRANCH  11  12
ATOM     12  C   UNL     1       2.343   6.032  19.692  0.00  0.00    +0.000 C 
BRANCH  12  13
ATOM     13  C   UNL     1       2.516   4.846  20.639  0.00  0.00    +0.000 C 
BRANCH  13  14
ATOM     14  C   UNL     1       1.218   4.049  20.764  0.00  0.00    +0.000 C 
ATOM     15  C   UNL     1       1.467   2.684  21.383  0.00  0.00    +0.000 C 
ENDBRANCH  13  14
ENDBRANCH  12  13
ENDBRANCH  11  12
ENDBRANCH  10  11
ENDBRANCH   9  10
ENDBRANCH   2   9
TORSDOF 9
ENDMDL
MODEL 6
REMARK VINA RESULT:      -5.5      1.026      1.422
REMARK  Name = 
REMARK  11 active torsions:
REMARK  status: ('A' for Active; 'I' for Inactive)
REMARK    1  A    between atoms: C_2  and  C_3
REMARK    2  A    between atoms: C_2  and  C_4
REMARK    3  A    between atoms: C_4  and  O_5
REMARK    4  A    between atoms: C_4  and  C_6
REMARK    5  A    between atoms: C_7  and  C_8
REMARK    6  A    between atoms: C_8  and  C_9
REMARK    7  A    between atoms: C_9  and  C_10
REMARK    8  A    between atoms: C_10  and  C_11
REMARK    9  A    between atoms: C_11  and  C_12
REMARK   10  A    between atoms: C_12  and  C_13
REMARK   11  A    between atoms: C_13  and  C_14
REMARK                            x       y       z     vdW  Elec       q    Type
REMARK                         _______ _______ _______ _____ _____    ______ ____
ROOT
ATOM      1  C   UNL     1       5.341   4.758  17.929  0.00  0.00    +0.000 C 
ATOM      2  C   UNL     1       4.162   4.172  17.652  0.00  0.00    +0.000 C 
ENDROOT
BRANCH   1   3
ATOM      3  C   UNL     1       5.707   6.160  17.533  0.00  0.00    +0.000 C 
BRANCH   3   5
ATOM      4  C   UNL     1       7.673   7.694  17.529  0.00  0.00    +0.000 C 
ATOM      5  C   UNL     1       7.097   6.565  17.983  0.00  0.00    +0.000 C 
ATOM      6  C   UNL     1       7.838   5.667  18.937  0.00  0.00    +0.000 C 
ENDBRANCH   3   5
BRANCH   3   7
ATOM      7  O   UNL     1       5.625   6.266  16.118  0.00  0.00    +0.000 OA
ATOM      8  H   UNL     1       4.840   6.795  15.912  0.00  0.00    +0.000 HD
ENDBRANCH   3   7
ENDBRANCH   1   3
BRANCH   2   9
ATOM      9  C   UNL     1       3.830   2.760  18.037  0.00  0.00    +0.000 C 
BRANCH   9  10
ATOM     10  C   UNL     1       2.397   2.400  17.646  0.00  0.00    +0.000 C 
BRANCH  10  11
ATOM     11  C   UNL     1       1.422   3.487  18.094  0.00  0.00    +0.000 C 
BRANCH  11  12
ATOM     12  C   UNL     1       0.770   3.126  19.428  0.00  0.00    +0.000 C 
BRANCH  12  13
ATOM     13  C   UNL     1       0.897   4.272  20.429  0.00  0.00    +0.000 C 
BRANCH  13  14
ATOM     14  C   UNL     1       2.232   4.210  21.169  0.00  0.00    +0.000 C 
ATOM     15  C   UNL     1       2.558   2.790  21.600  0.00  0.00    +0.000 C 
ENDBRANCH  13  14
ENDBRANCH  12  13
ENDBRANCH  11  12
ENDBRANCH  10  11
ENDBRANCH   9  10
ENDBRANCH   2   9
TORSDOF 9
ENDMDL
MODEL 7
REMARK VINA RESULT:      -5.5      1.729      2.766
REMARK  Name = 
REMARK  11 active torsions:
REMARK  status: ('A' for Active; 'I' for Inactive)
REMARK    1  A    between atoms: C_2  and  C_3
REMARK    2  A    between atoms: C_2  and  C_4
REMARK    3  A    between atoms: C_4  and  O_5
REMARK    4  A    between atoms: C_4  and  C_6
REMARK    5  A    between atoms: C_7  and  C_8
REMARK    6  A    between atoms: C_8  and  C_9
REMARK    7  A    between atoms: C_9  and  C_10
REMARK    8  A    between atoms: C_10  and  C_11
REMARK    9  A    between atoms: C_11  and  C_12
REMARK   10  A    between atoms: C_12  and  C_13
REMARK   11  A    between atoms: C_13  and  C_14
REMARK                            x       y       z     vdW  Elec       q    Type
REMARK                         _______ _______ _______ _____ _____    ______ ____
ROOT
ATOM      1  C   UNL     1       4.312   4.848  17.272  0.00  0.00    +0.000 C 
ATOM      2  C   UNL     1       3.960   5.630  18.309  0.00  0.00    +0.000 C 
ENDROOT
BRANCH   1   3
ATOM      3  C   UNL     1       5.673   4.238  17.093  0.00  0.00    +0.000 C 
BRANCH   3   5
ATOM      4  C   UNL     1       7.013   4.902  15.097  0.00  0.00    +0.000 C 
ATOM      5  C   UNL     1       6.646   5.148  16.370  0.00  0.00    +0.000 C 
ATOM      6  C   UNL     1       7.218   6.329  17.108  0.00  0.00    +0.000 C 
ENDBRANCH   3   5
BRANCH   3   7
ATOM      7  O   UNL     1       6.197   3.918  18.375  0.00  0.00    +0.000 OA
ATOM      8  H   UNL     1       5.649   3.210  18.744  0.00  0.00    +0.000 HD
ENDBRANCH   3   7
ENDBRANCH   1   3
BRANCH   2   9
ATOM      9  C   UNL     1       2.599   6.249  18.452  0.00  0.00    +0.000 C 
BRANCH   9  10
ATOM     10  C   UNL     1       2.180   6.335  19.919  0.00  0.00    +0.000 C 
BRANCH  10  11
ATOM     11  C   UNL     1       2.283   4.968  20.594  0.00  0.00    +0.000 C 
BRANCH  11  12
ATOM     12  C   UNL     1       1.034   4.128  20.333  0.00  0.00    +0.000 C 
BRANCH  12  13
ATOM     13  C   UNL     1       1.397   2.662  20.105  0.00  0.00    +0.000 C 
BRANCH  13  14
ATOM     14  C   UNL     1       1.789   2.413  18.649  0.00  0.00    +0.000 C 
ATOM     15  C   UNL     1       3.138   1.722  18.553  0.00  0.00    +0.000 C 
ENDBRANCH  13  14
ENDBRANCH  12  13
ENDBRANCH  11  12
ENDBRANCH  10  11
ENDBRANCH   9  10
ENDBRANCH   2   9
TORSDOF 9
ENDMDL
MODEL 8
REMARK VINA RESULT:      -5.4      3.567      6.671
REMARK  Name = 
REMARK  11 active torsions:
REMARK  status: ('A' for Active; 'I' for Inactive)
REMARK    1  A    between atoms: C_2  and  C_3
REMARK    2  A    between atoms: C_2  and  C_4
REMARK    3  A    between atoms: C_4  and  O_5
REMARK    4  A    between atoms: C_4  and  C_6
REMARK    5  A    between atoms: C_7  and  C_8
REMARK    6  A    between atoms: C_8  and  C_9
REMARK    7  A    between atoms: C_9  and  C_10
REMARK    8  A    between atoms: C_10  and  C_11
REMARK    9  A    between atoms: C_11  and  C_12
REMARK   10  A    between atoms: C_12  and  C_13
REMARK   11  A    between atoms: C_13  and  C_14
REMARK                            x       y       z     vdW  Elec       q    Type
REMARK                         _______ _______ _______ _____ _____    ______ ____
ROOT
ATOM      1  C   UNL     1       4.590   4.610  17.458  0.00  0.00    +0.000 C 
ATOM      2  C   UNL     1       4.908   4.398  16.168  0.00  0.00    +0.000 C 
ENDROOT
BRANCH   1   3
ATOM      3  C   UNL     1       3.963   3.583  18.357  0.00  0.00    +0.000 C 
BRANCH   3   5
ATOM      4  C   UNL     1       1.659   4.295  17.722  0.00  0.00    +0.000 C 
ATOM      5  C   UNL     1       2.511   3.876  18.677  0.00  0.00    +0.000 C 
ATOM      6  C   UNL     1       2.035   3.710  20.096  0.00  0.00    +0.000 C 
ENDBRANCH   3   5
BRANCH   3   7
ATOM      7  O   UNL     1       4.056   2.313  17.727  0.00  0.00    +0.000 OA
ATOM      8  H   UNL     1       3.412   1.728  18.155  0.00  0.00    +0.000 HD
ENDBRANCH   3   7
ENDBRANCH   1   3
BRANCH   2   9
ATOM      9  C   UNL     1       5.512   5.449  15.282  0.00  0.00    +0.000 C 
BRANCH   9  10
ATOM     10  C   UNL     1       6.644   4.876  14.431  0.00  0.00    +0.000 C 
BRANCH  10  11
ATOM     11  C   UNL     1       6.213   3.571  13.763  0.00  0.00    +0.000 C 
BRANCH  11  12
ATOM     12  C   UNL     1       6.343   3.661  12.244  0.00  0.00    +0.000 C 
BRANCH  12  13
ATOM     13  C   UNL     1       5.326   2.756  11.552  0.00  0.00    +0.000 C 
BRANCH  13  14
ATOM     14  C   UNL     1       3.934   3.386  11.561  0.00  0.00    +0.000 C 
ATOM     15  C   UNL     1       3.385   3.533  10.152  0.00  0.00    +0.000 C 
ENDBRANCH  13  14
ENDBRANCH  12  13
ENDBRANCH  11  12
ENDBRANCH  10  11
ENDBRANCH   9  10
ENDBRANCH   2   9
TORSDOF 9
ENDMDL
MODEL 9
REMARK VINA RESULT:      -5.4      2.071      6.431
REMARK  Name = 
REMARK  11 active torsions:
REMARK  status: ('A' for Active; 'I' for Inactive)
REMARK    1  A    between atoms: C_2  and  C_3
REMARK    2  A    between atoms: C_2  and  C_4
REMARK    3  A    between atoms: C_4  and  O_5
REMARK    4  A    between atoms: C_4  and  C_6
REMARK    5  A    between atoms: C_7  and  C_8
REMARK    6  A    between atoms: C_8  and  C_9
REMARK    7  A    between atoms: C_9  and  C_10
REMARK    8  A    between atoms: C_10  and  C_11
REMARK    9  A    between atoms: C_11  and  C_12
REMARK   10  A    between atoms: C_12  and  C_13
REMARK   11  A    between atoms: C_13  and  C_14
REMARK                            x       y       z     vdW  Elec       q    Type
REMARK                         _______ _______ _______ _____ _____    ______ ____
ROOT
ATOM      1  C   UNL     1       2.881   4.866  18.425  0.00  0.00    +0.000 C 
ATOM      2  C   UNL     1       3.850   3.955  18.224  0.00  0.00    +0.000 C 
ENDROOT
BRANCH   1   3
ATOM      3  C   UNL     1       2.005   4.920  19.644  0.00  0.00    +0.000 C 
BRANCH   3   5
ATOM      4  C   UNL     1       1.888   3.078  21.321  0.00  0.00    +0.000 C 
ATOM      5  C   UNL     1       1.542   3.554  20.109  0.00  0.00    +0.000 C 
ATOM      6  C   UNL     1       0.701   2.720  19.180  0.00  0.00    +0.000 C 
ENDBRANCH   3   5
BRANCH   3   7
ATOM      7  O   UNL     1       2.728   5.551  20.693  0.00  0.00    +0.000 OA
ATOM      8  H   UNL     1       3.025   6.412  20.364  0.00  0.00    +0.000 HD
ENDBRANCH   3   7
ENDBRANCH   1   3
BRANCH   2   9
ATOM      9  C   UNL     1       4.696   3.907  16.985  0.00  0.00    +0.000 C 
BRANCH   9  10
ATOM     10  C   UNL     1       5.004   5.311  16.468  0.00  0.00    +0.000 C 
BRANCH  10  11
ATOM     11  C   UNL     1       6.511   5.514  16.313  0.00  0.00    +0.000 C 
BRANCH  11  12
ATOM     12  C   UNL     1       7.248   5.176  17.607  0.00  0.00    +0.000 C 
BRANCH  12  13
ATOM     13  C   UNL     1       7.662   6.445  18.349  0.00  0.00    +0.000 C 
BRANCH  13  14
ATOM     14  C   UNL     1       7.589   7.666  17.434  0.00  0.00    +0.000 C 
ATOM     15  C   UNL     1       8.272   8.868  18.064  0.00  0.00    +0.000 C 
ENDBRANCH  13  14
ENDBRANCH  12  13
ENDBRANCH  11  12
ENDBRANCH  10  11
ENDBRANCH   9  10
ENDBRANCH   2   9
TORSDOF 9
ENDMDL
