MODEL 1
REMARK VINA RESULT:      -7.9      0.000      0.000
REMARK  Name = 
REMARK  10 active torsions:
REMARK  status: ('A' for Active; 'I' for Inactive)
REMARK    1  A    between atoms: C_1  and  C_2
REMARK    2  A    between atoms: C_2  and  N_3
REMARK    3  A    between atoms: N_3  and  C_4
REMARK    4  A    between atoms: N_3  and  C_6
REMARK    5  A    between atoms: C_4  and  C_5
REMARK    6  A    between atoms: C_6  and  C_7
REMARK    7  A    between atoms: C_7  and  N_8
REMARK    8  A    between atoms: C_11  and  C_13
REMARK    9  A    between atoms: C_15  and  C_16
REMARK   10  A    between atoms: N_22  and  C_23
REMARK                            x       y       z     vdW  Elec       q    Type
REMARK                         _______ _______ _______ _____ _____    ______ ____
ROOT
ATOM      1  N   UNL     1      -0.114  10.224  18.431  0.00  0.00    +0.000 N 
ATOM      2  C   UNL     1       1.089   9.645  18.775  0.00  0.00    +0.000 A 
ATOM      3  N   UNL     1       1.634   8.555  18.136  0.00  0.00    +0.000 N 
ATOM      4  C   UNL     1       2.270   7.582  18.894  0.00  0.00    +0.000 C 
ATOM      5  O   UNL     1       2.203   7.523  20.116  0.00  0.00    +0.000 OA
ATOM      6  N   UNL     1       1.643  10.296  19.775  0.00  0.00    +0.000 NA
ATOM      7  C   UNL     1       0.801  11.326  20.078  0.00  0.00    +0.000 A 
ATOM      8  C   UNL     1       0.945  12.345  21.038  0.00  0.00    +0.000 A 
ATOM      9  C   UNL     1      -0.084  13.285  21.180  0.00  0.00    +0.000 A 
ATOM     10  C   UNL     1      -1.232  13.211  20.391  0.00  0.00    +0.000 A 
ATOM     11  C   UNL     1      -1.382  12.213  19.421  0.00  0.00    +0.000 A 
ATOM     12  C   UNL     1      -0.333  11.296  19.274  0.00  0.00    +0.000 A 
ATOM     13  H   UNL     1       1.417   8.373  17.171  0.00  0.00    +0.000 HD
ENDROOT
BRANCH   4  14
ATOM     14  C   UNL     1       2.971   6.578  18.120  0.00  0.00    +0.000 A 
ATOM     15  C   UNL     1       3.747   6.741  16.985  0.00  0.00    +0.000 A 
ATOM     16  C   UNL     1       4.473   5.542  16.841  0.00  0.00    +0.000 A 
ATOM     17  N   UNL     1       4.135   4.651  17.775  0.00  0.00    +0.000 NA
ATOM     18  N   UNL     1       3.154   5.254  18.504  0.00  0.00    +0.000 N 
BRANCH  18  19
ATOM     19  C   UNL     1       2.450   4.483  19.472  0.00  0.00    +0.000 A 
ATOM     20  C   UNL     1       1.270   3.826  19.093  0.00  0.00    +0.000 A 
ATOM     21  C   UNL     1       0.580   3.037  20.017  0.00  0.00    +0.000 A 
ATOM     22  C   UNL     1       1.037   2.936  21.329  0.00  0.00    +0.000 A 
ATOM     23  C   UNL     1       2.187   3.620  21.722  0.00  0.00    +0.000 A 
ATOM     24  C   UNL     1       2.901   4.387  20.796  0.00  0.00    +0.000 A 
ENDBRANCH  18  19
BRANCH  16  25
ATOM     25  C   UNL     1       5.549   5.272  15.827  0.00  0.00    +0.000 A 
ATOM     26  C   UNL     1       5.355   4.578  14.649  0.00  0.00    +0.000 A 
ATOM     27  C   UNL     1       6.564   4.428  13.902  0.00  0.00    +0.000 A 
ATOM     28  C   UNL     1       7.635   5.018  14.535  0.00  0.00    +0.000 A 
ATOM     29  S   UNL     1       7.177   5.768  16.002  0.00  0.00    +0.000 S 
ENDBRANCH  16  25
ENDBRANCH   4  14
BRANCH   1  30
ATOM     30  C   UNL     1      -1.063   9.738  17.444  0.00  0.00    +0.000 C 
BRANCH  30  31
ATOM     31  C   UNL     1      -2.515   9.699  17.957  0.00  0.00    +0.000 C 
BRANCH  31  32
ATOM     32  N   UNL     1      -3.508  10.296  17.035  0.00  0.00    +0.000 NA
BRANCH  32  34
ATOM     33  C   UNL     1      -5.327  12.051  16.914  0.00  0.00    +0.000 C 
ATOM     34  C   UNL     1      -4.340  11.268  17.775  0.00  0.00    +0.000 C 
ENDBRANCH  32  34
BRANCH  32  35
ATOM     35  C   UNL     1      -2.921  10.847  15.801  0.00  0.00    +0.000 C 
ATOM     36  C   UNL     1      -3.360  10.196  14.492  0.00  0.00    +0.000 C 
ENDBRANCH  32  35
ENDBRANCH  31  32
ENDBRANCH  30  31
ENDBRANCH   1  30
TORSDOF 8
ENDMDL
MODEL 2
REMARK VINA RESULT:      -7.8      0.606      1.135
REMARK  Name = 
REMARK  10 active torsions:
REMARK  status: ('A' for Active; 'I' for Inactive)
REMARK    1  A    between atoms: C_1  and  C_2
REMARK    2  A    between atoms: C_2  and  N_3
REMARK    3  A    between atoms: N_3  and  C_4
REMARK    4  A    between atoms: N_3  and  C_6
REMARK    5  A    between atoms: C_4  and  C_5
REMARK    6  A    between atoms: C_6  and  C_7
REMARK    7  A    between atoms: C_7  and  N_8
REMARK    8  A    between atoms: C_11  and  C_13
REMARK    9  A    between atoms: C_15  and  C_16
REMARK   10  A    between atoms: N_22  and  C_23
REMARK                            x       y       z     vdW  Elec       q    Type
REMARK                         _______ _______ _______ _____ _____    ______ ____
ROOT
ATOM      1  N   UNL     1      -0.218  10.168  18.394  0.00  0.00    +0.000 N 
ATOM      2  C   UNL     1       1.006   9.636  18.741  0.00  0.00    +0.000 A 
ATOM      3  N   UNL     1       1.586   8.557  18.115  0.00  0.00    +0.000 N 
ATOM      4  C   UNL     1       2.258   7.617  18.883  0.00  0.00    +0.000 C 
ATOM      5  O   UNL     1       2.198   7.573  20.106  0.00  0.00    +0.000 OA
ATOM      6  N   UNL     1       1.540  10.319  19.730  0.00  0.00    +0.000 NA
ATOM      7  C   UNL     1       0.664  11.323  20.022  0.00  0.00    +0.000 A 
ATOM      8  C   UNL     1       0.775  12.359  20.968  0.00  0.00    +0.000 A 
ATOM      9  C   UNL     1      -0.285  13.265  21.102  0.00  0.00    +0.000 A 
ATOM     10  C   UNL     1      -1.433  13.140  20.318  0.00  0.00    +0.000 A 
ATOM     11  C   UNL     1      -1.552  12.124  19.362  0.00  0.00    +0.000 A 
ATOM     12  C   UNL     1      -0.471  11.243  19.224  0.00  0.00    +0.000 A 
ATOM     13  H   UNL     1       1.372   8.355  17.153  0.00  0.00    +0.000 HD
ENDROOT
BRANCH   4  14
ATOM     14  C   UNL     1       2.991   6.628  18.119  0.00  0.00    +0.000 A 
ATOM     15  C   UNL     1       3.808   6.811  17.016  0.00  0.00    +0.000 A 
ATOM     16  C   UNL     1       4.544   5.617  16.881  0.00  0.00    +0.000 A 
ATOM     17  N   UNL     1       4.175   4.710  17.788  0.00  0.00    +0.000 NA
ATOM     18  N   UNL     1       3.165   5.298  18.489  0.00  0.00    +0.000 N 
BRANCH  18  19
ATOM     19  C   UNL     1       2.429   4.510  19.418  0.00  0.00    +0.000 A 
ATOM     20  C   UNL     1       2.886   4.410  20.740  0.00  0.00    +0.000 A 
ATOM     21  C   UNL     1       2.163   3.670  21.678  0.00  0.00    +0.000 A 
ATOM     22  C   UNL     1       1.010   2.990  21.293  0.00  0.00    +0.000 A 
ATOM     23  C   UNL     1       0.573   3.052  19.969  0.00  0.00    +0.000 A 
ATOM     24  C   UNL     1       1.274   3.816  19.032  0.00  0.00    +0.000 A 
ENDBRANCH  18  19
BRANCH  16  25
ATOM     25  C   UNL     1       5.657   5.367  15.903  0.00  0.00    +0.000 A 
ATOM     26  C   UNL     1       6.943   5.851  16.044  0.00  0.00    +0.000 A 
ATOM     27  C   UNL     1       7.778   5.501  14.938  0.00  0.00    +0.000 A 
ATOM     28  C   UNL     1       7.101   4.757  13.998  0.00  0.00    +0.000 A 
ATOM     29  S   UNL     1       5.481   4.464  14.460  0.00  0.00    +0.000 S 
ENDBRANCH  16  25
ENDBRANCH   4  14
BRANCH   1  30
ATOM     30  C   UNL     1      -1.153   9.635  17.417  0.00  0.00    +0.000 C 
BRANCH  30  31
ATOM     31  C   UNL     1      -2.629   9.849  17.802  0.00  0.00    +0.000 C 
BRANCH  31  32
ATOM     32  N   UNL     1      -3.500  10.277  16.683  0.00  0.00    +0.000 NA
BRANCH  32  34
ATOM     33  C   UNL     1      -5.409  10.897  18.224  0.00  0.00    +0.000 C 
ATOM     34  C   UNL     1      -4.414  11.339  17.154  0.00  0.00    +0.000 C 
ENDBRANCH  32  34
BRANCH  32  35
ATOM     35  C   UNL     1      -2.764  10.639  15.459  0.00  0.00    +0.000 C 
ATOM     36  C   UNL     1      -3.344  10.127  14.144  0.00  0.00    +0.000 C 
ENDBRANCH  32  35
ENDBRANCH  31  32
ENDBRANCH  30  31
ENDBRANCH   1  30
TORSDOF 8
ENDMDL
MODEL 3
REMARK VINA RESULT:      -7.8      2.733      9.238
REMARK  Name = 
REMARK  10 active torsions:
REMARK  status: ('A' for Active; 'I' for Inactive)
REMARK    1  A    between atoms: C_1  and  C_2
REMARK    2  A    between atoms: C_2  and  N_3
REMARK    3  A    between atoms: N_3  and  C_4
REMARK    4  A    between atoms: N_3  and  C_6
REMARK    5  A    between atoms: C_4  and  C_5
REMARK    6  A    between atoms: C_6  and  C_7
REMARK    7  A    between atoms: C_7  and  N_8
REMARK    8  A    between atoms: C_11  and  C_13
REMARK    9  A    between atoms: C_15  and  C_16
REMARK   10  A    between atoms: N_22  and  C_23
REMARK                            x       y       z     vdW  Elec       q    Type
REMARK                         _______ _______ _______ _____ _____    ______ ____
ROOT
ATOM      1  N   UNL     1       2.653   6.581  19.446  0.00  0.00    +0.000 N 
ATOM      2  C   UNL     1       2.375   7.855  18.995  0.00  0.00    +0.000 A 
ATOM      3  N   UNL     1       1.489   8.714  19.602  0.00  0.00    +0.000 N 
ATOM      4  C   UNL     1       0.667   9.502  18.808  0.00  0.00    +0.000 C 
ATOM      5  O   UNL     1       0.531   9.338  17.602  0.00  0.00    +0.000 OA
ATOM      6  N   UNL     1       3.091   8.130  17.926  0.00  0.00    +0.000 NA
ATOM      7  C   UNL     1       3.862   7.030  17.685  0.00  0.00    +0.000 A 
ATOM      8  C   UNL     1       4.834   6.821  16.688  0.00  0.00    +0.000 A 
ATOM      9  C   UNL     1       5.479   5.580  16.629  0.00  0.00    +0.000 A 
ATOM     10  C   UNL     1       5.162   4.567  17.535  0.00  0.00    +0.000 A 
ATOM     11  C   UNL     1       4.209   4.765  18.541  0.00  0.00    +0.000 A 
ATOM     12  C   UNL     1       3.592   6.021  18.602  0.00  0.00    +0.000 A 
ATOM     13  H   UNL     1       1.309   8.642  20.589  0.00  0.00    +0.000 HD
ENDROOT
BRANCH   4  14
ATOM     14  C   UNL     1      -0.089  10.503  19.532  0.00  0.00    +0.000 A 
ATOM     15  C   UNL     1       0.217  11.126  20.731  0.00  0.00    +0.000 A 
ATOM     16  C   UNL     1      -0.637  12.244  20.812  0.00  0.00    +0.000 A 
ATOM     17  N   UNL     1      -1.476  12.293  19.775  0.00  0.00    +0.000 NA
ATOM     18  N   UNL     1      -1.198  11.181  19.038  0.00  0.00    +0.000 N 
BRANCH  18  19
ATOM     19  C   UNL     1      -2.058  10.848  17.953  0.00  0.00    +0.000 A 
ATOM     20  C   UNL     1      -2.943   9.769  18.091  0.00  0.00    +0.000 A 
ATOM     21  C   UNL     1      -3.819   9.444  17.053  0.00  0.00    +0.000 A 
ATOM     22  C   UNL     1      -3.785  10.163  15.859  0.00  0.00    +0.000 A 
ATOM     23  C   UNL     1      -2.878  11.210  15.701  0.00  0.00    +0.000 A 
ATOM     24  C   UNL     1      -2.019  11.561  16.747  0.00  0.00    +0.000 A 
ENDBRANCH  18  19
BRANCH  16  25
ATOM     25  C   UNL     1      -0.606  13.310  21.871  0.00  0.00    +0.000 A 
ATOM     26  C   UNL     1      -1.408  13.317  22.996  0.00  0.00    +0.000 A 
ATOM     27  C   UNL     1      -1.200  14.478  23.802  0.00  0.00    +0.000 A 
ATOM     28  C   UNL     1      -0.244  15.312  23.266  0.00  0.00    +0.000 A 
ATOM     29  S   UNL     1       0.413  14.683  21.818  0.00  0.00    +0.000 S 
ENDBRANCH  16  25
ENDBRANCH   4  14
BRANCH   1  30
ATOM     30  C   UNL     1       1.997   5.883  20.539  0.00  0.00    +0.000 C 
BRANCH  30  31
ATOM     31  C   UNL     1       0.980   4.827  20.068  0.00  0.00    +0.000 C 
BRANCH  31  32
ATOM     32  N   UNL     1       1.077   3.525  20.767  0.00  0.00    +0.000 NA
BRANCH  32  34
ATOM     33  C   UNL     1       1.140   2.869  18.324  0.00  0.00    +0.000 C 
ATOM     34  C   UNL     1       0.984   2.431  19.778  0.00  0.00    +0.000 C 
ENDBRANCH  32  34
BRANCH  32  35
ATOM     35  C   UNL     1       2.245   3.412  21.658  0.00  0.00    +0.000 C 
ATOM     36  C   UNL     1       3.330   2.427  21.231  0.00  0.00    +0.000 C 
ENDBRANCH  32  35
ENDBRANCH  31  32
ENDBRANCH  30  31
ENDBRANCH   1  30
TORSDOF 8
ENDMDL
MODEL 4
REMARK VINA RESULT:      -7.7      0.400      1.388
REMARK  Name = 
REMARK  10 active torsions:
REMARK  status: ('A' for Active; 'I' for Inactive)
REMARK    1  A    between atoms: C_1  and  C_2
REMARK    2  A    between atoms: C_2  and  N_3
REMARK    3  A    between atoms: N_3  and  C_4
REMARK    4  A    between atoms: N_3  and  C_6
REMARK    5  A    between atoms: C_4  and  C_5
REMARK    6  A    between atoms: C_6  and  C_7
REMARK    7  A    between atoms: C_7  and  N_8
REMARK    8  A    between atoms: C_11  and  C_13
REMARK    9  A    between atoms: C_15  and  C_16
REMARK   10  A    between atoms: N_22  and  C_23
REMARK                            x       y       z     vdW  Elec       q    Type
REMARK                         _______ _______ _______ _____ _____    ______ ____
ROOT
ATOM      1  N   UNL     1      -0.222  10.154  18.477  0.00  0.00    +0.000 N 
ATOM      2  C   UNL     1       0.991   9.600  18.832  0.00  0.00    +0.000 A 
ATOM      3  N   UNL     1       1.569   8.529  18.191  0.00  0.00    +0.000 N 
ATOM      4  C   UNL     1       2.217   7.564  18.949  0.00  0.00    +0.000 C 
ATOM      5  O   UNL     1       2.136   7.493  20.169  0.00  0.00    +0.000 OA
ATOM      6  N   UNL     1       1.516  10.255  19.845  0.00  0.00    +0.000 NA
ATOM      7  C   UNL     1       0.646  11.262  20.146  0.00  0.00    +0.000 A 
ATOM      8  C   UNL     1       0.753  12.275  21.117  0.00  0.00    +0.000 A 
ATOM      9  C   UNL     1      -0.299  13.189  21.254  0.00  0.00    +0.000 A 
ATOM     10  C   UNL     1      -1.435  13.095  20.448  0.00  0.00    +0.000 A 
ATOM     11  C   UNL     1      -1.549  12.103  19.467  0.00  0.00    +0.000 A 
ATOM     12  C   UNL     1      -0.477  11.213  19.327  0.00  0.00    +0.000 A 
ATOM     13  H   UNL     1       1.369   8.351  17.221  0.00  0.00    +0.000 HD
ENDROOT
BRANCH   4  14
ATOM     14  C   UNL     1       2.952   6.584  18.175  0.00  0.00    +0.000 A 
ATOM     15  C   UNL     1       3.759   6.778  17.067  0.00  0.00    +0.000 A 
ATOM     16  C   UNL     1       4.503   5.590  16.920  0.00  0.00    +0.000 A 
ATOM     17  N   UNL     1       4.148   4.677  17.826  0.00  0.00    +0.000 NA
ATOM     18  N   UNL     1       3.138   5.254  18.537  0.00  0.00    +0.000 N 
BRANCH  18  19
ATOM     19  C   UNL     1       2.415   4.456  19.468  0.00  0.00    +0.000 A 
ATOM     20  C   UNL     1       2.888   4.348  20.784  0.00  0.00    +0.000 A 
ATOM     21  C   UNL     1       2.177   3.597  21.724  0.00  0.00    +0.000 A 
ATOM     22  C   UNL     1       1.022   2.916  21.346  0.00  0.00    +0.000 A 
ATOM     23  C   UNL     1       0.571   2.987  20.028  0.00  0.00    +0.000 A 
ATOM     24  C   UNL     1       1.258   3.761  19.089  0.00  0.00    +0.000 A 
ENDBRANCH  18  19
BRANCH  16  25
ATOM     25  C   UNL     1       5.611   5.353  15.933  0.00  0.00    +0.000 A 
ATOM     26  C   UNL     1       5.424   4.885  14.647  0.00  0.00    +0.000 A 
ATOM     27  C   UNL     1       6.659   4.706  13.951  0.00  0.00    +0.000 A 
ATOM     28  C   UNL     1       7.742   5.049  14.728  0.00  0.00    +0.000 A 
ATOM     29  S   UNL     1       7.268   5.607  16.274  0.00  0.00    +0.000 S 
ENDBRANCH  16  25
ENDBRANCH   4  14
BRANCH   1  30
ATOM     30  C   UNL     1      -1.146   9.654  17.473  0.00  0.00    +0.000 C 
BRANCH  30  31
ATOM     31  C   UNL     1      -2.568  10.228  17.610  0.00  0.00    +0.000 C 
BRANCH  31  32
ATOM     32  N   UNL     1      -3.060  10.945  16.412  0.00  0.00    +0.000 NA
BRANCH  32  34
ATOM     33  C   UNL     1      -3.923  10.098  14.189  0.00  0.00    +0.000 C 
ATOM     34  C   UNL     1      -2.788  10.130  15.209  0.00  0.00    +0.000 C 
ENDBRANCH  32  34
BRANCH  32  35
ATOM     35  C   UNL     1      -4.462  11.386  16.515  0.00  0.00    +0.000 C 
ATOM     36  C   UNL     1      -5.181  11.061  17.822  0.00  0.00    +0.000 C 
ENDBRANCH  32  35
ENDBRANCH  31  32
ENDBRANCH  30  31
ENDBRANCH   1  30
TORSDOF 8
ENDMDL
MODEL 5
REMARK VINA RESULT:      -7.4      3.543      9.576
REMARK  Name = 
REMARK  10 active torsions:
REMARK  status: ('A' for Active; 'I' for Inactive)
REMARK    1  A    between atoms: C_1  and  C_2
REMARK    2  A    between atoms: C_2  and  N_3
REMARK    3  A    between atoms: N_3  and  C_4
REMARK    4  A    between atoms: N_3  and  C_6
REMARK    5  A    between atoms: C_4  and  C_5
REMARK    6  A    between atoms: C_6  and  C_7
REMARK    7  A    between atoms: C_7  and  N_8
REMARK    8  A    between atoms: C_11  and  C_13
REMARK    9  A    between atoms: C_15  and  C_16
REMARK   10  A    between atoms: N_22  and  C_23
REMARK                            x       y       z     vdW  Elec       q    Type
REMARK                         _______ _______ _______ _____ _____    ______ ____
ROOT
ATOM      1  N   UNL     1       2.373   6.910  19.448  0.00  0.00    +0.000 N 
ATOM      2  C   UNL     1       2.148   8.201  19.021  0.00  0.00    +0.000 A 
ATOM      3  N   UNL     1       1.311   9.090  19.655  0.00  0.00    +0.000 N 
ATOM      4  C   UNL     1       0.515   9.928  18.887  0.00  0.00    +0.000 C 
ATOM      5  O   UNL     1       0.354   9.791  17.680  0.00  0.00    +0.000 OA
ATOM      6  N   UNL     1       2.860   8.461  17.946  0.00  0.00    +0.000 NA
ATOM      7  C   UNL     1       3.576   7.332  17.676  0.00  0.00    +0.000 A 
ATOM      8  C   UNL     1       4.522   7.095  16.661  0.00  0.00    +0.000 A 
ATOM      9  C   UNL     1       5.109   5.827  16.572  0.00  0.00    +0.000 A 
ATOM     10  C   UNL     1       4.759   4.814  17.466  0.00  0.00    +0.000 A 
ATOM     11  C   UNL     1       3.831   5.039  18.490  0.00  0.00    +0.000 A 
ATOM     12  C   UNL     1       3.273   6.321  18.581  0.00  0.00    +0.000 A 
ATOM     13  H   UNL     1       1.142   9.010  20.644  0.00  0.00    +0.000 HD
ENDROOT
BRANCH   4  14
ATOM     14  C   UNL     1      -0.184  10.951  19.638  0.00  0.00    +0.000 A 
ATOM     15  C   UNL     1      -1.433  10.891  20.235  0.00  0.00    +0.000 A 
ATOM     16  C   UNL     1      -1.489  11.987  21.119  0.00  0.00    +0.000 A 
ATOM     17  N   UNL     1      -0.385  12.733  21.042  0.00  0.00    +0.000 NA
ATOM     18  N   UNL     1       0.375  12.147  20.073  0.00  0.00    +0.000 N 
BRANCH  18  19
ATOM     19  C   UNL     1       1.546  12.820  19.623  0.00  0.00    +0.000 A 
ATOM     20  C   UNL     1       2.353  13.482  20.560  0.00  0.00    +0.000 A 
ATOM     21  C   UNL     1       3.526  14.120  20.147  0.00  0.00    +0.000 A 
ATOM     22  C   UNL     1       3.872  14.140  18.798  0.00  0.00    +0.000 A 
ATOM     23  C   UNL     1       3.051  13.519  17.857  0.00  0.00    +0.000 A 
ATOM     24  C   UNL     1       1.893  12.851  18.266  0.00  0.00    +0.000 A 
ENDBRANCH  18  19
BRANCH  16  25
ATOM     25  C   UNL     1      -2.594  12.287  22.092  0.00  0.00    +0.000 A 
ATOM     26  C   UNL     1      -2.551  11.984  23.439  0.00  0.00    +0.000 A 
ATOM     27  C   UNL     1      -3.762  12.337  24.112  0.00  0.00    +0.000 A 
ATOM     28  C   UNL     1      -4.681  12.900  23.255  0.00  0.00    +0.000 A 
ATOM     29  S   UNL     1      -4.075  13.026  21.661  0.00  0.00    +0.000 S 
ENDBRANCH  16  25
ENDBRANCH   4  14
BRANCH   1  30
ATOM     30  C   UNL     1       1.702   6.223  20.539  0.00  0.00    +0.000 C 
BRANCH  30  31
ATOM     31  C   UNL     1       0.869   5.012  20.081  0.00  0.00    +0.000 C 
BRANCH  31  32
ATOM     32  N   UNL     1       1.079   3.784  20.881  0.00  0.00    +0.000 NA
BRANCH  32  34
ATOM     33  C   UNL     1       0.933   2.867  18.527  0.00  0.00    +0.000 C 
ATOM     34  C   UNL     1       0.852   2.599  20.027  0.00  0.00    +0.000 C 
ENDBRANCH  32  34
BRANCH  32  35
ATOM     35  C   UNL     1       2.367   3.752  21.597  0.00  0.00    +0.000 C 
ATOM     36  C   UNL     1       3.328   2.629  21.213  0.00  0.00    +0.000 C 
ENDBRANCH  32  35
ENDBRANCH  31  32
ENDBRANCH  30  31
ENDBRANCH   1  30
TORSDOF 8
ENDMDL
MODEL 6
REMARK VINA RESULT:      -7.3      3.066      8.960
REMARK  Name = 
REMARK  10 active torsions:
REMARK  status: ('A' for Active; 'I' for Inactive)
REMARK    1  A    between atoms: C_1  and  C_2
REMARK    2  A    between atoms: C_2  and  N_3
REMARK    3  A    between atoms: N_3  and  C_4
REMARK    4  A    between atoms: N_3  and  C_6
REMARK    5  A    between atoms: C_4  and  C_5
REMARK    6  A    between atoms: C_6  and  C_7
REMARK    7  A    between atoms: C_7  and  N_8
REMARK    8  A    between atoms: C_11  and  C_13
REMARK    9  A    between atoms: C_15  and  C_16
REMARK   10  A    between atoms: N_22  and  C_23
REMARK                            x       y       z     vdW  Elec       q    Type
REMARK                         _______ _______ _______ _____ _____    ______ ____
ROOT
ATOM      1  N   UNL     1       3.538   6.819  17.724  0.00  0.00    +0.000 N 
ATOM      2  C   UNL     1       2.382   7.502  18.041  0.00  0.00    +0.000 A 
ATOM      3  N   UNL     1       2.286   8.873  18.102  0.00  0.00    +0.000 N 
ATOM      4  C   UNL     1       1.527   9.448  19.112  0.00  0.00    +0.000 C 
ATOM      5  O   UNL     1       1.100   8.826  20.077  0.00  0.00    +0.000 OA
ATOM      6  N   UNL     1       1.393   6.660  18.249  0.00  0.00    +0.000 NA
ATOM      7  C   UNL     1       1.902   5.410  18.047  0.00  0.00    +0.000 A 
ATOM      8  C   UNL     1       1.254   4.162  18.101  0.00  0.00    +0.000 A 
ATOM      9  C   UNL     1       2.008   3.003  17.880  0.00  0.00    +0.000 A 
ATOM     10  C   UNL     1       3.377   3.081  17.620  0.00  0.00    +0.000 A 
ATOM     11  C   UNL     1       4.032   4.316  17.549  0.00  0.00    +0.000 A 
ATOM     12  C   UNL     1       3.258   5.466  17.746  0.00  0.00    +0.000 A 
ATOM     13  H   UNL     1       2.896   9.449  17.547  0.00  0.00    +0.000 HD
ENDROOT
BRANCH   4  14
ATOM     14  C   UNL     1       1.333  10.878  18.980  0.00  0.00    +0.000 A 
ATOM     15  C   UNL     1       2.235  11.903  19.211  0.00  0.00    +0.000 A 
ATOM     16  C   UNL     1       1.680  13.047  18.605  0.00  0.00    +0.000 A 
ATOM     17  N   UNL     1       0.478  12.790  18.086  0.00  0.00    +0.000 NA
ATOM     18  N   UNL     1       0.229  11.485  18.392  0.00  0.00    +0.000 N 
BRANCH  18  19
ATOM     19  C   UNL     1      -1.067  10.957  18.131  0.00  0.00    +0.000 A 
ATOM     20  C   UNL     1      -2.169  11.486  18.818  0.00  0.00    +0.000 A 
ATOM     21  C   UNL     1      -3.455  11.008  18.555  0.00  0.00    +0.000 A 
ATOM     22  C   UNL     1      -3.641   9.972  17.642  0.00  0.00    +0.000 A 
ATOM     23  C   UNL     1      -2.544   9.414  16.987  0.00  0.00    +0.000 A 
ATOM     24  C   UNL     1      -1.258   9.908  17.221  0.00  0.00    +0.000 A 
ENDBRANCH  18  19
BRANCH  16  25
ATOM     25  C   UNL     1       2.340  14.391  18.474  0.00  0.00    +0.000 A 
ATOM     26  C   UNL     1       3.641  14.584  18.052  0.00  0.00    +0.000 A 
ATOM     27  C   UNL     1       4.019  15.962  18.074  0.00  0.00    +0.000 A 
ATOM     28  C   UNL     1       2.991  16.770  18.504  0.00  0.00    +0.000 A 
ATOM     29  S   UNL     1       1.577  15.874  18.854  0.00  0.00    +0.000 S 
ENDBRANCH  16  25
ENDBRANCH   4  14
BRANCH   1  30
ATOM     30  C   UNL     1       4.858   7.390  17.521  0.00  0.00    +0.000 C 
BRANCH  30  31
ATOM     31  C   UNL     1       5.516   6.958  16.198  0.00  0.00    +0.000 C 
BRANCH  31  32
ATOM     32  N   UNL     1       6.888   6.417  16.342  0.00  0.00    +0.000 NA
BRANCH  32  34
ATOM     33  C   UNL     1       7.673   5.075  18.338  0.00  0.00    +0.000 C 
ATOM     34  C   UNL     1       7.273   6.434  17.768  0.00  0.00    +0.000 C 
ENDBRANCH  32  34
BRANCH  32  35
ATOM     35  C   UNL     1       7.082   5.107  15.697  0.00  0.00    +0.000 C 
ATOM     36  C   UNL     1       6.120   4.759  14.565  0.00  0.00    +0.000 C 
ENDBRANCH  32  35
ENDBRANCH  31  32
ENDBRANCH  30  31
ENDBRANCH   1  30
TORSDOF 8
ENDMDL
MODEL 7
REMARK VINA RESULT:      -7.2      2.942      9.013
REMARK  Name = 
REMARK  10 active torsions:
REMARK  status: ('A' for Active; 'I' for Inactive)
REMARK    1  A    between atoms: C_1  and  C_2
REMARK    2  A    between atoms: C_2  and  N_3
REMARK    3  A    between atoms: N_3  and  C_4
REMARK    4  A    between atoms: N_3  and  C_6
REMARK    5  A    between atoms: C_4  and  C_5
REMARK    6  A    between atoms: C_6  and  C_7
REMARK    7  A    between atoms: C_7  and  N_8
REMARK    8  A    between atoms: C_11  and  C_13
REMARK    9  A    between atoms: C_15  and  C_16
REMARK   10  A    between atoms: N_22  and  C_23
REMARK                            x       y       z     vdW  Elec       q    Type
REMARK                         _______ _______ _______ _____ _____    ______ ____
ROOT
ATOM      1  N   UNL     1       3.551   6.887  17.832  0.00  0.00    +0.000 N 
ATOM      2  C   UNL     1       2.379   7.574  18.070  0.00  0.00    +0.000 A 
ATOM      3  N   UNL     1       2.290   8.944  18.154  0.00  0.00    +0.000 N 
ATOM      4  C   UNL     1       1.457   9.505  19.112  0.00  0.00    +0.000 C 
ATOM      5  O   UNL     1       0.947   8.866  20.025  0.00  0.00    +0.000 OA
ATOM      6  N   UNL     1       1.369   6.738  18.178  0.00  0.00    +0.000 NA
ATOM      7  C   UNL     1       1.882   5.488  17.990  0.00  0.00    +0.000 A 
ATOM      8  C   UNL     1       1.221   4.246  17.962  0.00  0.00    +0.000 A 
ATOM      9  C   UNL     1       1.981   3.084  17.778  0.00  0.00    +0.000 A 
ATOM     10  C   UNL     1       3.367   3.154  17.631  0.00  0.00    +0.000 A 
ATOM     11  C   UNL     1       4.037   4.382  17.642  0.00  0.00    +0.000 A 
ATOM     12  C   UNL     1       3.259   5.536  17.801  0.00  0.00    +0.000 A 
ATOM     13  H   UNL     1       2.949   9.526  17.663  0.00  0.00    +0.000 HD
ENDROOT
BRANCH   4  14
ATOM     14  C   UNL     1       1.287  10.939  18.997  0.00  0.00    +0.000 A 
ATOM     15  C   UNL     1       2.209  11.946  19.228  0.00  0.00    +0.000 A 
ATOM     16  C   UNL     1       1.667  13.107  18.641  0.00  0.00    +0.000 A 
ATOM     17  N   UNL     1       0.455  12.875  18.132  0.00  0.00    +0.000 NA
ATOM     18  N   UNL     1       0.187  11.572  18.427  0.00  0.00    +0.000 N 
BRANCH  18  19
ATOM     19  C   UNL     1      -1.121  11.070  18.175  0.00  0.00    +0.000 A 
ATOM     20  C   UNL     1      -2.215  11.668  18.816  0.00  0.00    +0.000 A 
ATOM     21  C   UNL     1      -3.512  11.215  18.559  0.00  0.00    +0.000 A 
ATOM     22  C   UNL     1      -3.717  10.136  17.701  0.00  0.00    +0.000 A 
ATOM     23  C   UNL     1      -2.629   9.511  17.093  0.00  0.00    +0.000 A 
ATOM     24  C   UNL     1      -1.331   9.979  17.320  0.00  0.00    +0.000 A 
ENDBRANCH  18  19
BRANCH  16  25
ATOM     25  C   UNL     1       2.349  14.440  18.516  0.00  0.00    +0.000 A 
ATOM     26  C   UNL     1       1.706  15.658  18.616  0.00  0.00    +0.000 A 
ATOM     27  C   UNL     1       2.594  16.758  18.405  0.00  0.00    +0.000 A 
ATOM     28  C   UNL     1       3.882  16.339  18.157  0.00  0.00    +0.000 A 
ATOM     29  S   UNL     1       4.021  14.635  18.207  0.00  0.00    +0.000 S 
ENDBRANCH  16  25
ENDBRANCH   4  14
BRANCH   1  30
ATOM     30  C   UNL     1       4.889   7.448  17.751  0.00  0.00    +0.000 C 
BRANCH  30  31
ATOM     31  C   UNL     1       5.613   7.117  16.433  0.00  0.00    +0.000 C 
BRANCH  31  32
ATOM     32  N   UNL     1       7.039   6.752  16.590  0.00  0.00    +0.000 NA
BRANCH  32  34
ATOM     33  C   UNL     1       8.168   8.670  17.793  0.00  0.00    +0.000 C 
ATOM     34  C   UNL     1       7.541   7.281  17.875  0.00  0.00    +0.000 C 
ENDBRANCH  32  34
BRANCH  32  35
ATOM     35  C   UNL     1       7.311   5.316  16.401  0.00  0.00    +0.000 C 
ATOM     36  C   UNL     1       7.665   4.523  17.656  0.00  0.00    +0.000 C 
ENDBRANCH  32  35
ENDBRANCH  31  32
ENDBRANCH  30  31
ENDBRANCH   1  30
TORSDOF 8
ENDMDL
MODEL 8
REMARK VINA RESULT:      -7.2      3.204      8.980
REMARK  Name = 
REMARK  10 active torsions:
REMARK  status: ('A' for Active; 'I' for Inactive)
REMARK    1  A    between atoms: C_1  and  C_2
REMARK    2  A    between atoms: C_2  and  N_3
REMARK    3  A    between atoms: N_3  and  C_4
REMARK    4  A    between atoms: N_3  and  C_6
REMARK    5  A    between atoms: C_4  and  C_5
REMARK    6  A    between atoms: C_6  and  C_7
REMARK    7  A    between atoms: C_7  and  N_8
REMARK    8  A    between atoms: C_11  and  C_13
REMARK    9  A    between atoms: C_15  and  C_16
REMARK   10  A    between atoms: N_22  and  C_23
REMARK                            x       y       z     vdW  Elec       q    Type
REMARK                         _______ _______ _______ _____ _____    ______ ____
ROOT
ATOM      1  N   UNL     1       3.577   6.817  17.905  0.00  0.00    +0.000 N 
ATOM      2  C   UNL     1       2.400   7.514  18.083  0.00  0.00    +0.000 A 
ATOM      3  N   UNL     1       2.318   8.884  18.167  0.00  0.00    +0.000 N 
ATOM      4  C   UNL     1       1.440   9.450  19.081  0.00  0.00    +0.000 C 
ATOM      5  O   UNL     1       0.879   8.813  19.965  0.00  0.00    +0.000 OA
ATOM      6  N   UNL     1       1.379   6.686  18.137  0.00  0.00    +0.000 NA
ATOM      7  C   UNL     1       1.891   5.432  17.972  0.00  0.00    +0.000 A 
ATOM      8  C   UNL     1       1.222   4.195  17.907  0.00  0.00    +0.000 A 
ATOM      9  C   UNL     1       1.981   3.027  17.759  0.00  0.00    +0.000 A 
ATOM     10  C   UNL     1       3.373   3.086  17.685  0.00  0.00    +0.000 A 
ATOM     11  C   UNL     1       4.052   4.309  17.733  0.00  0.00    +0.000 A 
ATOM     12  C   UNL     1       3.276   5.469  17.855  0.00  0.00    +0.000 A 
ATOM     13  H   UNL     1       3.005   9.462  17.712  0.00  0.00    +0.000 HD
ENDROOT
BRANCH   4  14
ATOM     14  C   UNL     1       1.288  10.885  18.961  0.00  0.00    +0.000 A 
ATOM     15  C   UNL     1       2.228  11.881  19.171  0.00  0.00    +0.000 A 
ATOM     16  C   UNL     1       1.692  13.045  18.587  0.00  0.00    +0.000 A 
ATOM     17  N   UNL     1       0.468  12.828  18.101  0.00  0.00    +0.000 NA
ATOM     18  N   UNL     1       0.187  11.530  18.408  0.00  0.00    +0.000 N 
BRANCH  18  19
ATOM     19  C   UNL     1      -1.132  11.045  18.182  0.00  0.00    +0.000 A 
ATOM     20  C   UNL     1      -1.327  10.004  17.263  0.00  0.00    +0.000 A 
ATOM     21  C   UNL     1      -2.608   9.488  17.049  0.00  0.00    +0.000 A 
ATOM     22  C   UNL     1      -3.702  10.036  17.715  0.00  0.00    +0.000 A 
ATOM     23  C   UNL     1      -3.519  11.099  18.600  0.00  0.00    +0.000 A 
ATOM     24  C   UNL     1      -2.236  11.600  18.842  0.00  0.00    +0.000 A 
ENDBRANCH  18  19
BRANCH  16  25
ATOM     25  C   UNL     1       2.390  14.368  18.442  0.00  0.00    +0.000 A 
ATOM     26  C   UNL     1       3.708  14.517  18.058  0.00  0.00    +0.000 A 
ATOM     27  C   UNL     1       4.120  15.886  18.056  0.00  0.00    +0.000 A 
ATOM     28  C   UNL     1       3.100  16.730  18.433  0.00  0.00    +0.000 A 
ATOM     29  S   UNL     1       1.653  15.879  18.760  0.00  0.00    +0.000 S 
ENDBRANCH  16  25
ENDBRANCH   4  14
BRANCH   1  30
ATOM     30  C   UNL     1       4.921   7.368  17.894  0.00  0.00    +0.000 C 
BRANCH  30  31
ATOM     31  C   UNL     1       5.632   7.222  16.536  0.00  0.00    +0.000 C 
BRANCH  31  32
ATOM     32  N   UNL     1       7.048   6.797  16.626  0.00  0.00    +0.000 NA
BRANCH  32  34
ATOM     33  C   UNL     1       8.122   8.767  17.797  0.00  0.00    +0.000 C 
ATOM     34  C   UNL     1       7.638   7.321  17.876  0.00  0.00    +0.000 C 
ENDBRANCH  32  34
BRANCH  32  35
ATOM     35  C   UNL     1       7.249   5.349  16.446  0.00  0.00    +0.000 C 
ATOM     36  C   UNL     1       7.664   4.563  17.687  0.00  0.00    +0.000 C 
ENDBRANCH  32  35
ENDBRANCH  31  32
ENDBRANCH  30  31
ENDBRANCH   1  30
TORSDOF 8
ENDMDL
MODEL 9
REMARK VINA RESULT:      -7.2      2.582      9.088
REMARK  Name = 
REMARK  10 active torsions:
REMARK  status: ('A' for Active; 'I' for Inactive)
REMARK    1  A    between atoms: C_1  and  C_2
REMARK    2  A    between atoms: C_2  and  N_3
REMARK    3  A    between atoms: N_3  and  C_4
REMARK    4  A    between atoms: N_3  and  C_6
REMARK    5  A    between atoms: C_4  and  C_5
REMARK    6  A    between atoms: C_6  and  C_7
REMARK    7  A    between atoms: C_7  and  N_8
REMARK    8  A    between atoms: C_11  and  C_13
REMARK    9  A    between atoms: C_15  and  C_16
REMARK   10  A    between atoms: N_22  and  C_23
REMARK                            x       y       z     vdW  Elec       q    Type
REMARK                         _______ _______ _______ _____ _____    ______ ____
ROOT
ATOM      1  N   UNL     1       2.924   6.605  19.130  0.00  0.00    +0.000 N 
ATOM      2  C   UNL     1       2.706   7.878  18.647  0.00  0.00    +0.000 A 
ATOM      3  N   UNL     1       1.920   8.818  19.273  0.00  0.00    +0.000 N 
ATOM      4  C   UNL     1       1.105   9.633  18.500  0.00  0.00    +0.000 C 
ATOM      5  O   UNL     1       0.883   9.439  17.311  0.00  0.00    +0.000 OA
ATOM      6  N   UNL     1       3.370   8.066  17.528  0.00  0.00    +0.000 NA
ATOM      7  C   UNL     1       4.049   6.907  17.283  0.00  0.00    +0.000 A 
ATOM      8  C   UNL     1       4.939   6.596  16.239  0.00  0.00    +0.000 A 
ATOM      9  C   UNL     1       5.495   5.312  16.188  0.00  0.00    +0.000 A 
ATOM     10  C   UNL     1       5.167   4.355  17.150  0.00  0.00    +0.000 A 
ATOM     11  C   UNL     1       4.294   4.654  18.203  0.00  0.00    +0.000 A 
ATOM     12  C   UNL     1       3.769   5.951  18.253  0.00  0.00    +0.000 A 
ATOM     13  H   UNL     1       1.797   8.792  20.271  0.00  0.00    +0.000 HD
ENDROOT
BRANCH   4  14
ATOM     14  C   UNL     1       0.465  10.709  19.229  0.00  0.00    +0.000 A 
ATOM     15  C   UNL     1       0.955  11.455  20.288  0.00  0.00    +0.000 A 
ATOM     16  C   UNL     1       0.111  12.579  20.391  0.00  0.00    +0.000 A 
ATOM     17  N   UNL     1      -0.887  12.521  19.507  0.00  0.00    +0.000 NA
ATOM     18  N   UNL     1      -0.720  11.335  18.856  0.00  0.00    +0.000 N 
BRANCH  18  19
ATOM     19  C   UNL     1      -1.742  10.892  17.970  0.00  0.00    +0.000 A 
ATOM     20  C   UNL     1      -1.908  11.547  16.741  0.00  0.00    +0.000 A 
ATOM     21  C   UNL     1      -2.882  11.110  15.840  0.00  0.00    +0.000 A 
ATOM     22  C   UNL     1      -3.721  10.050  16.178  0.00  0.00    +0.000 A 
ATOM     23  C   UNL     1      -3.587   9.421  17.416  0.00  0.00    +0.000 A 
ATOM     24  C   UNL     1      -2.594   9.833  18.311  0.00  0.00    +0.000 A 
ENDBRANCH  18  19
BRANCH  16  25
ATOM     25  C   UNL     1       0.302  13.751  21.311  0.00  0.00    +0.000 A 
ATOM     26  C   UNL     1      -0.687  14.282  22.115  0.00  0.00    +0.000 A 
ATOM     27  C   UNL     1      -0.237  15.425  22.845  0.00  0.00    +0.000 A 
ATOM     28  C   UNL     1       1.080  15.721  22.576  0.00  0.00    +0.000 A 
ATOM     29  S   UNL     1       1.772  14.612  21.472  0.00  0.00    +0.000 S 
ENDBRANCH  16  25
ENDBRANCH   4  14
BRANCH   1  30
ATOM     30  C   UNL     1       2.292   5.991  20.286  0.00  0.00    +0.000 C 
BRANCH  30  31
ATOM     31  C   UNL     1       1.161   5.013  19.918  0.00  0.00    +0.000 C 
BRANCH  31  32
ATOM     32  N   UNL     1       1.569   3.590  19.877  0.00  0.00    +0.000 NA
BRANCH  32  34
ATOM     33  C   UNL     1       2.493   2.374  21.895  0.00  0.00    +0.000 C 
ATOM     34  C   UNL     1       1.277   2.960  21.182  0.00  0.00    +0.000 C 
ENDBRANCH  32  34
BRANCH  32  35
ATOM     35  C   UNL     1       1.018   2.845  18.731  0.00  0.00    +0.000 C 
ATOM     36  C   UNL     1       2.019   2.052  17.896  0.00  0.00    +0.000 C 
ENDBRANCH  32  35
ENDBRANCH  31  32
ENDBRANCH  30  31
ENDBRANCH   1  30
TORSDOF 8
ENDMDL
