MODEL 1
REMARK VINA RESULT:      -6.1      0.000      0.000
REMARK  Name = 
REMARK  8 active torsions:
REMARK  status: ('A' for Active; 'I' for Inactive)
REMARK    1  A    between atoms: C_2  and  N_3
REMARK    2  A    between atoms: C_2  and  C_7
REMARK    3  A    between atoms: C_4  and  C_5
REMARK    4  A    between atoms: N_9  and  C_10
REMARK    5  A    between atoms: C_10  and  C_11
REMARK    6  A    between atoms: C_10  and  C_12
REMARK    7  A    between atoms: C_10  and  C_13
REMARK    8  A    between atoms: C_13  and  C_14
REMARK                            x       y       z     vdW  Elec       q    Type
REMARK                         _______ _______ _______ _____ _____    ______ ____
ROOT
ATOM      1  C   UNL     1       4.836   4.626  18.903  0.00  0.00    +0.000 C 
ATOM      2  O   UNL     1       5.410   3.663  19.409  0.00  0.00    +0.000 OA
ATOM      3  N   UNL     1       5.468   5.637  18.208  0.00  0.00    +0.000 N 
ATOM      4  H   UNL     1       4.897   6.272  17.668  0.00  0.00    +0.000 HD
ENDROOT
BRANCH   3   5
ATOM      5  C   UNL     1       6.931   5.746  18.040  0.00  0.00    +0.000 C 
ATOM      6  C   UNL     1       7.632   5.778  19.411  0.00  0.00    +0.000 C 
ATOM      7  C   UNL     1       7.456   4.554  17.214  0.00  0.00    +0.000 C 
BRANCH   5   8
ATOM      8  C   UNL     1       7.291   7.036  17.239  0.00  0.00    +0.000 C 
ATOM      9  C   UNL     1       8.070   8.108  17.994  0.00  0.00    +0.000 C 
ENDBRANCH   5   8
ENDBRANCH   3   5
BRANCH   1  11
ATOM     10  C   UNL     1       2.593   5.303  18.048  0.00  0.00    +0.000 C 
ATOM     11  C   UNL     1       3.319   4.680  18.988  0.00  0.00    +0.000 C 
BRANCH  11  12
ATOM     12  N   UNL     1       2.799   4.108  20.142  0.00  0.00    +0.000 N 
ATOM     13  C   UNL     1       2.134   2.908  20.281  0.00  0.00    +0.000 C 
ATOM     14  C   UNL     1       1.665   2.609  21.686  0.00  0.00    +0.000 C 
ATOM     15  O   UNL     1       1.922   2.095  19.390  0.00  0.00    +0.000 OA
ATOM     16  H   UNL     1       2.888   4.706  20.963  0.00  0.00    +0.000 HD
ENDBRANCH  11  12
ENDBRANCH   1  11
TORSDOF 4
ENDMDL
MODEL 2
REMARK VINA RESULT:      -6.0      1.388      2.117
REMARK  Name = 
REMARK  8 active torsions:
REMARK  status: ('A' for Active; 'I' for Inactive)
REMARK    1  A    between atoms: C_2  and  N_3
REMARK    2  A    between atoms: C_2  and  C_7
REMARK    3  A    between atoms: C_4  and  C_5
REMARK    4  A    between atoms: N_9  and  C_10
REMARK    5  A    between atoms: C_10  and  C_11
REMARK    6  A    between atoms: C_10  and  C_12
REMARK    7  A    between atoms: C_10  and  C_13
REMARK    8  A    between atoms: C_13  and  C_14
REMARK                            x       y       z     vdW  Elec       q    Type
REMARK                         _______ _______ _______ _____ _____    ______ ____
ROOT
ATOM      1  C   UNL     1       4.871   4.905  18.981  0.00  0.00    +0.000 C 
ATOM      2  O   UNL     1       5.339   3.825  19.337  0.00  0.00    +0.000 OA
ATOM      3  N   UNL     1       5.594   5.907  18.366  0.00  0.00    +0.000 N 
ATOM      4  H   UNL     1       5.084   6.667  17.938  0.00  0.00    +0.000 HD
ENDROOT
BRANCH   3   5
ATOM      5  C   UNL     1       7.048   5.855  18.118  0.00  0.00    +0.000 C 
ATOM      6  C   UNL     1       7.525   7.142  17.419  0.00  0.00    +0.000 C 
ATOM      7  C   UNL     1       7.803   5.676  19.452  0.00  0.00    +0.000 C 
BRANCH   5   8
ATOM      8  C   UNL     1       7.405   4.618  17.237  0.00  0.00    +0.000 C 
ATOM      9  C   UNL     1       6.902   4.644  15.797  0.00  0.00    +0.000 C 
ENDBRANCH   5   8
ENDBRANCH   3   5
BRANCH   1  11
ATOM     10  C   UNL     1       2.884   6.369  19.339  0.00  0.00    +0.000 C 
ATOM     11  C   UNL     1       3.379   5.135  19.169  0.00  0.00    +0.000 C 
BRANCH  11  12
ATOM     12  N   UNL     1       2.632   3.965  19.223  0.00  0.00    +0.000 N 
ATOM     13  C   UNL     1       1.621   3.552  18.381  0.00  0.00    +0.000 C 
ATOM     14  C   UNL     1       0.989   2.233  18.758  0.00  0.00    +0.000 C 
ATOM     15  O   UNL     1       1.228   4.145  17.383  0.00  0.00    +0.000 OA
ATOM     16  H   UNL     1       2.846   3.388  20.035  0.00  0.00    +0.000 HD
ENDBRANCH  11  12
ENDBRANCH   1  11
TORSDOF 4
ENDMDL
MODEL 3
REMARK VINA RESULT:      -5.9      2.112      5.609
REMARK  Name = 
REMARK  8 active torsions:
REMARK  status: ('A' for Active; 'I' for Inactive)
REMARK    1  A    between atoms: C_2  and  N_3
REMARK    2  A    between atoms: C_2  and  C_7
REMARK    3  A    between atoms: C_4  and  C_5
REMARK    4  A    between atoms: N_9  and  C_10
REMARK    5  A    between atoms: C_10  and  C_11
REMARK    6  A    between atoms: C_10  and  C_12
REMARK    7  A    between atoms: C_10  and  C_13
REMARK    8  A    between atoms: C_13  and  C_14
REMARK                            x       y       z     vdW  Elec       q    Type
REMARK                         _______ _______ _______ _____ _____    ______ ____
ROOT
ATOM      1  C   UNL     1       5.476   4.523  18.812  0.00  0.00    +0.000 C 
ATOM      2  O   UNL     1       5.108   5.285  19.704  0.00  0.00    +0.000 OA
ATOM      3  N   UNL     1       4.739   3.453  18.344  0.00  0.00    +0.000 N 
ATOM      4  H   UNL     1       5.035   3.012  17.485  0.00  0.00    +0.000 HD
ENDROOT
BRANCH   3   5
ATOM      5  C   UNL     1       3.441   3.027  18.903  0.00  0.00    +0.000 C 
ATOM      6  C   UNL     1       2.397   4.152  18.769  0.00  0.00    +0.000 C 
ATOM      7  C   UNL     1       2.942   1.764  18.170  0.00  0.00    +0.000 C 
BRANCH   5   8
ATOM      8  C   UNL     1       3.598   2.636  20.405  0.00  0.00    +0.000 C 
ATOM      9  C   UNL     1       2.454   3.033  21.332  0.00  0.00    +0.000 C 
ENDBRANCH   5   8
ENDBRANCH   3   5
BRANCH   1  11
ATOM     10  C   UNL     1       7.770   5.496  18.748  0.00  0.00    +0.000 C 
ATOM     11  C   UNL     1       6.801   4.810  18.125  0.00  0.00    +0.000 C 
BRANCH  11  12
ATOM     12  N   UNL     1       6.860   4.372  16.808  0.00  0.00    +0.000 N 
ATOM     13  C   UNL     1       6.460   5.032  15.665  0.00  0.00    +0.000 C 
ATOM     14  C   UNL     1       6.632   4.239  14.390  0.00  0.00    +0.000 C 
ATOM     15  O   UNL     1       6.012   6.170  15.611  0.00  0.00    +0.000 OA
ATOM     16  H   UNL     1       7.196   3.414  16.718  0.00  0.00    +0.000 HD
ENDBRANCH  11  12
ENDBRANCH   1  11
TORSDOF 4
ENDMDL
MODEL 4
REMARK VINA RESULT:      -5.9      2.226      5.576
REMARK  Name = 
REMARK  8 active torsions:
REMARK  status: ('A' for Active; 'I' for Inactive)
REMARK    1  A    between atoms: C_2  and  N_3
REMARK    2  A    between atoms: C_2  and  C_7
REMARK    3  A    between atoms: C_4  and  C_5
REMARK    4  A    between atoms: N_9  and  C_10
REMARK    5  A    between atoms: C_10  and  C_11
REMARK    6  A    between atoms: C_10  and  C_12
REMARK    7  A    between atoms: C_10  and  C_13
REMARK    8  A    between atoms: C_13  and  C_14
REMARK                            x       y       z     vdW  Elec       q    Type
REMARK                         _______ _______ _______ _____ _____    ______ ____
ROOT
ATOM      1  C   UNL     1       5.366   4.505  18.617  0.00  0.00    +0.000 C 
ATOM      2  O   UNL     1       5.051   5.335  19.468  0.00  0.00    +0.000 OA
ATOM      3  N   UNL     1       4.581   3.435  18.239  0.00  0.00    +0.000 N 
ATOM      4  H   UNL     1       4.837   2.931  17.402  0.00  0.00    +0.000 HD
ENDROOT
BRANCH   3   5
ATOM      5  C   UNL     1       3.287   3.090  18.860  0.00  0.00    +0.000 C 
ATOM      6  C   UNL     1       2.582   1.978  18.060  0.00  0.00    +0.000 C 
ATOM      7  C   UNL     1       3.508   2.625  20.314  0.00  0.00    +0.000 C 
BRANCH   5   8
ATOM      8  C   UNL     1       2.366   4.347  18.929  0.00  0.00    +0.000 C 
ATOM      9  C   UNL     1       1.538   4.512  20.200  0.00  0.00    +0.000 C 
ENDBRANCH   5   8
ENDBRANCH   3   5
BRANCH   1  11
ATOM     10  C   UNL     1       7.700   5.366  18.440  0.00  0.00    +0.000 C 
ATOM     11  C   UNL     1       6.680   4.703  17.877  0.00  0.00    +0.000 C 
BRANCH  11  12
ATOM     12  N   UNL     1       6.674   4.211  16.578  0.00  0.00    +0.000 N 
ATOM     13  C   UNL     1       6.295   4.853  15.417  0.00  0.00    +0.000 C 
ATOM     14  C   UNL     1       6.377   4.001  14.173  0.00  0.00    +0.000 C 
ATOM     15  O   UNL     1       5.931   6.020  15.327  0.00  0.00    +0.000 OA
ATOM     16  H   UNL     1       6.935   3.227  16.519  0.00  0.00    +0.000 HD
ENDBRANCH  11  12
ENDBRANCH   1  11
TORSDOF 4
ENDMDL
MODEL 5
REMARK VINA RESULT:      -5.9      2.155      5.761
REMARK  Name = 
REMARK  8 active torsions:
REMARK  status: ('A' for Active; 'I' for Inactive)
REMARK    1  A    between atoms: C_2  and  N_3
REMARK    2  A    between atoms: C_2  and  C_7
REMARK    3  A    between atoms: C_4  and  C_5
REMARK    4  A    between atoms: N_9  and  C_10
REMARK    5  A    between atoms: C_10  and  C_11
REMARK    6  A    between atoms: C_10  and  C_12
REMARK    7  A    between atoms: C_10  and  C_13
REMARK    8  A    between atoms: C_13  and  C_14
REMARK                            x       y       z     vdW  Elec       q    Type
REMARK                         _______ _______ _______ _____ _____    ______ ____
ROOT
ATOM      1  C   UNL     1       5.245   4.151  18.435  0.00  0.00    +0.000 C 
ATOM      2  O   UNL     1       5.443   3.704  19.564  0.00  0.00    +0.000 OA
ATOM      3  N   UNL     1       4.010   4.530  17.950  0.00  0.00    +0.000 N 
ATOM      4  H   UNL     1       3.980   5.063  17.092  0.00  0.00    +0.000 HD
ENDROOT
BRANCH   3   5
ATOM      5  C   UNL     1       2.741   4.380  18.689  0.00  0.00    +0.000 C 
ATOM      6  C   UNL     1       2.609   5.473  19.766  0.00  0.00    +0.000 C 
ATOM      7  C   UNL     1       1.550   4.466  17.713  0.00  0.00    +0.000 C 
BRANCH   5   8
ATOM      8  C   UNL     1       2.666   2.974  19.360  0.00  0.00    +0.000 C 
ATOM      9  C   UNL     1       1.591   2.788  20.427  0.00  0.00    +0.000 C 
ENDBRANCH   5   8
ENDBRANCH   3   5
BRANCH   1  11
ATOM     10  C   UNL     1       7.558   4.964  17.981  0.00  0.00    +0.000 C 
ATOM     11  C   UNL     1       6.447   4.365  17.529  0.00  0.00    +0.000 C 
BRANCH  11  12
ATOM     12  N   UNL     1       6.241   3.961  16.216  0.00  0.00    +0.000 N 
ATOM     13  C   UNL     1       6.708   4.542  15.056  0.00  0.00    +0.000 C 
ATOM     14  C   UNL     1       6.256   3.859  13.786  0.00  0.00    +0.000 C 
ATOM     15  O   UNL     1       7.444   5.518  14.986  0.00  0.00    +0.000 OA
ATOM     16  H   UNL     1       5.614   3.162  16.135  0.00  0.00    +0.000 HD
ENDBRANCH  11  12
ENDBRANCH   1  11
TORSDOF 4
ENDMDL
MODEL 6
REMARK VINA RESULT:      -5.8      2.230      5.503
REMARK  Name = 
REMARK  8 active torsions:
REMARK  status: ('A' for Active; 'I' for Inactive)
REMARK    1  A    between atoms: C_2  and  N_3
REMARK    2  A    between atoms: C_2  and  C_7
REMARK    3  A    between atoms: C_4  and  C_5
REMARK    4  A    between atoms: N_9  and  C_10
REMARK    5  A    between atoms: C_10  and  C_11
REMARK    6  A    between atoms: C_10  and  C_12
REMARK    7  A    between atoms: C_10  and  C_13
REMARK    8  A    between atoms: C_13  and  C_14
REMARK                            x       y       z     vdW  Elec       q    Type
REMARK                         _______ _______ _______ _____ _____    ______ ____
ROOT
ATOM      1  C   UNL     1       5.258   4.028  18.447  0.00  0.00    +0.000 C 
ATOM      2  O   UNL     1       5.494   3.523  19.544  0.00  0.00    +0.000 OA
ATOM      3  N   UNL     1       3.995   4.183  17.913  0.00  0.00    +0.000 N 
ATOM      4  H   UNL     1       3.891   4.780  17.105  0.00  0.00    +0.000 HD
ENDROOT
BRANCH   3   5
ATOM      5  C   UNL     1       2.754   3.694  18.547  0.00  0.00    +0.000 C 
ATOM      6  C   UNL     1       1.517   4.247  17.815  0.00  0.00    +0.000 C 
ATOM      7  C   UNL     1       2.725   2.151  18.527  0.00  0.00    +0.000 C 
BRANCH   5   8
ATOM      8  C   UNL     1       2.707   4.120  20.047  0.00  0.00    +0.000 C 
ATOM      9  C   UNL     1       1.967   5.416  20.361  0.00  0.00    +0.000 C 
ENDBRANCH   5   8
ENDBRANCH   3   5
BRANCH   1  11
ATOM     10  C   UNL     1       7.267   5.480  18.181  0.00  0.00    +0.000 C 
ATOM     11  C   UNL     1       6.427   4.582  17.648  0.00  0.00    +0.000 C 
BRANCH  11  12
ATOM     12  N   UNL     1       6.474   4.133  16.334  0.00  0.00    +0.000 N 
ATOM     13  C   UNL     1       6.099   4.798  15.185  0.00  0.00    +0.000 C 
ATOM     14  C   UNL     1       6.247   3.991  13.917  0.00  0.00    +0.000 C 
ATOM     15  O   UNL     1       5.691   5.951  15.123  0.00  0.00    +0.000 OA
ATOM     16  H   UNL     1       6.776   3.163  16.251  0.00  0.00    +0.000 HD
ENDBRANCH  11  12
ENDBRANCH   1  11
TORSDOF 4
ENDMDL
MODEL 7
REMARK VINA RESULT:      -5.8      2.273      5.644
REMARK  Name = 
REMARK  8 active torsions:
REMARK  status: ('A' for Active; 'I' for Inactive)
REMARK    1  A    between atoms: C_2  and  N_3
REMARK    2  A    between atoms: C_2  and  C_7
REMARK    3  A    between atoms: C_4  and  C_5
REMARK    4  A    between atoms: N_9  and  C_10
REMARK    5  A    between atoms: C_10  and  C_11
REMARK    6  A    between atoms: C_10  and  C_12
REMARK    7  A    between atoms: C_10  and  C_13
REMARK    8  A    between atoms: C_13  and  C_14
REMARK                            x       y       z     vdW  Elec       q    Type
REMARK                         _______ _______ _______ _____ _____    ______ ____
ROOT
ATOM      1  C   UNL     1       5.222   4.387  18.123  0.00  0.00    +0.000 C 
ATOM      2  O   UNL     1       5.121   3.652  19.104  0.00  0.00    +0.000 OA
ATOM      3  N   UNL     1       4.287   5.334  17.755  0.00  0.00    +0.000 N 
ATOM      4  H   UNL     1       4.551   6.015  17.058  0.00  0.00    +0.000 HD
ENDROOT
BRANCH   3   5
ATOM      5  C   UNL     1       2.997   5.544  18.442  0.00  0.00    +0.000 C 
ATOM      6  C   UNL     1       3.140   5.283  19.953  0.00  0.00    +0.000 C 
ATOM      7  C   UNL     1       2.504   6.986  18.206  0.00  0.00    +0.000 C 
BRANCH   5   8
ATOM      8  C   UNL     1       1.907   4.599  17.850  0.00  0.00    +0.000 C 
ATOM      9  C   UNL     1       1.577   3.350  18.662  0.00  0.00    +0.000 C 
ENDBRANCH   5   8
ENDBRANCH   3   5
BRANCH   1  11
ATOM     10  C   UNL     1       7.679   4.659  17.799  0.00  0.00    +0.000 C 
ATOM     11  C   UNL     1       6.492   4.300  17.291  0.00  0.00    +0.000 C 
BRANCH  11  12
ATOM     12  N   UNL     1       6.278   3.902  15.977  0.00  0.00    +0.000 N 
ATOM     13  C   UNL     1       6.724   4.497  14.816  0.00  0.00    +0.000 C 
ATOM     14  C   UNL     1       6.269   3.816  13.547  0.00  0.00    +0.000 C 
ATOM     15  O   UNL     1       7.446   5.485  14.745  0.00  0.00    +0.000 OA
ATOM     16  H   UNL     1       5.661   3.095  15.897  0.00  0.00    +0.000 HD
ENDBRANCH  11  12
ENDBRANCH   1  11
TORSDOF 4
ENDMDL
MODEL 8
REMARK VINA RESULT:      -5.8      2.579      5.852
REMARK  Name = 
REMARK  8 active torsions:
REMARK  status: ('A' for Active; 'I' for Inactive)
REMARK    1  A    between atoms: C_2  and  N_3
REMARK    2  A    between atoms: C_2  and  C_7
REMARK    3  A    between atoms: C_4  and  C_5
REMARK    4  A    between atoms: N_9  and  C_10
REMARK    5  A    between atoms: C_10  and  C_11
REMARK    6  A    between atoms: C_10  and  C_12
REMARK    7  A    between atoms: C_10  and  C_13
REMARK    8  A    between atoms: C_13  and  C_14
REMARK                            x       y       z     vdW  Elec       q    Type
REMARK                         _______ _______ _______ _____ _____    ______ ____
ROOT
ATOM      1  C   UNL     1       4.866   4.641  17.740  0.00  0.00    +0.000 C 
ATOM      2  O   UNL     1       4.534   5.802  17.976  0.00  0.00    +0.000 OA
ATOM      3  N   UNL     1       4.082   3.535  18.002  0.00  0.00    +0.000 N 
ATOM      4  H   UNL     1       4.357   2.652  17.595  0.00  0.00    +0.000 HD
ENDROOT
BRANCH   3   5
ATOM      5  C   UNL     1       2.769   3.583  18.675  0.00  0.00    +0.000 C 
ATOM      6  C   UNL     1       1.770   4.418  17.852  0.00  0.00    +0.000 C 
ATOM      7  C   UNL     1       2.222   2.153  18.863  0.00  0.00    +0.000 C 
BRANCH   5   8
ATOM      8  C   UNL     1       2.912   4.196  20.102  0.00  0.00    +0.000 C 
ATOM      9  C   UNL     1       1.920   5.294  20.471  0.00  0.00    +0.000 C 
ENDBRANCH   5   8
ENDBRANCH   3   5
BRANCH   1  11
ATOM     10  C   UNL     1       7.358   4.659  17.676  0.00  0.00    +0.000 C 
ATOM     11  C   UNL     1       6.200   4.404  17.050  0.00  0.00    +0.000 C 
BRANCH  11  12
ATOM     12  N   UNL     1       6.086   3.991  15.729  0.00  0.00    +0.000 N 
ATOM     13  C   UNL     1       6.712   4.502  14.612  0.00  0.00    +0.000 C 
ATOM     14  C   UNL     1       6.325   3.833  13.314  0.00  0.00    +0.000 C 
ATOM     15  O   UNL     1       7.537   5.408  14.601  0.00  0.00    +0.000 OA
ATOM     16  H   UNL     1       5.399   3.249  15.598  0.00  0.00    +0.000 HD
ENDBRANCH  11  12
ENDBRANCH   1  11
TORSDOF 4
ENDMDL
MODEL 9
REMARK VINA RESULT:      -5.8      2.043      5.612
REMARK  Name = 
REMARK  8 active torsions:
REMARK  status: ('A' for Active; 'I' for Inactive)
REMARK    1  A    between atoms: C_2  and  N_3
REMARK    2  A    between atoms: C_2  and  C_7
REMARK    3  A    between atoms: C_4  and  C_5
REMARK    4  A    between atoms: N_9  and  C_10
REMARK    5  A    between atoms: C_10  and  C_11
REMARK    6  A    between atoms: C_10  and  C_12
REMARK    7  A    between atoms: C_10  and  C_13
REMARK    8  A    between atoms: C_13  and  C_14
REMARK                            x       y       z     vdW  Elec       q    Type
REMARK                         _______ _______ _______ _____ _____    ______ ____
ROOT
ATOM      1  C   UNL     1       4.509   3.920  18.875  0.00  0.00    +0.000 C 
ATOM      2  O   UNL     1       4.310   2.715  18.726  0.00  0.00    +0.000 OA
ATOM      3  N   UNL     1       3.643   4.783  19.516  0.00  0.00    +0.000 N 
ATOM      4  H   UNL     1       3.983   5.703  19.758  0.00  0.00    +0.000 HD
ENDROOT
BRANCH   3   5
ATOM      5  C   UNL     1       2.320   4.397  20.044  0.00  0.00    +0.000 C 
ATOM      6  C   UNL     1       2.460   3.277  21.091  0.00  0.00    +0.000 C 
ATOM      7  C   UNL     1       1.630   5.622  20.680  0.00  0.00    +0.000 C 
BRANCH   5   8
ATOM      8  C   UNL     1       1.392   3.916  18.886  0.00  0.00    +0.000 C 
ATOM      9  C   UNL     1       0.822   2.507  19.014  0.00  0.00    +0.000 C 
ENDBRANCH   5   8
ENDBRANCH   3   5
BRANCH   1  11
ATOM     10  C   UNL     1       6.534   5.352  19.129  0.00  0.00    +0.000 C 
ATOM     11  C   UNL     1       5.828   4.493  18.381  0.00  0.00    +0.000 C 
BRANCH  11  12
ATOM     12  N   UNL     1       6.161   4.107  17.089  0.00  0.00    +0.000 N 
ATOM     13  C   UNL     1       5.813   4.706  15.896  0.00  0.00    +0.000 C 
ATOM     14  C   UNL     1       6.317   3.992  14.664  0.00  0.00    +0.000 C 
ATOM     15  O   UNL     1       5.168   5.740  15.772  0.00  0.00    +0.000 OA
ATOM     16  H   UNL     1       6.683   3.232  17.053  0.00  0.00    +0.000 HD
ENDBRANCH  11  12
ENDBRANCH   1  11
TORSDOF 4
ENDMDL
