MODEL 1
REMARK VINA RESULT:      -7.9      0.000      0.000
REMARK  Name = 
REMARK  5 active torsions:
REMARK  status: ('A' for Active; 'I' for Inactive)
REMARK    1  A    between atoms: C_1  and  N_2
REMARK    2  A    between atoms: C_3  and  S_4
REMARK    3  A    between atoms: S_4  and  C_5
REMARK    4  A    between atoms: N_13  and  C_14
REMARK    5  A    between atoms: C_25  and  C_26
REMARK                            x       y       z     vdW  Elec       q    Type
REMARK                         _______ _______ _______ _____ _____    ______ ____
ROOT
ATOM      1  C   UNL     1       2.380   7.201  19.312  0.00  0.00    +0.000 A 
ATOM      2  C   UNL     1       2.540   7.449  17.972  0.00  0.00    +0.000 A 
ATOM      3  C   UNL     1       2.117   8.687  17.557  0.00  0.00    +0.000 A 
ATOM      4  N   UNL     1       1.559   9.594  18.379  0.00  0.00    +0.000 NA
ATOM      5  C   UNL     1       1.411   9.267  19.670  0.00  0.00    +0.000 A 
ATOM      6  N   UNL     1       0.772  10.135  20.511  0.00  0.00    +0.000 N 
ATOM      7  C   UNL     1       0.269  11.431  20.053  0.00  0.00    +0.000 C 
ATOM      8  C   UNL     1      -1.189  11.632  20.522  0.00  0.00    +0.000 C 
ATOM      9  N   UNL     1      -1.319  11.394  21.974  0.00  0.00    +0.000 N 
ATOM     10  C   UNL     1      -0.816  10.081  22.420  0.00  0.00    +0.000 C 
ATOM     11  C   UNL     1       0.642   9.863  21.944  0.00  0.00    +0.000 C 
ATOM     12  N   UNL     1       1.833   8.093  20.160  0.00  0.00    +0.000 NA
ENDROOT
BRANCH   9  13
ATOM     13  C   UNL     1      -1.804  12.339  22.854  0.00  0.00    +0.000 A 
ATOM     14  C   UNL     1      -3.061  12.211  23.455  0.00  0.00    +0.000 A 
ATOM     15  C   UNL     1      -3.511  13.184  24.338  0.00  0.00    +0.000 A 
ATOM     16  N   UNL     1      -2.805  14.279  24.676  0.00  0.00    +0.000 NA
ATOM     17  C   UNL     1      -1.597  14.400  24.094  0.00  0.00    +0.000 A 
ATOM     18  C   UNL     1      -1.070  13.479  23.197  0.00  0.00    +0.000 A 
ENDBRANCH   9  13
BRANCH   1  19
ATOM     19  S   UNL     1       2.716   5.599  20.007  0.00  0.00    +0.000 S 
BRANCH  19  22
ATOM     20  C   UNL     1       3.386   4.010  17.160  0.00  0.00    +0.000 C 
ATOM     21  N   UNL     1       4.376   4.594  18.031  0.00  0.00    +0.000 N 
ATOM     22  C   UNL     1       4.217   5.200  19.245  0.00  0.00    +0.000 A 
ATOM     23  N   UNL     1       5.384   5.619  19.683  0.00  0.00    +0.000 NA
ATOM     24  N   UNL     1       6.335   5.278  18.752  0.00  0.00    +0.000 NA
ATOM     25  C   UNL     1       5.728   4.659  17.754  0.00  0.00    +0.000 A 
BRANCH  25  26
ATOM     26  C   UNL     1       6.421   4.157  16.586  0.00  0.00    +0.000 C 
ATOM     27  N   UNL     1       7.743   4.497  16.503  0.00  0.00    +0.000 N 
ATOM     28  O   UNL     1       5.911   3.471  15.705  0.00  0.00    +0.000 OA
ATOM     29  H   UNL     1       8.172   5.060  17.230  0.00  0.00    +0.000 HD
ATOM     30  H   UNL     1       8.286   4.177  15.718  0.00  0.00    +0.000 HD
ENDBRANCH  25  26
ENDBRANCH  19  22
ENDBRANCH   1  19
TORSDOF 4
ENDMDL
MODEL 2
REMARK VINA RESULT:      -7.5      4.394     10.581
REMARK  Name = 
REMARK  5 active torsions:
REMARK  status: ('A' for Active; 'I' for Inactive)
REMARK    1  A    between atoms: C_1  and  N_2
REMARK    2  A    between atoms: C_3  and  S_4
REMARK    3  A    between atoms: S_4  and  C_5
REMARK    4  A    between atoms: N_13  and  C_14
REMARK    5  A    between atoms: C_25  and  C_26
REMARK                            x       y       z     vdW  Elec       q    Type
REMARK                         _______ _______ _______ _____ _____    ______ ____
ROOT
ATOM      1  C   UNL     1      -1.465  12.934  20.955  0.00  0.00    +0.000 A 
ATOM      2  C   UNL     1      -1.394  13.804  19.897  0.00  0.00    +0.000 A 
ATOM      3  C   UNL     1      -0.855  13.278  18.750  0.00  0.00    +0.000 A 
ATOM      4  N   UNL     1      -0.400  12.016  18.655  0.00  0.00    +0.000 NA
ATOM      5  C   UNL     1      -0.479  11.234  19.740  0.00  0.00    +0.000 A 
ATOM      6  N   UNL     1       0.052   9.975  19.698  0.00  0.00    +0.000 N 
ATOM      7  C   UNL     1       0.679   9.438  18.490  0.00  0.00    +0.000 C 
ATOM      8  C   UNL     1       2.048   8.811  18.835  0.00  0.00    +0.000 C 
ATOM      9  N   UNL     1       1.929   7.852  19.951  0.00  0.00    +0.000 N 
ATOM     10  C   UNL     1       1.303   8.410  21.165  0.00  0.00    +0.000 C 
ATOM     11  C   UNL     1      -0.066   9.052  20.829  0.00  0.00    +0.000 C 
ATOM     12  N   UNL     1      -1.025  11.662  20.887  0.00  0.00    +0.000 NA
ENDROOT
BRANCH   9  13
ATOM     13  C   UNL     1       2.304   6.528  19.854  0.00  0.00    +0.000 A 
ATOM     14  C   UNL     1       3.293   6.105  18.959  0.00  0.00    +0.000 A 
ATOM     15  C   UNL     1       3.643   4.763  18.894  0.00  0.00    +0.000 A 
ATOM     16  N   UNL     1       3.087   3.802  19.655  0.00  0.00    +0.000 NA
ATOM     17  C   UNL     1       2.134   4.212  20.513  0.00  0.00    +0.000 A 
ATOM     18  C   UNL     1       1.719   5.531  20.642  0.00  0.00    +0.000 A 
ENDBRANCH   9  13
BRANCH   1  19
ATOM     19  S   UNL     1      -1.980  13.473  22.569  0.00  0.00    +0.000 S 
BRANCH  19  22
ATOM     20  C   UNL     1      -4.143  12.449  24.884  0.00  0.00    +0.000 C 
ATOM     21  N   UNL     1      -4.494  12.832  23.539  0.00  0.00    +0.000 N 
ATOM     22  C   UNL     1      -3.687  13.195  22.499  0.00  0.00    +0.000 A 
ATOM     23  N   UNL     1      -4.425  13.497  21.454  0.00  0.00    +0.000 NA
ATOM     24  N   UNL     1      -5.743  13.321  21.799  0.00  0.00    +0.000 NA
ATOM     25  C   UNL     1      -5.786  12.921  23.058  0.00  0.00    +0.000 A 
BRANCH  25  26
ATOM     26  C   UNL     1      -7.018  12.638  23.764  0.00  0.00    +0.000 C 
ATOM     27  N   UNL     1      -7.520  13.677  24.497  0.00  0.00    +0.000 N 
ATOM     28  O   UNL     1      -7.613  11.563  23.742  0.00  0.00    +0.000 OA
ATOM     29  H   UNL     1      -7.037  14.569  24.516  0.00  0.00    +0.000 HD
ATOM     30  H   UNL     1      -8.378  13.550  25.010  0.00  0.00    +0.000 HD
ENDBRANCH  25  26
ENDBRANCH  19  22
ENDBRANCH   1  19
TORSDOF 4
ENDMDL
MODEL 3
REMARK VINA RESULT:      -7.4      0.919      1.377
REMARK  Name = 
REMARK  5 active torsions:
REMARK  status: ('A' for Active; 'I' for Inactive)
REMARK    1  A    between atoms: C_1  and  N_2
REMARK    2  A    between atoms: C_3  and  S_4
REMARK    3  A    between atoms: S_4  and  C_5
REMARK    4  A    between atoms: N_13  and  C_14
REMARK    5  A    between atoms: C_25  and  C_26
REMARK                            x       y       z     vdW  Elec       q    Type
REMARK                         _______ _______ _______ _____ _____    ______ ____
ROOT
ATOM      1  C   UNL     1       2.178   7.571  19.323  0.00  0.00    +0.000 A 
ATOM      2  C   UNL     1       2.352   7.876  17.997  0.00  0.00    +0.000 A 
ATOM      3  C   UNL     1       1.941   9.134  17.632  0.00  0.00    +0.000 A 
ATOM      4  N   UNL     1       1.382  10.008  18.487  0.00  0.00    +0.000 NA
ATOM      5  C   UNL     1       1.222   9.628  19.762  0.00  0.00    +0.000 A 
ATOM      6  N   UNL     1       0.581  10.464  20.634  0.00  0.00    +0.000 N 
ATOM      7  C   UNL     1       0.092  11.782  20.227  0.00  0.00    +0.000 C 
ATOM      8  C   UNL     1      -1.369  11.974  20.693  0.00  0.00    +0.000 C 
ATOM      9  N   UNL     1      -1.513  11.675  22.132  0.00  0.00    +0.000 N 
ATOM     10  C   UNL     1      -1.023  10.340  22.526  0.00  0.00    +0.000 C 
ATOM     11  C   UNL     1       0.437  10.132  22.053  0.00  0.00    +0.000 C 
ATOM     12  N   UNL     1       1.630   8.431  20.205  0.00  0.00    +0.000 NA
ENDROOT
BRANCH   9  13
ATOM     13  C   UNL     1      -1.999  12.585  23.048  0.00  0.00    +0.000 A 
ATOM     14  C   UNL     1      -3.256  12.434  23.643  0.00  0.00    +0.000 A 
ATOM     15  C   UNL     1      -3.707  13.371  24.563  0.00  0.00    +0.000 A 
ATOM     16  N   UNL     1      -3.001  14.453  24.943  0.00  0.00    +0.000 NA
ATOM     17  C   UNL     1      -1.793  14.597  24.367  0.00  0.00    +0.000 A 
ATOM     18  C   UNL     1      -1.266  13.711  23.435  0.00  0.00    +0.000 A 
ENDBRANCH   9  13
BRANCH   1  19
ATOM     19  S   UNL     1       2.497   5.940  19.952  0.00  0.00    +0.000 S 
BRANCH  19  22
ATOM     20  C   UNL     1       5.717   5.900  19.109  0.00  0.00    +0.000 C 
ATOM     21  N   UNL     1       4.671   5.204  18.402  0.00  0.00    +0.000 N 
ATOM     22  C   UNL     1       3.322   5.210  18.618  0.00  0.00    +0.000 A 
ATOM     23  N   UNL     1       2.736   4.407  17.757  0.00  0.00    +0.000 NA
ATOM     24  N   UNL     1       3.707   3.868  16.949  0.00  0.00    +0.000 NA
ATOM     25  C   UNL     1       4.876   4.347  17.338  0.00  0.00    +0.000 A 
BRANCH  25  26
ATOM     26  C   UNL     1       6.133   3.993  16.711  0.00  0.00    +0.000 C 
ATOM     27  N   UNL     1       6.026   3.210  15.596  0.00  0.00    +0.000 N 
ATOM     28  O   UNL     1       7.241   4.343  17.108  0.00  0.00    +0.000 OA
ATOM     29  H   UNL     1       5.113   2.921  15.260  0.00  0.00    +0.000 HD
ATOM     30  H   UNL     1       6.862   2.929  15.108  0.00  0.00    +0.000 HD
ENDBRANCH  25  26
ENDBRANCH  19  22
ENDBRANCH   1  19
TORSDOF 4
ENDMDL
MODEL 4
REMARK VINA RESULT:      -7.4      4.171      9.956
REMARK  Name = 
REMARK  5 active torsions:
REMARK  status: ('A' for Active; 'I' for Inactive)
REMARK    1  A    between atoms: C_1  and  N_2
REMARK    2  A    between atoms: C_3  and  S_4
REMARK    3  A    between atoms: S_4  and  C_5
REMARK    4  A    between atoms: N_13  and  C_14
REMARK    5  A    between atoms: C_25  and  C_26
REMARK                            x       y       z     vdW  Elec       q    Type
REMARK                         _______ _______ _______ _____ _____    ______ ____
ROOT
ATOM      1  C   UNL     1      -0.485  11.228  20.724  0.00  0.00    +0.000 A 
ATOM      2  C   UNL     1      -0.960  10.933  21.976  0.00  0.00    +0.000 A 
ATOM      3  C   UNL     1      -0.446   9.791  22.538  0.00  0.00    +0.000 A 
ATOM      4  N   UNL     1       0.437   8.991  21.914  0.00  0.00    +0.000 NA
ATOM      5  C   UNL     1       0.834   9.332  20.680  0.00  0.00    +0.000 A 
ATOM      6  N   UNL     1       1.666   8.495  19.990  0.00  0.00    +0.000 N 
ATOM      7  C   UNL     1       2.166   7.248  20.570  0.00  0.00    +0.000 C 
ATOM      8  C   UNL     1       1.973   6.083  19.573  0.00  0.00    +0.000 C 
ATOM      9  N   UNL     1       2.529   6.418  18.247  0.00  0.00    +0.000 N 
ATOM     10  C   UNL     1       2.010   7.674  17.672  0.00  0.00    +0.000 C 
ATOM     11  C   UNL     1       2.187   8.847  18.668  0.00  0.00    +0.000 C 
ATOM     12  N   UNL     1       0.407  10.450  20.079  0.00  0.00    +0.000 NA
ENDROOT
BRANCH   9  13
ATOM     13  C   UNL     1       3.502   5.666  17.623  0.00  0.00    +0.000 A 
ATOM     14  C   UNL     1       3.536   4.271  17.726  0.00  0.00    +0.000 A 
ATOM     15  C   UNL     1       4.532   3.550  17.081  0.00  0.00    +0.000 A 
ATOM     16  N   UNL     1       5.501   4.109  16.332  0.00  0.00    +0.000 NA
ATOM     17  C   UNL     1       5.467   5.452  16.237  0.00  0.00    +0.000 A 
ATOM     18  C   UNL     1       4.512   6.251  16.852  0.00  0.00    +0.000 A 
ENDBRANCH   9  13
BRANCH   1  19
ATOM     19  S   UNL     1      -1.150  12.572  19.769  0.00  0.00    +0.000 S 
BRANCH  19  22
ATOM     20  C   UNL     1      -4.439  12.838  20.211  0.00  0.00    +0.000 C 
ATOM     21  N   UNL     1      -3.806  12.038  19.192  0.00  0.00    +0.000 N 
ATOM     22  C   UNL     1      -2.478  11.804  18.969  0.00  0.00    +0.000 A 
ATOM     23  N   UNL     1      -2.339  11.039  17.910  0.00  0.00    +0.000 NA
ATOM     24  N   UNL     1      -3.591  10.748  17.427  0.00  0.00    +0.000 NA
ATOM     25  C   UNL     1      -4.478  11.352  18.199  0.00  0.00    +0.000 A 
BRANCH  25  26
ATOM     26  C   UNL     1      -5.908  11.271  17.987  0.00  0.00    +0.000 C 
ATOM     27  N   UNL     1      -6.392  12.056  16.978  0.00  0.00    +0.000 N 
ATOM     28  O   UNL     1      -6.678  10.566  18.635  0.00  0.00    +0.000 OA
ATOM     29  H   UNL     1      -5.762  12.637  16.436  0.00  0.00    +0.000 HD
ATOM     30  H   UNL     1      -7.379  12.045  16.774  0.00  0.00    +0.000 HD
ENDBRANCH  25  26
ENDBRANCH  19  22
ENDBRANCH   1  19
TORSDOF 4
ENDMDL
MODEL 5
REMARK VINA RESULT:      -7.4      0.488      1.005
REMARK  Name = 
REMARK  5 active torsions:
REMARK  status: ('A' for Active; 'I' for Inactive)
REMARK    1  A    between atoms: C_1  and  N_2
REMARK    2  A    between atoms: C_3  and  S_4
REMARK    3  A    between atoms: S_4  and  C_5
REMARK    4  A    between atoms: N_13  and  C_14
REMARK    5  A    between atoms: C_25  and  C_26
REMARK                            x       y       z     vdW  Elec       q    Type
REMARK                         _______ _______ _______ _____ _____    ______ ____
ROOT
ATOM      1  C   UNL     1       2.123   7.504  19.448  0.00  0.00    +0.000 A 
ATOM      2  C   UNL     1       2.264   7.752  18.106  0.00  0.00    +0.000 A 
ATOM      3  C   UNL     1       1.836   8.991  17.698  0.00  0.00    +0.000 A 
ATOM      4  N   UNL     1       1.291   9.898  18.528  0.00  0.00    +0.000 NA
ATOM      5  C   UNL     1       1.162   9.571  19.821  0.00  0.00    +0.000 A 
ATOM      6  N   UNL     1       0.536  10.440  20.671  0.00  0.00    +0.000 N 
ATOM      7  C   UNL     1       0.028  11.736  20.220  0.00  0.00    +0.000 C 
ATOM      8  C   UNL     1      -1.423  11.939  20.711  0.00  0.00    +0.000 C 
ATOM      9  N   UNL     1      -1.532  11.701  22.164  0.00  0.00    +0.000 N 
ATOM     10  C   UNL     1      -1.023  10.387  22.603  0.00  0.00    +0.000 C 
ATOM     11  C   UNL     1       0.427  10.168  22.106  0.00  0.00    +0.000 C 
ATOM     12  N   UNL     1       1.589   8.397  20.305  0.00  0.00    +0.000 NA
ENDROOT
BRANCH   9  13
ATOM     13  C   UNL     1      -2.003  12.646  23.052  0.00  0.00    +0.000 A 
ATOM     14  C   UNL     1      -1.214  13.725  23.468  0.00  0.00    +0.000 A 
ATOM     15  C   UNL     1      -1.727  14.656  24.362  0.00  0.00    +0.000 A 
ATOM     16  N   UNL     1      -2.969  14.601  24.876  0.00  0.00    +0.000 NA
ATOM     17  C   UNL     1      -3.724  13.561  24.476  0.00  0.00    +0.000 A 
ATOM     18  C   UNL     1      -3.292  12.582  23.590  0.00  0.00    +0.000 A 
ENDBRANCH   9  13
BRANCH   1  19
ATOM     19  S   UNL     1       2.467   5.902  20.138  0.00  0.00    +0.000 S 
BRANCH  19  22
ATOM     20  C   UNL     1       2.850   4.198  17.304  0.00  0.00    +0.000 C 
ATOM     21  N   UNL     1       3.924   4.793  18.060  0.00  0.00    +0.000 N 
ATOM     22  C   UNL     1       3.886   5.445  19.260  0.00  0.00    +0.000 A 
ATOM     23  N   UNL     1       5.095   5.856  19.574  0.00  0.00    +0.000 NA
ATOM     24  N   UNL     1       5.952   5.462  18.576  0.00  0.00    +0.000 NA
ATOM     25  C   UNL     1       5.246   4.821  17.660  0.00  0.00    +0.000 A 
BRANCH  25  26
ATOM     26  C   UNL     1       5.821   4.262  16.455  0.00  0.00    +0.000 C 
ATOM     27  N   UNL     1       7.157   3.978  16.526  0.00  0.00    +0.000 N 
ATOM     28  O   UNL     1       5.204   4.038  15.417  0.00  0.00    +0.000 OA
ATOM     29  H   UNL     1       7.672   4.156  17.381  0.00  0.00    +0.000 HD
ATOM     30  H   UNL     1       7.621   3.583  15.723  0.00  0.00    +0.000 HD
ENDBRANCH  25  26
ENDBRANCH  19  22
ENDBRANCH   1  19
TORSDOF 4
ENDMDL
MODEL 6
REMARK VINA RESULT:      -7.4      3.018      3.935
REMARK  Name = 
REMARK  5 active torsions:
REMARK  status: ('A' for Active; 'I' for Inactive)
REMARK    1  A    between atoms: C_1  and  N_2
REMARK    2  A    between atoms: C_3  and  S_4
REMARK    3  A    between atoms: S_4  and  C_5
REMARK    4  A    between atoms: N_13  and  C_14
REMARK    5  A    between atoms: C_25  and  C_26
REMARK                            x       y       z     vdW  Elec       q    Type
REMARK                         _______ _______ _______ _____ _____    ______ ____
ROOT
ATOM      1  C   UNL     1       1.976   7.996  19.207  0.00  0.00    +0.000 A 
ATOM      2  C   UNL     1       1.834   7.289  20.374  0.00  0.00    +0.000 A 
ATOM      3  C   UNL     1       1.082   7.909  21.340  0.00  0.00    +0.000 A 
ATOM      4  N   UNL     1       0.539   9.130  21.186  0.00  0.00    +0.000 NA
ATOM      5  C   UNL     1       0.744   9.769  20.026  0.00  0.00    +0.000 A 
ATOM      6  N   UNL     1       0.275  11.045  19.873  0.00  0.00    +0.000 N 
ATOM      7  C   UNL     1      -0.477  11.726  20.928  0.00  0.00    +0.000 C 
ATOM      8  C   UNL     1       0.096  13.143  21.159  0.00  0.00    +0.000 C 
ATOM      9  N   UNL     1       0.200  13.889  19.889  0.00  0.00    +0.000 N 
ATOM     10  C   UNL     1       0.967  13.193  18.838  0.00  0.00    +0.000 C 
ATOM     11  C   UNL     1       0.409  11.767  18.607  0.00  0.00    +0.000 C 
ATOM     12  N   UNL     1       1.435   9.216  19.021  0.00  0.00    +0.000 NA
ENDROOT
BRANCH   9  13
ATOM     13  C   UNL     1      -0.422  15.101  19.671  0.00  0.00    +0.000 A 
ATOM     14  C   UNL     1      -0.106  15.905  18.571  0.00  0.00    +0.000 A 
ATOM     15  C   UNL     1      -0.757  17.118  18.387  0.00  0.00    +0.000 A 
ATOM     16  N   UNL     1      -1.705  17.596  19.213  0.00  0.00    +0.000 NA
ATOM     17  C   UNL     1      -2.005  16.822  20.273  0.00  0.00    +0.000 A 
ATOM     18  C   UNL     1      -1.402  15.599  20.536  0.00  0.00    +0.000 A 
ENDBRANCH   9  13
BRANCH   1  19
ATOM     19  S   UNL     1       3.045   7.433  17.903  0.00  0.00    +0.000 S 
BRANCH  19  22
ATOM     20  C   UNL     1       5.158   5.216  19.208  0.00  0.00    +0.000 C 
ATOM     21  N   UNL     1       3.846   4.903  18.698  0.00  0.00    +0.000 N 
ATOM     22  C   UNL     1       2.936   5.715  18.083  0.00  0.00    +0.000 A 
ATOM     23  N   UNL     1       1.851   5.027  17.806  0.00  0.00    +0.000 NA
ATOM     24  N   UNL     1       2.045   3.736  18.232  0.00  0.00    +0.000 NA
ATOM     25  C   UNL     1       3.249   3.660  18.772  0.00  0.00    +0.000 A 
BRANCH  25  26
ATOM     26  C   UNL     1       3.797   2.443  19.334  0.00  0.00    +0.000 C 
ATOM     27  N   UNL     1       4.079   1.459  18.427  0.00  0.00    +0.000 N 
ATOM     28  O   UNL     1       4.015   2.253  20.528  0.00  0.00    +0.000 OA
ATOM     29  H   UNL     1       3.907   1.611  17.439  0.00  0.00    +0.000 HD
ATOM     30  H   UNL     1       4.467   0.587  18.750  0.00  0.00    +0.000 HD
ENDBRANCH  25  26
ENDBRANCH  19  22
ENDBRANCH   1  19
TORSDOF 4
ENDMDL
MODEL 7
REMARK VINA RESULT:      -7.3      3.287      4.292
REMARK  Name = 
REMARK  5 active torsions:
REMARK  status: ('A' for Active; 'I' for Inactive)
REMARK    1  A    between atoms: C_1  and  N_2
REMARK    2  A    between atoms: C_3  and  S_4
REMARK    3  A    between atoms: S_4  and  C_5
REMARK    4  A    between atoms: N_13  and  C_14
REMARK    5  A    between atoms: C_25  and  C_26
REMARK                            x       y       z     vdW  Elec       q    Type
REMARK                         _______ _______ _______ _____ _____    ______ ____
ROOT
ATOM      1  C   UNL     1       2.514   7.686  18.870  0.00  0.00    +0.000 A 
ATOM      2  C   UNL     1       2.108   7.038  20.009  0.00  0.00    +0.000 A 
ATOM      3  C   UNL     1       1.323   7.783  20.852  0.00  0.00    +0.000 A 
ATOM      4  N   UNL     1       0.987   9.064  20.614  0.00  0.00    +0.000 NA
ATOM      5  C   UNL     1       1.444   9.637  19.492  0.00  0.00    +0.000 A 
ATOM      6  N   UNL     1       1.189  10.961  19.265  0.00  0.00    +0.000 N 
ATOM      7  C   UNL     1       0.400  11.769  20.196  0.00  0.00    +0.000 C 
ATOM      8  C   UNL     1       1.131  13.097  20.498  0.00  0.00    +0.000 C 
ATOM      9  N   UNL     1       1.519  13.787  19.251  0.00  0.00    +0.000 N 
ATOM     10  C   UNL     1       2.320  12.962  18.326  0.00  0.00    +0.000 C 
ATOM     11  C   UNL     1       1.603  11.623  18.026  0.00  0.00    +0.000 C 
ATOM     12  N   UNL     1       2.185   8.965  18.600  0.00  0.00    +0.000 NA
ENDROOT
BRANCH   9  13
ATOM     13  C   UNL     1       1.114  15.068  18.938  0.00  0.00    +0.000 A 
ATOM     14  C   UNL     1       2.032  16.077  18.627  0.00  0.00    +0.000 A 
ATOM     15  C   UNL     1       1.583  17.353  18.316  0.00  0.00    +0.000 A 
ATOM     16  N   UNL     1       0.285  17.708  18.285  0.00  0.00    +0.000 NA
ATOM     17  C   UNL     1      -0.596  16.736  18.588  0.00  0.00    +0.000 A 
ATOM     18  C   UNL     1      -0.235  15.435  18.915  0.00  0.00    +0.000 A 
ENDBRANCH   9  13
BRANCH   1  19
ATOM     19  S   UNL     1       3.666   6.944  17.738  0.00  0.00    +0.000 S 
BRANCH  19  22
ATOM     20  C   UNL     1       1.806   4.187  17.572  0.00  0.00    +0.000 C 
ATOM     21  N   UNL     1       3.075   4.286  18.250  0.00  0.00    +0.000 N 
ATOM     22  C   UNL     1       3.878   5.376  18.438  0.00  0.00    +0.000 A 
ATOM     23  N   UNL     1       4.963   5.015  19.087  0.00  0.00    +0.000 NA
ATOM     24  N   UNL     1       4.876   3.668  19.344  0.00  0.00    +0.000 NA
ATOM     25  C   UNL     1       3.737   3.227  18.839  0.00  0.00    +0.000 A 
BRANCH  25  26
ATOM     26  C   UNL     1       3.310   1.846  18.920  0.00  0.00    +0.000 C 
ATOM     27  N   UNL     1       4.179   0.936  18.386  0.00  0.00    +0.000 N 
ATOM     28  O   UNL     1       2.256   1.463  19.420  0.00  0.00    +0.000 OA
ATOM     29  H   UNL     1       5.053   1.245  17.975  0.00  0.00    +0.000 HD
ATOM     30  H   UNL     1       3.945  -0.044  18.412  0.00  0.00    +0.000 HD
ENDBRANCH  25  26
ENDBRANCH  19  22
ENDBRANCH   1  19
TORSDOF 4
ENDMDL
MODEL 8
REMARK VINA RESULT:      -7.3      4.343     10.587
REMARK  Name = 
REMARK  5 active torsions:
REMARK  status: ('A' for Active; 'I' for Inactive)
REMARK    1  A    between atoms: C_1  and  N_2
REMARK    2  A    between atoms: C_3  and  S_4
REMARK    3  A    between atoms: S_4  and  C_5
REMARK    4  A    between atoms: N_13  and  C_14
REMARK    5  A    between atoms: C_25  and  C_26
REMARK                            x       y       z     vdW  Elec       q    Type
REMARK                         _______ _______ _______ _____ _____    ______ ____
ROOT
ATOM      1  C   UNL     1      -1.032  13.107  21.439  0.00  0.00    +0.000 A 
ATOM      2  C   UNL     1      -1.109  14.029  20.426  0.00  0.00    +0.000 A 
ATOM      3  C   UNL     1      -0.802  13.547  19.178  0.00  0.00    +0.000 A 
ATOM      4  N   UNL     1      -0.424  12.277  18.946  0.00  0.00    +0.000 NA
ATOM      5  C   UNL     1      -0.346  11.442  19.992  0.00  0.00    +0.000 A 
ATOM      6  N   UNL     1       0.116  10.170  19.799  0.00  0.00    +0.000 N 
ATOM      7  C   UNL     1       0.499   9.676  18.476  0.00  0.00    +0.000 C 
ATOM      8  C   UNL     1       1.880   8.986  18.545  0.00  0.00    +0.000 C 
ATOM      9  N   UNL     1       1.916   7.974  19.619  0.00  0.00    +0.000 N 
ATOM     10  C   UNL     1       1.535   8.488  20.949  0.00  0.00    +0.000 C 
ATOM     11  C   UNL     1       0.157   9.193  20.889  0.00  0.00    +0.000 C 
ATOM     12  N   UNL     1      -0.665  11.826  21.235  0.00  0.00    +0.000 NA
ENDROOT
BRANCH   9  13
ATOM     13  C   UNL     1       2.212   6.645  19.397  0.00  0.00    +0.000 A 
ATOM     14  C   UNL     1       2.763   6.204  18.189  0.00  0.00    +0.000 A 
ATOM     15  C   UNL     1       3.048   4.857  18.006  0.00  0.00    +0.000 A 
ATOM     16  N   UNL     1       2.830   3.908  18.936  0.00  0.00    +0.000 NA
ATOM     17  C   UNL     1       2.297   4.336  20.096  0.00  0.00    +0.000 A 
ATOM     18  C   UNL     1       1.977   5.661  20.362  0.00  0.00    +0.000 A 
ENDBRANCH   9  13
BRANCH   1  19
ATOM     19  S   UNL     1      -1.234  13.577  23.141  0.00  0.00    +0.000 S 
BRANCH  19  22
ATOM     20  C   UNL     1      -3.862  15.589  22.785  0.00  0.00    +0.000 C 
ATOM     21  N   UNL     1      -3.935  14.193  23.138  0.00  0.00    +0.000 N 
ATOM     22  C   UNL     1      -2.926  13.303  23.377  0.00  0.00    +0.000 A 
ATOM     23  N   UNL     1      -3.437  12.120  23.637  0.00  0.00    +0.000 NA
ATOM     24  N   UNL     1      -4.806  12.226  23.581  0.00  0.00    +0.000 NA
ATOM     25  C   UNL     1      -5.108  13.477  23.279  0.00  0.00    +0.000 A 
BRANCH  25  26
ATOM     26  C   UNL     1      -6.465  13.958  23.132  0.00  0.00    +0.000 C 
ATOM     27  N   UNL     1      -7.089  14.303  24.299  0.00  0.00    +0.000 N 
ATOM     28  O   UNL     1      -7.062  14.069  22.065  0.00  0.00    +0.000 OA
ATOM     29  H   UNL     1      -6.600  14.218  25.184  0.00  0.00    +0.000 HD
ATOM     30  H   UNL     1      -8.035  14.649  24.269  0.00  0.00    +0.000 HD
ENDBRANCH  25  26
ENDBRANCH  19  22
ENDBRANCH   1  19
TORSDOF 4
ENDMDL
MODEL 9
REMARK VINA RESULT:      -7.3      0.693      1.494
REMARK  Name = 
REMARK  5 active torsions:
REMARK  status: ('A' for Active; 'I' for Inactive)
REMARK    1  A    between atoms: C_1  and  N_2
REMARK    2  A    between atoms: C_3  and  S_4
REMARK    3  A    between atoms: S_4  and  C_5
REMARK    4  A    between atoms: N_13  and  C_14
REMARK    5  A    between atoms: C_25  and  C_26
REMARK                            x       y       z     vdW  Elec       q    Type
REMARK                         _______ _______ _______ _____ _____    ______ ____
ROOT
ATOM      1  C   UNL     1       2.342   7.470  19.197  0.00  0.00    +0.000 A 
ATOM      2  C   UNL     1       2.440   7.728  17.853  0.00  0.00    +0.000 A 
ATOM      3  C   UNL     1       1.951   8.948  17.460  0.00  0.00    +0.000 A 
ATOM      4  N   UNL     1       1.388   9.829  18.306  0.00  0.00    +0.000 NA
ATOM      5  C   UNL     1       1.304   9.494  19.601  0.00  0.00    +0.000 A 
ATOM      6  N   UNL     1       0.662  10.332  20.469  0.00  0.00    +0.000 N 
ATOM      7  C   UNL     1       0.089  11.607  20.035  0.00  0.00    +0.000 C 
ATOM      8  C   UNL     1      -1.357  11.747  20.561  0.00  0.00    +0.000 C 
ATOM      9  N   UNL     1      -1.421  11.501  22.015  0.00  0.00    +0.000 N 
ATOM     10  C   UNL     1      -0.847  10.208  22.437  0.00  0.00    +0.000 C 
ATOM     11  C   UNL     1       0.599  10.052  21.905  0.00  0.00    +0.000 C 
ATOM     12  N   UNL     1       1.791   8.337  20.069  0.00  0.00    +0.000 NA
ENDROOT
BRANCH   9  13
ATOM     13  C   UNL     1      -1.910  12.423  22.918  0.00  0.00    +0.000 A 
ATOM     14  C   UNL     1      -1.178  13.558  23.282  0.00  0.00    +0.000 A 
ATOM     15  C   UNL     1      -1.707  14.463  24.193  0.00  0.00    +0.000 A 
ATOM     16  N   UNL     1      -2.915  14.330  24.772  0.00  0.00    +0.000 NA
ATOM     17  C   UNL     1      -3.615  13.235  24.421  0.00  0.00    +0.000 A 
ATOM     18  C   UNL     1      -3.162  12.277  23.523  0.00  0.00    +0.000 A 
ENDBRANCH   9  13
BRANCH   1  19
ATOM     19  S   UNL     1       2.770   5.882  19.872  0.00  0.00    +0.000 S 
BRANCH  19  22
ATOM     20  C   UNL     1       5.787   6.248  18.513  0.00  0.00    +0.000 C 
ATOM     21  N   UNL     1       4.794   5.298  18.074  0.00  0.00    +0.000 N 
ATOM     22  C   UNL     1       3.513   5.115  18.510  0.00  0.00    +0.000 A 
ATOM     23  N   UNL     1       2.965   4.115  17.856  0.00  0.00    +0.000 NA
ATOM     24  N   UNL     1       3.890   3.632  16.964  0.00  0.00    +0.000 NA
ATOM     25  C   UNL     1       4.996   4.345  17.095  0.00  0.00    +0.000 A 
BRANCH  25  26
ATOM     26  C   UNL     1       6.192   4.116  16.311  0.00  0.00    +0.000 C 
ATOM     27  N   UNL     1       7.369   4.277  16.987  0.00  0.00    +0.000 N 
ATOM     28  O   UNL     1       6.207   3.797  15.125  0.00  0.00    +0.000 OA
ATOM     29  H   UNL     1       7.364   4.536  17.968  0.00  0.00    +0.000 HD
ATOM     30  H   UNL     1       8.240   4.129  16.503  0.00  0.00    +0.000 HD
ENDBRANCH  25  26
ENDBRANCH  19  22
ENDBRANCH   1  19
TORSDOF 4
ENDMDL
