MODEL 1
REMARK VINA RESULT:      -7.9      0.000      0.000
REMARK  Name = 
REMARK  5 active torsions:
REMARK  status: ('A' for Active; 'I' for Inactive)
REMARK    1  A    between atoms: C_1  and  C_2
REMARK    2  A    between atoms: N_4  and  C_5
REMARK    3  A    between atoms: C_5  and  C_6
REMARK    4  A    between atoms: N_13  and  C_14
REMARK    5  A    between atoms: C_14  and  C_15
REMARK                            x       y       z     vdW  Elec       q    Type
REMARK                         _______ _______ _______ _____ _____    ______ ____
ROOT
ATOM      1  C   UNL     1       6.362   4.612  15.378  0.00  0.00    +0.000 A 
ATOM      2  N   UNL     1       7.658   4.467  15.580  0.00  0.00    +0.000 NA
ATOM      3  N   UNL     1       7.907   4.635  16.927  0.00  0.00    +0.000 NA
ATOM      4  C   UNL     1       6.761   4.891  17.520  0.00  0.00    +0.000 A 
ATOM      5  N   UNL     1       5.778   4.933  16.569  0.00  0.00    +0.000 N 
ATOM      6  C   UNL     1       4.388   5.205  16.865  0.00  0.00    +0.000 C 
ATOM      7  C   UNL     1       4.241   5.770  18.287  0.00  0.00    +0.000 C 
ATOM      8  N   UNL     1       5.034   5.055  19.313  0.00  0.00    +0.000 NA
ATOM      9  C   UNL     1       6.478   5.145  18.965  0.00  0.00    +0.000 C 
ENDROOT
BRANCH   1  10
ATOM     10  C   UNL     1       5.628   4.447  14.100  0.00  0.00    +0.000 C 
BRANCH  10  14
ATOM     11  C   UNL     1       6.635   1.975  11.434  0.00  0.00    +0.000 C 
ATOM     12  C   UNL     1       5.780   2.998  12.129  0.00  0.00    +0.000 C 
ATOM     13  O   UNL     1       4.688   3.353  11.695  0.00  0.00    +0.000 OA
ATOM     14  N   UNL     1       6.356   3.523  13.260  0.00  0.00    +0.000 N 
ATOM     15  H   UNL     1       7.145   3.045  13.680  0.00  0.00    +0.000 HD
ENDBRANCH  10  14
ENDBRANCH   1  10
BRANCH   8  16
ATOM     16  C   UNL     1       4.640   3.642  19.498  0.00  0.00    +0.000 C 
BRANCH  16  17
ATOM     17  C   UNL     1       3.162   3.460  19.730  0.00  0.00    +0.000 A 
ATOM     18  C   UNL     1       2.383   3.944  20.764  0.00  0.00    +0.000 A 
ATOM     19  C   UNL     1       1.021   3.539  20.657  0.00  0.00    +0.000 A 
ATOM     20  C   UNL     1       0.800   2.759  19.545  0.00  0.00    +0.000 A 
ATOM     21  S   UNL     1       2.231   2.511  18.642  0.00  0.00    +0.000 S 
ENDBRANCH  16  17
ENDBRANCH   8  16
TORSDOF 4
ENDMDL
MODEL 2
REMARK VINA RESULT:      -7.7      1.346      1.467
REMARK  Name = 
REMARK  5 active torsions:
REMARK  status: ('A' for Active; 'I' for Inactive)
REMARK    1  A    between atoms: C_1  and  C_2
REMARK    2  A    between atoms: N_4  and  C_5
REMARK    3  A    between atoms: C_5  and  C_6
REMARK    4  A    between atoms: N_13  and  C_14
REMARK    5  A    between atoms: C_14  and  C_15
REMARK                            x       y       z     vdW  Elec       q    Type
REMARK                         _______ _______ _______ _____ _____    ______ ____
ROOT
ATOM      1  C   UNL     1       7.060   4.913  15.964  0.00  0.00    +0.000 A 
ATOM      2  N   UNL     1       7.813   4.254  16.823  0.00  0.00    +0.000 NA
ATOM      3  N   UNL     1       7.239   4.363  18.074  0.00  0.00    +0.000 NA
ATOM      4  C   UNL     1       6.153   5.095  17.956  0.00  0.00    +0.000 A 
ATOM      5  N   UNL     1       6.037   5.498  16.654  0.00  0.00    +0.000 N 
ATOM      6  C   UNL     1       4.962   6.333  16.166  0.00  0.00    +0.000 C 
ATOM      7  C   UNL     1       4.199   6.969  17.339  0.00  0.00    +0.000 C 
ATOM      8  N   UNL     1       3.895   6.036  18.447  0.00  0.00    +0.000 NA
ATOM      9  C   UNL     1       5.169   5.505  19.004  0.00  0.00    +0.000 C 
ENDROOT
BRANCH   1  10
ATOM     10  C   UNL     1       7.246   5.011  14.496  0.00  0.00    +0.000 C 
BRANCH  10  14
ATOM     11  C   UNL     1       5.479   2.822  11.982  0.00  0.00    +0.000 C 
ATOM     12  C   UNL     1       6.497   3.798  12.501  0.00  0.00    +0.000 C 
ATOM     13  O   UNL     1       7.351   4.308  11.783  0.00  0.00    +0.000 OA
ATOM     14  N   UNL     1       6.405   4.026  13.852  0.00  0.00    +0.000 N 
ATOM     15  H   UNL     1       5.563   3.751  14.343  0.00  0.00    +0.000 HD
ENDBRANCH  10  14
ENDBRANCH   1  10
BRANCH   8  16
ATOM     16  C   UNL     1       3.002   4.922  18.064  0.00  0.00    +0.000 C 
BRANCH  16  17
ATOM     17  C   UNL     1       2.464   4.155  19.244  0.00  0.00    +0.000 A 
ATOM     18  C   UNL     1       1.768   4.629  20.340  0.00  0.00    +0.000 A 
ATOM     19  C   UNL     1       1.446   3.598  21.270  0.00  0.00    +0.000 A 
ATOM     20  C   UNL     1       1.904   2.368  20.857  0.00  0.00    +0.000 A 
ATOM     21  S   UNL     1       2.726   2.461  19.360  0.00  0.00    +0.000 S 
ENDBRANCH  16  17
ENDBRANCH   8  16
TORSDOF 4
ENDMDL
MODEL 3
REMARK VINA RESULT:      -7.1      1.619      2.295
REMARK  Name = 
REMARK  5 active torsions:
REMARK  status: ('A' for Active; 'I' for Inactive)
REMARK    1  A    between atoms: C_1  and  C_2
REMARK    2  A    between atoms: N_4  and  C_5
REMARK    3  A    between atoms: C_5  and  C_6
REMARK    4  A    between atoms: N_13  and  C_14
REMARK    5  A    between atoms: C_14  and  C_15
REMARK                            x       y       z     vdW  Elec       q    Type
REMARK                         _______ _______ _______ _____ _____    ______ ____
ROOT
ATOM      1  C   UNL     1       6.720   5.067  17.395  0.00  0.00    +0.000 A 
ATOM      2  N   UNL     1       7.086   4.389  18.465  0.00  0.00    +0.000 NA
ATOM      3  N   UNL     1       6.112   4.543  19.430  0.00  0.00    +0.000 NA
ATOM      4  C   UNL     1       5.175   5.321  18.935  0.00  0.00    +0.000 A 
ATOM      5  N   UNL     1       5.548   5.708  17.677  0.00  0.00    +0.000 N 
ATOM      6  C   UNL     1       4.757   6.582  16.839  0.00  0.00    +0.000 C 
ATOM      7  C   UNL     1       3.659   7.271  17.665  0.00  0.00    +0.000 C 
ATOM      8  N   UNL     1       2.937   6.371  18.593  0.00  0.00    +0.000 NA
ATOM      9  C   UNL     1       3.904   5.793  19.565  0.00  0.00    +0.000 C 
ENDROOT
BRANCH   1  10
ATOM     10  C   UNL     1       7.419   5.132  16.089  0.00  0.00    +0.000 C 
BRANCH  10  14
ATOM     11  C   UNL     1       5.946   3.615  12.964  0.00  0.00    +0.000 C 
ATOM     12  C   UNL     1       6.816   4.518  13.794  0.00  0.00    +0.000 C 
ATOM     13  O   UNL     1       7.566   5.353  13.296  0.00  0.00    +0.000 OA
ATOM     14  N   UNL     1       6.723   4.288  15.144  0.00  0.00    +0.000 N 
ATOM     15  H   UNL     1       5.943   3.747  15.500  0.00  0.00    +0.000 HD
ENDBRANCH  10  14
ENDBRANCH   1  10
BRANCH   8  16
ATOM     16  C   UNL     1       2.186   5.293  17.917  0.00  0.00    +0.000 C 
BRANCH  16  17
ATOM     17  C   UNL     1       1.836   4.146  18.830  0.00  0.00    +0.000 A 
ATOM     18  C   UNL     1       1.088   4.162  19.992  0.00  0.00    +0.000 A 
ATOM     19  C   UNL     1       0.994   2.877  20.599  0.00  0.00    +0.000 A 
ATOM     20  C   UNL     1       1.670   1.916  19.882  0.00  0.00    +0.000 A 
ATOM     21  S   UNL     1       2.421   2.567  18.490  0.00  0.00    +0.000 S 
ENDBRANCH  16  17
ENDBRANCH   8  16
TORSDOF 4
ENDMDL
MODEL 4
REMARK VINA RESULT:      -6.9      3.704      5.181
REMARK  Name = 
REMARK  5 active torsions:
REMARK  status: ('A' for Active; 'I' for Inactive)
REMARK    1  A    between atoms: C_1  and  C_2
REMARK    2  A    between atoms: N_4  and  C_5
REMARK    3  A    between atoms: C_5  and  C_6
REMARK    4  A    between atoms: N_13  and  C_14
REMARK    5  A    between atoms: C_14  and  C_15
REMARK                            x       y       z     vdW  Elec       q    Type
REMARK                         _______ _______ _______ _____ _____    ______ ____
ROOT
ATOM      1  C   UNL     1       7.583   6.802  17.489  0.00  0.00    +0.000 A 
ATOM      2  N   UNL     1       7.844   6.822  16.196  0.00  0.00    +0.000 NA
ATOM      3  N   UNL     1       7.130   5.806  15.594  0.00  0.00    +0.000 NA
ATOM      4  C   UNL     1       6.455   5.178  16.531  0.00  0.00    +0.000 A 
ATOM      5  N   UNL     1       6.755   5.745  17.740  0.00  0.00    +0.000 N 
ATOM      6  C   UNL     1       6.201   5.294  18.997  0.00  0.00    +0.000 C 
ATOM      7  C   UNL     1       5.535   3.919  18.830  0.00  0.00    +0.000 C 
ATOM      8  N   UNL     1       4.688   3.794  17.622  0.00  0.00    +0.000 NA
ATOM      9  C   UNL     1       5.526   4.013  16.412  0.00  0.00    +0.000 C 
ENDROOT
BRANCH   1  10
ATOM     10  C   UNL     1       8.069   7.751  18.519  0.00  0.00    +0.000 C 
BRANCH  10  14
ATOM     11  C   UNL     1       8.792  11.396  17.870  0.00  0.00    +0.000 C 
ATOM     12  C   UNL     1       8.838  10.077  18.589  0.00  0.00    +0.000 C 
ATOM     13  O   UNL     1       9.427   9.926  19.656  0.00  0.00    +0.000 OA
ATOM     14  N   UNL     1       8.202   9.060  17.921  0.00  0.00    +0.000 N 
ATOM     15  H   UNL     1       7.562   9.288  17.169  0.00  0.00    +0.000 HD
ENDBRANCH  10  14
ENDBRANCH   1  10
BRANCH   8  16
ATOM     16  C   UNL     1       3.525   4.706  17.609  0.00  0.00    +0.000 C 
BRANCH  16  17
ATOM     17  C   UNL     1       2.467   4.339  18.617  0.00  0.00    +0.000 A 
ATOM     18  C   UNL     1       1.573   3.285  18.589  0.00  0.00    +0.000 A 
ATOM     19  C   UNL     1       0.701   3.278  19.715  0.00  0.00    +0.000 A 
ATOM     20  C   UNL     1       0.954   4.326  20.571  0.00  0.00    +0.000 A 
ATOM     21  S   UNL     1       2.231   5.315  20.011  0.00  0.00    +0.000 S 
ENDBRANCH  16  17
ENDBRANCH   8  16
TORSDOF 4
ENDMDL
MODEL 5
REMARK VINA RESULT:      -6.7      1.318      1.481
REMARK  Name = 
REMARK  5 active torsions:
REMARK  status: ('A' for Active; 'I' for Inactive)
REMARK    1  A    between atoms: C_1  and  C_2
REMARK    2  A    between atoms: N_4  and  C_5
REMARK    3  A    between atoms: C_5  and  C_6
REMARK    4  A    between atoms: N_13  and  C_14
REMARK    5  A    between atoms: C_14  and  C_15
REMARK                            x       y       z     vdW  Elec       q    Type
REMARK                         _______ _______ _______ _____ _____    ______ ____
ROOT
ATOM      1  C   UNL     1       6.555   4.597  14.943  0.00  0.00    +0.000 A 
ATOM      2  N   UNL     1       7.645   5.338  15.012  0.00  0.00    +0.000 NA
ATOM      3  N   UNL     1       7.494   6.234  16.050  0.00  0.00    +0.000 NA
ATOM      4  C   UNL     1       6.311   6.031  16.588  0.00  0.00    +0.000 A 
ATOM      5  N   UNL     1       5.675   5.044  15.885  0.00  0.00    +0.000 N 
ATOM      6  C   UNL     1       4.343   4.571  16.193  0.00  0.00    +0.000 C 
ATOM      7  C   UNL     1       3.636   5.541  17.154  0.00  0.00    +0.000 C 
ATOM      8  N   UNL     1       4.477   6.006  18.280  0.00  0.00    +0.000 NA
ATOM      9  C   UNL     1       5.662   6.727  17.741  0.00  0.00    +0.000 C 
ENDROOT
BRANCH   1  10
ATOM     10  C   UNL     1       6.300   3.458  14.028  0.00  0.00    +0.000 C 
BRANCH  10  14
ATOM     11  C   UNL     1       3.999   3.708  11.048  0.00  0.00    +0.000 C 
ATOM     12  C   UNL     1       5.058   3.124  11.941  0.00  0.00    +0.000 C 
ATOM     13  O   UNL     1       5.660   2.090  11.665  0.00  0.00    +0.000 OA
ATOM     14  N   UNL     1       5.252   3.828  13.104  0.00  0.00    +0.000 N 
ATOM     15  H   UNL     1       4.889   4.772  13.175  0.00  0.00    +0.000 HD
ENDBRANCH  10  14
ENDBRANCH   1  10
BRANCH   8  16
ATOM     16  C   UNL     1       4.908   4.926  19.192  0.00  0.00    +0.000 C 
BRANCH  16  17
ATOM     17  C   UNL     1       3.759   4.197  19.840  0.00  0.00    +0.000 A 
ATOM     18  C   UNL     1       2.731   4.711  20.607  0.00  0.00    +0.000 A 
ATOM     19  C   UNL     1       1.838   3.702  21.071  0.00  0.00    +0.000 A 
ATOM     20  C   UNL     1       2.210   2.448  20.643  0.00  0.00    +0.000 A 
ATOM     21  S   UNL     1       3.632   2.490  19.696  0.00  0.00    +0.000 S 
ENDBRANCH  16  17
ENDBRANCH   8  16
TORSDOF 4
ENDMDL
MODEL 6
REMARK VINA RESULT:      -6.6      1.512      1.754
REMARK  Name = 
REMARK  5 active torsions:
REMARK  status: ('A' for Active; 'I' for Inactive)
REMARK    1  A    between atoms: C_1  and  C_2
REMARK    2  A    between atoms: N_4  and  C_5
REMARK    3  A    between atoms: C_5  and  C_6
REMARK    4  A    between atoms: N_13  and  C_14
REMARK    5  A    between atoms: C_14  and  C_15
REMARK                            x       y       z     vdW  Elec       q    Type
REMARK                         _______ _______ _______ _____ _____    ______ ____
ROOT
ATOM      1  C   UNL     1       6.799   4.478  16.005  0.00  0.00    +0.000 A 
ATOM      2  N   UNL     1       8.009   4.459  16.529  0.00  0.00    +0.000 NA
ATOM      3  N   UNL     1       7.898   4.682  17.886  0.00  0.00    +0.000 NA
ATOM      4  C   UNL     1       6.623   4.844  18.164  0.00  0.00    +0.000 A 
ATOM      5  N   UNL     1       5.909   4.772  16.998  0.00  0.00    +0.000 N 
ATOM      6  C   UNL     1       4.472   4.920  16.927  0.00  0.00    +0.000 C 
ATOM      7  C   UNL     1       3.925   5.503  18.240  0.00  0.00    +0.000 C 
ATOM      8  N   UNL     1       4.492   4.891  19.463  0.00  0.00    +0.000 NA
ATOM      9  C   UNL     1       5.965   5.106  19.480  0.00  0.00    +0.000 C 
ENDROOT
BRANCH   1  10
ATOM     10  C   UNL     1       6.425   4.214  14.595  0.00  0.00    +0.000 C 
BRANCH  10  14
ATOM     11  C   UNL     1       8.093   6.117  11.796  0.00  0.00    +0.000 C 
ATOM     12  C   UNL     1       7.424   4.960  12.484  0.00  0.00    +0.000 C 
ATOM     13  O   UNL     1       7.241   3.878  11.932  0.00  0.00    +0.000 OA
ATOM     14  N   UNL     1       7.001   5.243  13.759  0.00  0.00    +0.000 N 
ATOM     15  H   UNL     1       7.365   6.064  14.228  0.00  0.00    +0.000 HD
ENDBRANCH  10  14
ENDBRANCH   1  10
BRANCH   8  16
ATOM     16  C   UNL     1       4.185   3.453  19.610  0.00  0.00    +0.000 C 
BRANCH  16  17
ATOM     17  C   UNL     1       2.714   3.143  19.511  0.00  0.00    +0.000 A 
ATOM     18  C   UNL     1       2.051   2.387  18.562  0.00  0.00    +0.000 A 
ATOM     19  C   UNL     1       0.645   2.341  18.786  0.00  0.00    +0.000 A 
ATOM     20  C   UNL     1       0.275   3.061  19.899  0.00  0.00    +0.000 A 
ATOM     21  S   UNL     1       1.617   3.795  20.662  0.00  0.00    +0.000 S 
ENDBRANCH  16  17
ENDBRANCH   8  16
TORSDOF 4
ENDMDL
MODEL 7
REMARK VINA RESULT:      -6.6      1.828      2.273
REMARK  Name = 
REMARK  5 active torsions:
REMARK  status: ('A' for Active; 'I' for Inactive)
REMARK    1  A    between atoms: C_1  and  C_2
REMARK    2  A    between atoms: N_4  and  C_5
REMARK    3  A    between atoms: C_5  and  C_6
REMARK    4  A    between atoms: N_13  and  C_14
REMARK    5  A    between atoms: C_14  and  C_15
REMARK                            x       y       z     vdW  Elec       q    Type
REMARK                         _______ _______ _______ _____ _____    ______ ____
ROOT
ATOM      1  C   UNL     1       6.328   5.385  16.348  0.00  0.00    +0.000 A 
ATOM      2  N   UNL     1       6.750   6.633  16.292  0.00  0.00    +0.000 NA
ATOM      3  N   UNL     1       5.775   7.444  16.838  0.00  0.00    +0.000 NA
ATOM      4  C   UNL     1       4.773   6.676  17.206  0.00  0.00    +0.000 A 
ATOM      5  N   UNL     1       5.066   5.383  16.868  0.00  0.00    +0.000 N 
ATOM      6  C   UNL     1       4.177   4.269  17.114  0.00  0.00    +0.000 C 
ATOM      7  C   UNL     1       2.768   4.772  17.467  0.00  0.00    +0.000 C 
ATOM      8  N   UNL     1       2.745   5.895  18.432  0.00  0.00    +0.000 NA
ATOM      9  C   UNL     1       3.479   7.053  17.854  0.00  0.00    +0.000 C 
ENDROOT
BRANCH   1  10
ATOM     10  C   UNL     1       7.071   4.167  15.943  0.00  0.00    +0.000 C 
BRANCH  10  14
ATOM     11  C   UNL     1       5.827   3.536  12.438  0.00  0.00    +0.000 C 
ATOM     12  C   UNL     1       6.635   4.178  13.531  0.00  0.00    +0.000 C 
ATOM     13  O   UNL     1       7.419   5.099  13.321  0.00  0.00    +0.000 OA
ATOM     14  N   UNL     1       6.445   3.608  14.766  0.00  0.00    +0.000 N 
ATOM     15  H   UNL     1       5.642   3.008  14.914  0.00  0.00    +0.000 HD
ENDBRANCH  10  14
ENDBRANCH   1  10
BRANCH   8  16
ATOM     16  C   UNL     1       3.295   5.553  19.761  0.00  0.00    +0.000 C 
BRANCH  16  17
ATOM     17  C   UNL     1       2.656   4.336  20.378  0.00  0.00    +0.000 A 
ATOM     18  C   UNL     1       1.361   4.177  20.834  0.00  0.00    +0.000 A 
ATOM     19  C   UNL     1       1.130   2.881  21.380  0.00  0.00    +0.000 A 
ATOM     20  C   UNL     1       2.254   2.089  21.324  0.00  0.00    +0.000 A 
ATOM     21  S   UNL     1       3.581   2.910  20.624  0.00  0.00    +0.000 S 
ENDBRANCH  16  17
ENDBRANCH   8  16
TORSDOF 4
ENDMDL
MODEL 8
REMARK VINA RESULT:      -6.4      1.744      2.029
REMARK  Name = 
REMARK  5 active torsions:
REMARK  status: ('A' for Active; 'I' for Inactive)
REMARK    1  A    between atoms: C_1  and  C_2
REMARK    2  A    between atoms: N_4  and  C_5
REMARK    3  A    between atoms: C_5  and  C_6
REMARK    4  A    between atoms: N_13  and  C_14
REMARK    5  A    between atoms: C_14  and  C_15
REMARK                            x       y       z     vdW  Elec       q    Type
REMARK                         _______ _______ _______ _____ _____    ______ ____
ROOT
ATOM      1  C   UNL     1       6.482   5.104  16.014  0.00  0.00    +0.000 A 
ATOM      2  N   UNL     1       7.056   6.291  16.018  0.00  0.00    +0.000 NA
ATOM      3  N   UNL     1       6.238   7.166  16.703  0.00  0.00    +0.000 NA
ATOM      4  C   UNL     1       5.174   6.499  17.093  0.00  0.00    +0.000 A 
ATOM      5  N   UNL     1       5.271   5.214  16.635  0.00  0.00    +0.000 N 
ATOM      6  C   UNL     1       4.265   4.201  16.868  0.00  0.00    +0.000 C 
ATOM      7  C   UNL     1       2.963   4.841  17.374  0.00  0.00    +0.000 C 
ATOM      8  N   UNL     1       3.155   5.872  18.420  0.00  0.00    +0.000 NA
ATOM      9  C   UNL     1       3.990   6.975  17.872  0.00  0.00    +0.000 C 
ENDROOT
BRANCH   1  10
ATOM     10  C   UNL     1       7.029   3.842  15.458  0.00  0.00    +0.000 C 
BRANCH  10  14
ATOM     11  C   UNL     1       5.317   3.374  12.129  0.00  0.00    +0.000 C 
ATOM     12  C   UNL     1       6.359   3.854  13.101  0.00  0.00    +0.000 C 
ATOM     13  O   UNL     1       7.306   4.557  12.760  0.00  0.00    +0.000 OA
ATOM     14  N   UNL     1       6.173   3.397  14.382  0.00  0.00    +0.000 N 
ATOM     15  H   UNL     1       5.274   3.008  14.641  0.00  0.00    +0.000 HD
ENDBRANCH  10  14
ENDBRANCH   1  10
BRANCH   8  16
ATOM     16  C   UNL     1       3.751   5.353  19.669  0.00  0.00    +0.000 C 
BRANCH  16  17
ATOM     17  C   UNL     1       2.942   4.251  20.304  0.00  0.00    +0.000 A 
ATOM     18  C   UNL     1       3.358   2.998  20.711  0.00  0.00    +0.000 A 
ATOM     19  C   UNL     1       2.294   2.217  21.248  0.00  0.00    +0.000 A 
ATOM     20  C   UNL     1       1.098   2.898  21.237  0.00  0.00    +0.000 A 
ATOM     21  S   UNL     1       1.259   4.465  20.573  0.00  0.00    +0.000 S 
ENDBRANCH  16  17
ENDBRANCH   8  16
TORSDOF 4
ENDMDL
MODEL 9
REMARK VINA RESULT:      -6.4      2.961      6.545
REMARK  Name = 
REMARK  5 active torsions:
REMARK  status: ('A' for Active; 'I' for Inactive)
REMARK    1  A    between atoms: C_1  and  C_2
REMARK    2  A    between atoms: N_4  and  C_5
REMARK    3  A    between atoms: C_5  and  C_6
REMARK    4  A    between atoms: N_13  and  C_14
REMARK    5  A    between atoms: C_14  and  C_15
REMARK                            x       y       z     vdW  Elec       q    Type
REMARK                         _______ _______ _______ _____ _____    ______ ____
ROOT
ATOM      1  C   UNL     1       3.444   5.804  19.145  0.00  0.00    +0.000 A 
ATOM      2  N   UNL     1       2.908   6.886  18.612  0.00  0.00    +0.000 NA
ATOM      3  N   UNL     1       3.682   7.267  17.535  0.00  0.00    +0.000 NA
ATOM      4  C   UNL     1       4.682   6.419  17.437  0.00  0.00    +0.000 A 
ATOM      5  N   UNL     1       4.591   5.517  18.462  0.00  0.00    +0.000 N 
ATOM      6  C   UNL     1       5.538   4.444  18.672  0.00  0.00    +0.000 C 
ATOM      7  C   UNL     1       6.803   4.669  17.829  0.00  0.00    +0.000 C 
ATOM      8  N   UNL     1       6.540   5.090  16.434  0.00  0.00    +0.000 NA
ATOM      9  C   UNL     1       5.797   6.380  16.443  0.00  0.00    +0.000 C 
ENDROOT
BRANCH   1  10
ATOM     10  C   UNL     1       2.916   5.002  20.274  0.00  0.00    +0.000 C 
BRANCH  10  14
ATOM     11  C   UNL     1       0.676   2.319  18.854  0.00  0.00    +0.000 C 
ATOM     12  C   UNL     1       1.934   2.932  19.404  0.00  0.00    +0.000 C 
ATOM     13  O   UNL     1       2.983   2.304  19.511  0.00  0.00    +0.000 OA
ATOM     14  N   UNL     1       1.782   4.234  19.812  0.00  0.00    +0.000 N 
ATOM     15  H   UNL     1       0.969   4.756  19.505  0.00  0.00    +0.000 HD
ENDBRANCH  10  14
ENDBRANCH   1  10
BRANCH   8  16
ATOM     16  C   UNL     1       5.809   4.085  15.633  0.00  0.00    +0.000 C 
BRANCH  16  17
ATOM     17  C   UNL     1       6.197   4.085  14.177  0.00  0.00    +0.000 A 
ATOM     18  C   UNL     1       5.588   3.434  13.121  0.00  0.00    +0.000 A 
ATOM     19  C   UNL     1       6.262   3.652  11.884  0.00  0.00    +0.000 A 
ATOM     20  C   UNL     1       7.364   4.464  12.032  0.00  0.00    +0.000 A 
ATOM     21  S   UNL     1       7.587   4.950  13.656  0.00  0.00    +0.000 S 
ENDBRANCH  16  17
ENDBRANCH   8  16
TORSDOF 4
ENDMDL
