MODEL 1
REMARK VINA RESULT:      -8.0      0.000      0.000
REMARK  Name = 
REMARK  2 active torsions:
REMARK  status: ('A' for Active; 'I' for Inactive)
REMARK    1  A    between atoms: C_2  and  C_3
REMARK    2  A    between atoms: C_15  and  N_16
REMARK                            x       y       z     vdW  Elec       q    Type
REMARK                         _______ _______ _______ _____ _____    ______ ____
ROOT
ATOM      1  O   UNL     1       3.239   7.280  17.890  0.00  0.00    +0.000 OA
ATOM      2  C   UNL     1       3.564   6.096  17.808  0.00  0.00    +0.000 C 
ATOM      3  N   UNL     1       4.673   5.668  17.050  0.00  0.00    +0.000 N 
ATOM      4  C   UNL     1       5.073   4.269  16.885  0.00  0.00    +0.000 C 
ATOM      5  C   UNL     1       6.560   4.068  16.650  0.00  0.00    +0.000 C 
ATOM      6  C   UNL     1       7.148   5.020  15.610  0.00  0.00    +0.000 C 
ATOM      7  C   UNL     1       6.728   6.466  15.895  0.00  0.00    +0.000 C 
ATOM      8  C   UNL     1       5.227   6.631  16.098  0.00  0.00    +0.000 C 
ENDROOT
BRANCH   2   9
ATOM      9  C   UNL     1       2.742   5.116  18.579  0.00  0.00    +0.000 A 
ATOM     10  C   UNL     1       1.672   4.425  17.985  0.00  0.00    +0.000 A 
ATOM     11  C   UNL     1       0.965   3.432  18.669  0.00  0.00    +0.000 A 
ATOM     12  C   UNL     1       1.300   3.260  20.009  0.00  0.00    +0.000 A 
ATOM     13  N   UNL     1       0.819   2.443  20.991  0.00  0.00    +0.000 N 
ATOM     14  N   UNL     1       1.426   2.666  22.167  0.00  0.00    +0.000 NA
ATOM     15  N   UNL     1       2.332   3.617  21.973  0.00  0.00    +0.000 NA
ATOM     16  C   UNL     1       2.283   3.995  20.658  0.00  0.00    +0.000 A 
ATOM     17  C   UNL     1       3.031   4.938  19.941  0.00  0.00    +0.000 A 
ATOM     18  H   UNL     1       0.092   1.740  20.940  0.00  0.00    +0.000 HD
ENDBRANCH   2   9
BRANCH   6  19
ATOM     19  N   UNL     1       6.935   4.600  14.231  0.00  0.00    +0.000 N 
ATOM     20  C   UNL     1       6.070   3.687  13.727  0.00  0.00    +0.000 A 
ATOM     21  N   UNL     1       6.229   3.600  12.427  0.00  0.00    +0.000 NA
ATOM     22  N   UNL     1       7.217   4.480  12.066  0.00  0.00    +0.000 NA
ATOM     23  C   UNL     1       7.633   5.076  13.156  0.00  0.00    +0.000 A 
ENDBRANCH   6  19
TORSDOF 2
ENDMDL
MODEL 2
REMARK VINA RESULT:      -6.9      0.874      1.551
REMARK  Name = 
REMARK  2 active torsions:
REMARK  status: ('A' for Active; 'I' for Inactive)
REMARK    1  A    between atoms: C_2  and  C_3
REMARK    2  A    between atoms: C_15  and  N_16
REMARK                            x       y       z     vdW  Elec       q    Type
REMARK                         _______ _______ _______ _____ _____    ______ ____
ROOT
ATOM      1  O   UNL     1       3.589   7.658  17.757  0.00  0.00    +0.000 OA
ATOM      2  C   UNL     1       3.822   6.452  17.710  0.00  0.00    +0.000 C 
ATOM      3  N   UNL     1       4.886   5.917  16.954  0.00  0.00    +0.000 N 
ATOM      4  C   UNL     1       5.177   4.487  16.831  0.00  0.00    +0.000 C 
ATOM      5  C   UNL     1       6.642   4.167  16.587  0.00  0.00    +0.000 C 
ATOM      6  C   UNL     1       7.286   5.038  15.511  0.00  0.00    +0.000 C 
ATOM      7  C   UNL     1       6.980   6.520  15.752  0.00  0.00    +0.000 C 
ATOM      8  C   UNL     1       5.498   6.804  15.966  0.00  0.00    +0.000 C 
ENDROOT
BRANCH   2   9
ATOM      9  C   UNL     1       2.939   5.561  18.522  0.00  0.00    +0.000 A 
ATOM     10  C   UNL     1       2.732   5.784  19.894  0.00  0.00    +0.000 A 
ATOM     11  C   UNL     1       1.829   5.018  20.637  0.00  0.00    +0.000 A 
ATOM     12  C   UNL     1       1.246   3.946  19.968  0.00  0.00    +0.000 A 
ATOM     13  N   UNL     1       0.372   2.972  20.355  0.00  0.00    +0.000 N 
ATOM     14  N   UNL     1       0.124   2.101  19.365  0.00  0.00    +0.000 NA
ATOM     15  N   UNL     1       0.813   2.501  18.303  0.00  0.00    +0.000 NA
ATOM     16  C   UNL     1       1.504   3.633  18.640  0.00  0.00    +0.000 A 
ATOM     17  C   UNL     1       2.358   4.452  17.888  0.00  0.00    +0.000 A 
ATOM     18  H   UNL     1      -0.074   2.832  21.254  0.00  0.00    +0.000 HD
ENDBRANCH   2   9
BRANCH   6  19
ATOM     19  N   UNL     1       7.024   4.592  14.148  0.00  0.00    +0.000 N 
ATOM     20  C   UNL     1       6.119   3.693  13.689  0.00  0.00    +0.000 A 
ATOM     21  N   UNL     1       6.240   3.571  12.388  0.00  0.00    +0.000 NA
ATOM     22  N   UNL     1       7.244   4.411  11.980  0.00  0.00    +0.000 NA
ATOM     23  C   UNL     1       7.706   5.021  13.044  0.00  0.00    +0.000 A 
ENDBRANCH   6  19
TORSDOF 2
ENDMDL
MODEL 3
REMARK VINA RESULT:      -6.9      4.378      7.571
REMARK  Name = 
REMARK  2 active torsions:
REMARK  status: ('A' for Active; 'I' for Inactive)
REMARK    1  A    between atoms: C_2  and  C_3
REMARK    2  A    between atoms: C_15  and  N_16
REMARK                            x       y       z     vdW  Elec       q    Type
REMARK                         _______ _______ _______ _____ _____    ______ ____
ROOT
ATOM      1  O   UNL     1       2.695   5.877  20.507  0.00  0.00    +0.000 OA
ATOM      2  C   UNL     1       2.709   6.457  19.422  0.00  0.00    +0.000 C 
ATOM      3  N   UNL     1       2.081   7.704  19.224  0.00  0.00    +0.000 N 
ATOM      4  C   UNL     1       2.032   8.413  17.944  0.00  0.00    +0.000 C 
ATOM      5  C   UNL     1       1.947   9.925  18.070  0.00  0.00    +0.000 C 
ATOM      6  C   UNL     1       0.914  10.395  19.093  0.00  0.00    +0.000 C 
ATOM      7  C   UNL     1       1.077   9.644  20.418  0.00  0.00    +0.000 C 
ATOM      8  C   UNL     1       1.132   8.130  20.253  0.00  0.00    +0.000 C 
ENDROOT
BRANCH   2   9
ATOM      9  C   UNL     1       3.456   5.794  18.311  0.00  0.00    +0.000 A 
ATOM     10  C   UNL     1       3.168   4.477  17.916  0.00  0.00    +0.000 A 
ATOM     11  C   UNL     1       3.790   3.886  16.812  0.00  0.00    +0.000 A 
ATOM     12  C   UNL     1       4.798   4.632  16.210  0.00  0.00    +0.000 A 
ATOM     13  N   UNL     1       5.641   4.386  15.165  0.00  0.00    +0.000 N 
ATOM     14  N   UNL     1       6.501   5.397  14.968  0.00  0.00    +0.000 NA
ATOM     15  N   UNL     1       6.224   6.335  15.867  0.00  0.00    +0.000 NA
ATOM     16  C   UNL     1       5.180   5.898  16.636  0.00  0.00    +0.000 A 
ATOM     17  C   UNL     1       4.500   6.505  17.700  0.00  0.00    +0.000 A 
ATOM     18  H   UNL     1       5.697   3.572  14.565  0.00  0.00    +0.000 HD
ENDBRANCH   2   9
BRANCH   6  19
ATOM     19  N   UNL     1      -0.453  10.420  18.589  0.00  0.00    +0.000 N 
ATOM     20  C   UNL     1      -1.004   9.758  17.541  0.00  0.00    +0.000 A 
ATOM     21  N   UNL     1      -2.267  10.093  17.423  0.00  0.00    +0.000 NA
ATOM     22  N   UNL     1      -2.557  10.991  18.418  0.00  0.00    +0.000 NA
ATOM     23  C   UNL     1      -1.462  11.179  19.112  0.00  0.00    +0.000 A 
ENDBRANCH   6  19
TORSDOF 2
ENDMDL
MODEL 4
REMARK VINA RESULT:      -6.9      4.462      6.081
REMARK  Name = 
REMARK  2 active torsions:
REMARK  status: ('A' for Active; 'I' for Inactive)
REMARK    1  A    between atoms: C_2  and  C_3
REMARK    2  A    between atoms: C_15  and  N_16
REMARK                            x       y       z     vdW  Elec       q    Type
REMARK                         _______ _______ _______ _____ _____    ______ ____
ROOT
ATOM      1  O   UNL     1       2.360   9.349  17.367  0.00  0.00    +0.000 OA
ATOM      2  C   UNL     1       2.026   8.723  18.372  0.00  0.00    +0.000 C 
ATOM      3  N   UNL     1       2.504   7.425  18.648  0.00  0.00    +0.000 N 
ATOM      4  C   UNL     1       2.103   6.623  19.805  0.00  0.00    +0.000 C 
ATOM      5  C   UNL     1       3.157   5.637  20.277  0.00  0.00    +0.000 C 
ATOM      6  C   UNL     1       3.796   4.836  19.144  0.00  0.00    +0.000 C 
ATOM      7  C   UNL     1       4.238   5.760  18.005  0.00  0.00    +0.000 C 
ATOM      8  C   UNL     1       3.146   6.715  17.542  0.00  0.00    +0.000 C 
ENDROOT
BRANCH   2   9
ATOM      9  C   UNL     1       1.103   9.414  19.322  0.00  0.00    +0.000 A 
ATOM     10  C   UNL     1       0.015  10.177  18.866  0.00  0.00    +0.000 A 
ATOM     11  C   UNL     1      -0.912  10.740  19.747  0.00  0.00    +0.000 A 
ATOM     12  C   UNL     1      -0.622  10.608  21.101  0.00  0.00    +0.000 A 
ATOM     13  N   UNL     1      -1.245  11.046  22.234  0.00  0.00    +0.000 N 
ATOM     14  N   UNL     1      -0.560  10.717  23.340  0.00  0.00    +0.000 NA
ATOM     15  N   UNL     1       0.514  10.037  22.955  0.00  0.00    +0.000 NA
ATOM     16  C   UNL     1       0.499   9.948  21.589  0.00  0.00    +0.000 A 
ATOM     17  C   UNL     1       1.381   9.328  20.695  0.00  0.00    +0.000 A 
ATOM     18  H   UNL     1      -2.106  11.571  22.330  0.00  0.00    +0.000 HD
ENDBRANCH   2   9
BRANCH   6  19
ATOM     19  N   UNL     1       3.007   3.691  18.708  0.00  0.00    +0.000 N 
ATOM     20  C   UNL     1       2.875   3.150  17.472  0.00  0.00    +0.000 A 
ATOM     21  N   UNL     1       2.041   2.137  17.521  0.00  0.00    +0.000 NA
ATOM     22  N   UNL     1       1.619   2.006  18.820  0.00  0.00    +0.000 NA
ATOM     23  C   UNL     1       2.206   2.942  19.523  0.00  0.00    +0.000 A 
ENDBRANCH   6  19
TORSDOF 2
ENDMDL
MODEL 5
REMARK VINA RESULT:      -6.9      4.106      5.256
REMARK  Name = 
REMARK  2 active torsions:
REMARK  status: ('A' for Active; 'I' for Inactive)
REMARK    1  A    between atoms: C_2  and  C_3
REMARK    2  A    between atoms: C_15  and  N_16
REMARK                            x       y       z     vdW  Elec       q    Type
REMARK                         _______ _______ _______ _____ _____    ______ ____
ROOT
ATOM      1  O   UNL     1       1.222   5.399  20.855  0.00  0.00    +0.000 OA
ATOM      2  C   UNL     1       1.829   6.222  20.171  0.00  0.00    +0.000 C 
ATOM      3  N   UNL     1       2.801   5.844  19.221  0.00  0.00    +0.000 N 
ATOM      4  C   UNL     1       3.581   6.786  18.415  0.00  0.00    +0.000 C 
ATOM      5  C   UNL     1       4.021   6.239  17.068  0.00  0.00    +0.000 C 
ATOM      6  C   UNL     1       4.611   4.832  17.143  0.00  0.00    +0.000 C 
ATOM      7  C   UNL     1       3.701   3.902  17.953  0.00  0.00    +0.000 C 
ATOM      8  C   UNL     1       3.303   4.473  19.307  0.00  0.00    +0.000 C 
ENDROOT
BRANCH   2   9
ATOM      9  C   UNL     1       1.471   7.658  20.366  0.00  0.00    +0.000 A 
ATOM     10  C   UNL     1       1.553   8.586  19.313  0.00  0.00    +0.000 A 
ATOM     11  C   UNL     1       1.122   9.908  19.459  0.00  0.00    +0.000 A 
ATOM     12  C   UNL     1       0.728  10.280  20.741  0.00  0.00    +0.000 A 
ATOM     13  N   UNL     1       0.297  11.460  21.276  0.00  0.00    +0.000 N 
ATOM     14  N   UNL     1       0.075  11.358  22.595  0.00  0.00    +0.000 NA
ATOM     15  N   UNL     1       0.335  10.105  22.947  0.00  0.00    +0.000 NA
ATOM     16  C   UNL     1       0.730   9.419  21.830  0.00  0.00    +0.000 A 
ATOM     17  C   UNL     1       1.098   8.078  21.652  0.00  0.00    +0.000 A 
ATOM     18  H   UNL     1       0.146  12.353  20.821  0.00  0.00    +0.000 HD
ENDBRANCH   2   9
BRANCH   6  19
ATOM     19  N   UNL     1       6.010   4.794  17.548  0.00  0.00    +0.000 N 
ATOM     20  C   UNL     1       6.585   5.167  18.717  0.00  0.00    +0.000 A 
ATOM     21  N   UNL     1       7.883   4.989  18.647  0.00  0.00    +0.000 NA
ATOM     22  N   UNL     1       8.170   4.483  17.405  0.00  0.00    +0.000 NA
ATOM     23  C   UNL     1       7.038   4.368  16.754  0.00  0.00    +0.000 A 
ENDBRANCH   6  19
TORSDOF 2
ENDMDL
MODEL 6
REMARK VINA RESULT:      -6.8      1.437      7.318
REMARK  Name = 
REMARK  2 active torsions:
REMARK  status: ('A' for Active; 'I' for Inactive)
REMARK    1  A    between atoms: C_2  and  C_3
REMARK    2  A    between atoms: C_15  and  N_16
REMARK                            x       y       z     vdW  Elec       q    Type
REMARK                         _______ _______ _______ _____ _____    ______ ____
ROOT
ATOM      1  O   UNL     1       5.555   7.136  16.548  0.00  0.00    +0.000 OA
ATOM      2  C   UNL     1       5.133   5.994  16.375  0.00  0.00    +0.000 C 
ATOM      3  N   UNL     1       4.163   5.411  17.216  0.00  0.00    +0.000 N 
ATOM      4  C   UNL     1       3.661   4.043  17.077  0.00  0.00    +0.000 C 
ATOM      5  C   UNL     1       2.240   3.846  17.577  0.00  0.00    +0.000 C 
ATOM      6  C   UNL     1       1.979   4.479  18.943  0.00  0.00    +0.000 C 
ATOM      7  C   UNL     1       2.482   5.926  18.978  0.00  0.00    +0.000 C 
ATOM      8  C   UNL     1       3.918   6.079  18.494  0.00  0.00    +0.000 C 
ENDROOT
BRANCH   2   9
ATOM      9  C   UNL     1       5.672   5.246  15.200  0.00  0.00    +0.000 A 
ATOM     10  C   UNL     1       7.049   5.205  14.923  0.00  0.00    +0.000 A 
ATOM     11  C   UNL     1       7.570   4.424  13.888  0.00  0.00    +0.000 A 
ATOM     12  C   UNL     1       6.636   3.795  13.071  0.00  0.00    +0.000 A 
ATOM     13  N   UNL     1       6.750   3.004  11.964  0.00  0.00    +0.000 N 
ATOM     14  N   UNL     1       5.551   2.660  11.471  0.00  0.00    +0.000 NA
ATOM     15  N   UNL     1       4.627   3.199  12.258  0.00  0.00    +0.000 NA
ATOM     16  C   UNL     1       5.263   3.894  13.252  0.00  0.00    +0.000 A 
ATOM     17  C   UNL     1       4.757   4.623  14.336  0.00  0.00    +0.000 A 
ATOM     18  H   UNL     1       7.586   2.678  11.493  0.00  0.00    +0.000 HD
ENDBRANCH   2   9
BRANCH   6  19
ATOM     19  N   UNL     1       2.424   3.669  20.069  0.00  0.00    +0.000 N 
ATOM     20  C   UNL     1       3.462   2.801  20.157  0.00  0.00    +0.000 A 
ATOM     21  N   UNL     1       3.486   2.262  21.353  0.00  0.00    +0.000 NA
ATOM     22  N   UNL     1       2.444   2.791  22.072  0.00  0.00    +0.000 NA
ATOM     23  C   UNL     1       1.815   3.635  21.292  0.00  0.00    +0.000 A 
ENDBRANCH   6  19
TORSDOF 2
ENDMDL
MODEL 7
REMARK VINA RESULT:      -6.5      4.971      6.765
REMARK  Name = 
REMARK  2 active torsions:
REMARK  status: ('A' for Active; 'I' for Inactive)
REMARK    1  A    between atoms: C_2  and  C_3
REMARK    2  A    between atoms: C_15  and  N_16
REMARK                            x       y       z     vdW  Elec       q    Type
REMARK                         _______ _______ _______ _____ _____    ______ ____
ROOT
ATOM      1  O   UNL     1       2.587   9.457  17.437  0.00  0.00    +0.000 OA
ATOM      2  C   UNL     1       1.941   8.948  18.351  0.00  0.00    +0.000 C 
ATOM      3  N   UNL     1       2.198   7.643  18.823  0.00  0.00    +0.000 N 
ATOM      4  C   UNL     1       1.430   6.978  19.877  0.00  0.00    +0.000 C 
ATOM      5  C   UNL     1       2.221   5.954  20.673  0.00  0.00    +0.000 C 
ATOM      6  C   UNL     1       3.049   5.010  19.803  0.00  0.00    +0.000 C 
ATOM      7  C   UNL     1       3.864   5.795  18.770  0.00  0.00    +0.000 C 
ATOM      8  C   UNL     1       3.031   6.793  17.974  0.00  0.00    +0.000 C 
ENDROOT
BRANCH   2   9
ATOM      9  C   UNL     1       0.876   9.789  18.976  0.00  0.00    +0.000 A 
ATOM     10  C   UNL     1      -0.315  10.092  18.295  0.00  0.00    +0.000 A 
ATOM     11  C   UNL     1      -1.358  10.790  18.909  0.00  0.00    +0.000 A 
ATOM     12  C   UNL     1      -1.095  11.276  20.187  0.00  0.00    +0.000 A 
ATOM     13  N   UNL     1      -1.826  12.020  21.068  0.00  0.00    +0.000 N 
ATOM     14  N   UNL     1      -1.131  12.299  22.182  0.00  0.00    +0.000 NA
ATOM     15  N   UNL     1       0.060  11.725  22.061  0.00  0.00    +0.000 NA
ATOM     16  C   UNL     1       0.108  11.084  20.852  0.00  0.00    +0.000 A 
ATOM     17  C   UNL     1       1.118  10.322  20.252  0.00  0.00    +0.000 A 
ATOM     18  H   UNL     1      -2.771  12.375  20.978  0.00  0.00    +0.000 HD
ENDBRANCH   2   9
BRANCH   6  19
ATOM     19  N   UNL     1       2.290   3.900  19.242  0.00  0.00    +0.000 N 
ATOM     20  C   UNL     1       1.110   3.366  19.641  0.00  0.00    +0.000 A 
ATOM     21  N   UNL     1       0.798   2.355  18.865  0.00  0.00    +0.000 NA
ATOM     22  N   UNL     1       1.793   2.222  17.930  0.00  0.00    +0.000 NA
ATOM     23  C   UNL     1       2.682   3.155  18.164  0.00  0.00    +0.000 A 
ENDBRANCH   6  19
TORSDOF 2
ENDMDL
MODEL 8
REMARK VINA RESULT:      -6.5      7.394      9.260
REMARK  Name = 
REMARK  2 active torsions:
REMARK  status: ('A' for Active; 'I' for Inactive)
REMARK    1  A    between atoms: C_2  and  C_3
REMARK    2  A    between atoms: C_15  and  N_16
REMARK                            x       y       z     vdW  Elec       q    Type
REMARK                         _______ _______ _______ _____ _____    ______ ____
ROOT
ATOM      1  O   UNL     1      -1.308  10.970  18.600  0.00  0.00    +0.000 OA
ATOM      2  C   UNL     1      -0.168  11.137  19.030  0.00  0.00    +0.000 C 
ATOM      3  N   UNL     1       0.394  12.419  19.205  0.00  0.00    +0.000 N 
ATOM      4  C   UNL     1       1.759  12.669  19.672  0.00  0.00    +0.000 C 
ATOM      5  C   UNL     1       1.935  13.984  20.411  0.00  0.00    +0.000 C 
ATOM      6  C   UNL     1       1.280  15.172  19.708  0.00  0.00    +0.000 C 
ATOM      7  C   UNL     1      -0.163  14.843  19.310  0.00  0.00    +0.000 C 
ATOM      8  C   UNL     1      -0.295  13.530  18.548  0.00  0.00    +0.000 C 
ENDROOT
BRANCH   2   9
ATOM      9  C   UNL     1       0.602   9.911  19.397  0.00  0.00    +0.000 A 
ATOM     10  C   UNL     1       0.582   9.393  20.703  0.00  0.00    +0.000 A 
ATOM     11  C   UNL     1       1.215   8.191  21.030  0.00  0.00    +0.000 A 
ATOM     12  C   UNL     1       1.971   7.607  20.018  0.00  0.00    +0.000 A 
ATOM     13  N   UNL     1       2.748   6.486  19.965  0.00  0.00    +0.000 N 
ATOM     14  N   UNL     1       3.338   6.343  18.769  0.00  0.00    +0.000 NA
ATOM     15  N   UNL     1       2.943   7.357  18.007  0.00  0.00    +0.000 NA
ATOM     16  C   UNL     1       2.098   8.143  18.744  0.00  0.00    +0.000 A 
ATOM     17  C   UNL     1       1.400   9.312  18.410  0.00  0.00    +0.000 A 
ATOM     18  H   UNL     1       2.929   5.797  20.686  0.00  0.00    +0.000 HD
ENDBRANCH   2   9
BRANCH   6  19
ATOM     19  N   UNL     1       2.079  15.740  18.631  0.00  0.00    +0.000 N 
ATOM     20  C   UNL     1       3.114  15.201  17.942  0.00  0.00    +0.000 A 
ATOM     21  N   UNL     1       3.564  16.072  17.069  0.00  0.00    +0.000 NA
ATOM     22  N   UNL     1       2.805  17.209  17.182  0.00  0.00    +0.000 NA
ATOM     23  C   UNL     1       1.915  16.998  18.121  0.00  0.00    +0.000 A 
ENDBRANCH   6  19
TORSDOF 2
ENDMDL
MODEL 9
REMARK VINA RESULT:      -6.5      5.273      7.097
REMARK  Name = 
REMARK  2 active torsions:
REMARK  status: ('A' for Active; 'I' for Inactive)
REMARK    1  A    between atoms: C_2  and  C_3
REMARK    2  A    between atoms: C_15  and  N_16
REMARK                            x       y       z     vdW  Elec       q    Type
REMARK                         _______ _______ _______ _____ _____    ______ ____
ROOT
ATOM      1  O   UNL     1       2.488   9.652  17.446  0.00  0.00    +0.000 OA
ATOM      2  C   UNL     1       1.851   9.134  18.362  0.00  0.00    +0.000 C 
ATOM      3  N   UNL     1       2.122   7.831  18.829  0.00  0.00    +0.000 N 
ATOM      4  C   UNL     1       1.365   7.155  19.885  0.00  0.00    +0.000 C 
ATOM      5  C   UNL     1       2.169   6.136  20.674  0.00  0.00    +0.000 C 
ATOM      6  C   UNL     1       3.002   5.203  19.797  0.00  0.00    +0.000 C 
ATOM      7  C   UNL     1       3.805   5.998  18.763  0.00  0.00    +0.000 C 
ATOM      8  C   UNL     1       2.959   6.990  17.974  0.00  0.00    +0.000 C 
ENDROOT
BRANCH   2   9
ATOM      9  C   UNL     1       0.782   9.963  18.994  0.00  0.00    +0.000 A 
ATOM     10  C   UNL     1       0.931  10.497  20.285  0.00  0.00    +0.000 A 
ATOM     11  C   UNL     1      -0.019  11.357  20.843  0.00  0.00    +0.000 A 
ATOM     12  C   UNL     1      -1.177  11.550  20.096  0.00  0.00    +0.000 A 
ATOM     13  N   UNL     1      -2.319  12.264  20.316  0.00  0.00    +0.000 N 
ATOM     14  N   UNL     1      -3.204  12.112  19.320  0.00  0.00    +0.000 NA
ATOM     15  N   UNL     1      -2.651  11.313  18.416  0.00  0.00    +0.000 NA
ATOM     16  C   UNL     1      -1.405  10.959  18.860  0.00  0.00    +0.000 A 
ATOM     17  C   UNL     1      -0.413  10.155  18.283  0.00  0.00    +0.000 A 
ATOM     18  H   UNL     1      -2.565  12.851  21.105  0.00  0.00    +0.000 HD
ENDBRANCH   2   9
BRANCH   6  19
ATOM     19  N   UNL     1       2.251   4.087  19.237  0.00  0.00    +0.000 N 
ATOM     20  C   UNL     1       1.102   3.511  19.668  0.00  0.00    +0.000 A 
ATOM     21  N   UNL     1       0.786   2.512  18.878  0.00  0.00    +0.000 NA
ATOM     22  N   UNL     1       1.746   2.432  17.901  0.00  0.00    +0.000 NA
ATOM     23  C   UNL     1       2.619   3.383  18.124  0.00  0.00    +0.000 A 
ENDBRANCH   6  19
TORSDOF 2
ENDMDL
