MODEL 1
REMARK VINA RESULT:      -7.1      0.000      0.000
REMARK  Name = 
REMARK  8 active torsions:
REMARK  status: ('A' for Active; 'I' for Inactive)
REMARK    1  A    between atoms: C_1  and  C_2
REMARK    2  A    between atoms: C_2  and  C_3
REMARK    3  A    between atoms: C_2  and  C_4
REMARK    4  A    between atoms: C_2  and  C_15
REMARK    5  A    between atoms: N_6  and  C_7
REMARK    6  A    between atoms: C_7  and  C_8
REMARK    7  A    between atoms: C_8  and  C_11
REMARK    8  A    between atoms: N_17  and  C_18
REMARK                            x       y       z     vdW  Elec       q    Type
REMARK                         _______ _______ _______ _____ _____    ______ ____
ROOT
ATOM      1  C   UNL     1      -4.220  13.002  21.969  0.00  0.00    +0.000 C 
ATOM      2  O   UNL     1      -4.751  12.332  22.848  0.00  0.00    +0.000 OA
ATOM      3  N   UNL     1      -2.898  13.322  21.995  0.00  0.00    +0.000 N 
ATOM      4  H   UNL     1      -2.577  14.023  21.351  0.00  0.00    +0.000 HD
ENDROOT
BRANCH   3   5
ATOM      5  C   UNL     1      -1.957  12.904  23.048  0.00  0.00    +0.000 C 
ATOM      6  C   UNL     1      -1.049  14.043  23.579  0.00  0.00    +0.000 C 
ATOM      7  O   UNL     1      -1.193  14.536  24.693  0.00  0.00    +0.000 OA
ATOM      8  N   UNL     1      -0.043  14.531  22.762  0.00  0.00    +0.000 N 
ATOM      9  C   UNL     1      -0.100  14.467  21.354  0.00  0.00    +0.000 A 
ATOM     10  C   UNL     1      -0.111  15.683  20.666  0.00  0.00    +0.000 A 
ATOM     11  C   UNL     1      -0.347  15.704  19.291  0.00  0.00    +0.000 A 
ATOM     12  C   UNL     1      -0.547  14.513  18.598  0.00  0.00    +0.000 A 
ATOM     13  C   UNL     1      -0.496  13.295  19.278  0.00  0.00    +0.000 A 
ATOM     14  C   UNL     1      -0.263  13.248  20.665  0.00  0.00    +0.000 A 
ATOM     15  C   UNL     1      -0.283  11.957  21.378  0.00  0.00    +0.000 A 
ATOM     16  C   UNL     1       0.510  10.891  20.931  0.00  0.00    +0.000 A 
ATOM     17  C   UNL     1       0.541   9.685  21.630  0.00  0.00    +0.000 A 
ATOM     18  C   UNL     1      -0.216   9.528  22.788  0.00  0.00    +0.000 A 
ATOM     19  C   UNL     1      -1.026  10.565  23.241  0.00  0.00    +0.000 A 
ATOM     20  C   UNL     1      -1.081  11.774  22.533  0.00  0.00    +0.000 A 
ATOM     21  H   UNL     1       0.437  15.317  23.189  0.00  0.00    +0.000 HD
ENDBRANCH   3   5
BRANCH   1  23
ATOM     22  C   UNL     1      -4.210  14.699  20.130  0.00  0.00    +0.000 C 
ATOM     23  C   UNL     1      -4.981  13.508  20.730  0.00  0.00    +0.000 C 
ATOM     24  C   UNL     1      -6.376  14.000  21.145  0.00  0.00    +0.000 C 
BRANCH  23  25
ATOM     25  C   UNL     1      -5.100  12.399  19.671  0.00  0.00    +0.000 C 
ATOM     26  O   UNL     1      -5.868  11.447  19.799  0.00  0.00    +0.000 OA
ATOM     27  N   UNL     1      -4.333  12.540  18.533  0.00  0.00    +0.000 N 
ATOM     28  H   UNL     1      -3.642  13.282  18.472  0.00  0.00    +0.000 HD
BRANCH  27  29
ATOM     29  C   UNL     1      -4.392  11.543  17.461  0.00  0.00    +0.000 C 
BRANCH  29  30
ATOM     30  C   UNL     1      -3.024  11.125  16.909  0.00  0.00    +0.000 C 
ATOM     31  F   UNL     1      -3.169  10.840  15.580  0.00  0.00    +0.000 F 
ATOM     32  F   UNL     1      -2.153  12.170  16.964  0.00  0.00    +0.000 F 
BRANCH  30  33
ATOM     33  C   UNL     1      -2.474   9.911  17.667  0.00  0.00    +0.000 C 
ATOM     34  F   UNL     1      -1.934  10.248  18.865  0.00  0.00    +0.000 F 
ATOM     35  F   UNL     1      -3.443   8.998  17.925  0.00  0.00    +0.000 F 
ATOM     36  F   UNL     1      -1.510   9.265  16.969  0.00  0.00    +0.000 F 
ENDBRANCH  30  33
ENDBRANCH  29  30
ENDBRANCH  27  29
ENDBRANCH  23  25
ENDBRANCH   1  23
TORSDOF 6
ENDMDL
MODEL 2
REMARK VINA RESULT:      -6.9      4.353      6.589
REMARK  Name = 
REMARK  8 active torsions:
REMARK  status: ('A' for Active; 'I' for Inactive)
REMARK    1  A    between atoms: C_1  and  C_2
REMARK    2  A    between atoms: C_2  and  C_3
REMARK    3  A    between atoms: C_2  and  C_4
REMARK    4  A    between atoms: C_2  and  C_15
REMARK    5  A    between atoms: N_6  and  C_7
REMARK    6  A    between atoms: C_7  and  C_8
REMARK    7  A    between atoms: C_8  and  C_11
REMARK    8  A    between atoms: N_17  and  C_18
REMARK                            x       y       z     vdW  Elec       q    Type
REMARK                         _______ _______ _______ _____ _____    ______ ____
ROOT
ATOM      1  C   UNL     1       0.821   9.566  19.734  0.00  0.00    +0.000 C 
ATOM      2  O   UNL     1       1.591   9.386  18.797  0.00  0.00    +0.000 OA
ATOM      3  N   UNL     1      -0.159  10.509  19.702  0.00  0.00    +0.000 N 
ATOM      4  H   UNL     1      -0.623  10.726  20.566  0.00  0.00    +0.000 HD
ENDROOT
BRANCH   3   5
ATOM      5  C   UNL     1      -0.422  11.403  18.561  0.00  0.00    +0.000 C 
ATOM      6  C   UNL     1       0.204  12.814  18.702  0.00  0.00    +0.000 C 
ATOM      7  O   UNL     1       1.168  13.177  18.035  0.00  0.00    +0.000 OA
ATOM      8  N   UNL     1      -0.337  13.698  19.622  0.00  0.00    +0.000 N 
ATOM      9  C   UNL     1      -1.032  13.273  20.773  0.00  0.00    +0.000 A 
ATOM     10  C   UNL     1      -0.481  13.621  22.009  0.00  0.00    +0.000 A 
ATOM     11  C   UNL     1      -1.010  13.087  23.184  0.00  0.00    +0.000 A 
ATOM     12  C   UNL     1      -2.104  12.227  23.130  0.00  0.00    +0.000 A 
ATOM     13  C   UNL     1      -2.681  11.911  21.899  0.00  0.00    +0.000 A 
ATOM     14  C   UNL     1      -2.163  12.434  20.700  0.00  0.00    +0.000 A 
ATOM     15  C   UNL     1      -2.742  12.033  19.404  0.00  0.00    +0.000 A 
ATOM     16  C   UNL     1      -4.121  12.149  19.180  0.00  0.00    +0.000 A 
ATOM     17  C   UNL     1      -4.670  11.825  17.940  0.00  0.00    +0.000 A 
ATOM     18  C   UNL     1      -3.849  11.386  16.905  0.00  0.00    +0.000 A 
ATOM     19  C   UNL     1      -2.480  11.245  17.108  0.00  0.00    +0.000 A 
ATOM     20  C   UNL     1      -1.921  11.546  18.358  0.00  0.00    +0.000 A 
ATOM     21  H   UNL     1       0.197  14.558  19.672  0.00  0.00    +0.000 HD
ENDBRANCH   3   5
BRANCH   1  23
ATOM     22  C   UNL     1      -0.571   8.634  21.593  0.00  0.00    +0.000 C 
ATOM     23  C   UNL     1       0.855   8.716  21.017  0.00  0.00    +0.000 C 
ATOM     24  C   UNL     1       1.754   9.393  22.062  0.00  0.00    +0.000 C 
BRANCH  23  25
ATOM     25  C   UNL     1       1.361   7.295  20.719  0.00  0.00    +0.000 C 
ATOM     26  O   UNL     1       0.701   6.292  20.984  0.00  0.00    +0.000 OA
ATOM     27  N   UNL     1       2.587   7.189  20.094  0.00  0.00    +0.000 N 
ATOM     28  H   UNL     1       3.162   8.015  19.955  0.00  0.00    +0.000 HD
BRANCH  27  29
ATOM     29  C   UNL     1       3.145   5.877  19.755  0.00  0.00    +0.000 C 
BRANCH  29  30
ATOM     30  C   UNL     1       3.127   5.550  18.258  0.00  0.00    +0.000 C 
ATOM     31  F   UNL     1       2.829   6.696  17.574  0.00  0.00    +0.000 F 
ATOM     32  F   UNL     1       4.371   5.189  17.837  0.00  0.00    +0.000 F 
BRANCH  30  33
ATOM     33  C   UNL     1       2.103   4.452  17.949  0.00  0.00    +0.000 C 
ATOM     34  F   UNL     1       1.667   3.819  19.066  0.00  0.00    +0.000 F 
ATOM     35  F   UNL     1       1.001   4.951  17.335  0.00  0.00    +0.000 F 
ATOM     36  F   UNL     1       2.606   3.499  17.128  0.00  0.00    +0.000 F 
ENDBRANCH  30  33
ENDBRANCH  29  30
ENDBRANCH  27  29
ENDBRANCH  23  25
ENDBRANCH   1  23
TORSDOF 6
ENDMDL
MODEL 3
REMARK VINA RESULT:      -6.7      4.444      6.741
REMARK  Name = 
REMARK  8 active torsions:
REMARK  status: ('A' for Active; 'I' for Inactive)
REMARK    1  A    between atoms: C_1  and  C_2
REMARK    2  A    between atoms: C_2  and  C_3
REMARK    3  A    between atoms: C_2  and  C_4
REMARK    4  A    between atoms: C_2  and  C_15
REMARK    5  A    between atoms: N_6  and  C_7
REMARK    6  A    between atoms: C_7  and  C_8
REMARK    7  A    between atoms: C_8  and  C_11
REMARK    8  A    between atoms: N_17  and  C_18
REMARK                            x       y       z     vdW  Elec       q    Type
REMARK                         _______ _______ _______ _____ _____    ______ ____
ROOT
ATOM      1  C   UNL     1       0.894   9.514  19.700  0.00  0.00    +0.000 C 
ATOM      2  O   UNL     1       1.659   9.324  18.761  0.00  0.00    +0.000 OA
ATOM      3  N   UNL     1      -0.074  10.470  19.670  0.00  0.00    +0.000 N 
ATOM      4  H   UNL     1      -0.533  10.693  20.535  0.00  0.00    +0.000 HD
ENDROOT
BRANCH   3   5
ATOM      5  C   UNL     1      -0.328  11.366  18.530  0.00  0.00    +0.000 C 
ATOM      6  C   UNL     1       0.290  12.780  18.682  0.00  0.00    +0.000 C 
ATOM      7  O   UNL     1       1.259  13.150  18.027  0.00  0.00    +0.000 OA
ATOM      8  N   UNL     1      -0.266  13.657  19.599  0.00  0.00    +0.000 N 
ATOM      9  C   UNL     1      -0.972  13.226  20.741  0.00  0.00    +0.000 A 
ATOM     10  C   UNL     1      -0.436  13.572  21.984  0.00  0.00    +0.000 A 
ATOM     11  C   UNL     1      -0.975  13.031  23.151  0.00  0.00    +0.000 A 
ATOM     12  C   UNL     1      -2.065  12.166  23.082  0.00  0.00    +0.000 A 
ATOM     13  C   UNL     1      -2.627  11.852  21.843  0.00  0.00    +0.000 A 
ATOM     14  C   UNL     1      -2.098  12.381  20.652  0.00  0.00    +0.000 A 
ATOM     15  C   UNL     1      -2.660  11.982  19.349  0.00  0.00    +0.000 A 
ATOM     16  C   UNL     1      -4.037  12.092  19.110  0.00  0.00    +0.000 A 
ATOM     17  C   UNL     1      -4.571  11.770  17.862  0.00  0.00    +0.000 A 
ATOM     18  C   UNL     1      -3.736  11.339  16.835  0.00  0.00    +0.000 A 
ATOM     19  C   UNL     1      -2.369  11.203  17.053  0.00  0.00    +0.000 A 
ATOM     20  C   UNL     1      -1.825  11.503  18.310  0.00  0.00    +0.000 A 
ATOM     21  H   UNL     1       0.264  14.521  19.658  0.00  0.00    +0.000 HD
ENDBRANCH   3   5
BRANCH   1  23
ATOM     22  C   UNL     1      -0.510   8.578  21.548  0.00  0.00    +0.000 C 
ATOM     23  C   UNL     1       0.920   8.665  20.984  0.00  0.00    +0.000 C 
ATOM     24  C   UNL     1       1.810   9.344  22.036  0.00  0.00    +0.000 C 
BRANCH  23  25
ATOM     25  C   UNL     1       1.434   7.245  20.690  0.00  0.00    +0.000 C 
ATOM     26  O   UNL     1       0.771   6.240  20.943  0.00  0.00    +0.000 OA
ATOM     27  N   UNL     1       2.668   7.142  20.082  0.00  0.00    +0.000 N 
ATOM     28  H   UNL     1       3.244   7.969  19.953  0.00  0.00    +0.000 HD
BRANCH  27  29
ATOM     29  C   UNL     1       3.233   5.832  19.749  0.00  0.00    +0.000 C 
BRANCH  29  30
ATOM     30  C   UNL     1       3.139   5.462  18.265  0.00  0.00    +0.000 C 
ATOM     31  F   UNL     1       3.302   4.109  18.150  0.00  0.00    +0.000 F 
ATOM     32  F   UNL     1       1.888   5.718  17.791  0.00  0.00    +0.000 F 
BRANCH  30  33
ATOM     33  C   UNL     1       4.199   6.206  17.445  0.00  0.00    +0.000 C 
ATOM     34  F   UNL     1       4.525   5.552  16.302  0.00  0.00    +0.000 F 
ATOM     35  F   UNL     1       3.773   7.439  17.073  0.00  0.00    +0.000 F 
ATOM     36  F   UNL     1       5.349   6.386  18.137  0.00  0.00    +0.000 F 
ENDBRANCH  30  33
ENDBRANCH  29  30
ENDBRANCH  27  29
ENDBRANCH  23  25
ENDBRANCH   1  23
TORSDOF 6
ENDMDL
MODEL 4
REMARK VINA RESULT:      -6.6      9.731     12.143
REMARK  Name = 
REMARK  8 active torsions:
REMARK  status: ('A' for Active; 'I' for Inactive)
REMARK    1  A    between atoms: C_1  and  C_2
REMARK    2  A    between atoms: C_2  and  C_3
REMARK    3  A    between atoms: C_2  and  C_4
REMARK    4  A    between atoms: C_2  and  C_15
REMARK    5  A    between atoms: N_6  and  C_7
REMARK    6  A    between atoms: C_7  and  C_8
REMARK    7  A    between atoms: C_8  and  C_11
REMARK    8  A    between atoms: N_17  and  C_18
REMARK                            x       y       z     vdW  Elec       q    Type
REMARK                         _______ _______ _______ _____ _____    ______ ____
ROOT
ATOM      1  C   UNL     1       7.313  14.534  21.225  0.00  0.00    +0.000 C 
ATOM      2  O   UNL     1       6.254  15.153  21.237  0.00  0.00    +0.000 OA
ATOM      3  N   UNL     1       8.141  14.528  20.145  0.00  0.00    +0.000 N 
ATOM      4  H   UNL     1       8.887  13.856  20.137  0.00  0.00    +0.000 HD
ENDROOT
BRANCH   3   5
ATOM      5  C   UNL     1       7.885  15.255  18.891  0.00  0.00    +0.000 C 
ATOM      6  C   UNL     1       7.072  14.452  17.844  0.00  0.00    +0.000 C 
ATOM      7  O   UNL     1       5.905  14.716  17.572  0.00  0.00    +0.000 OA
ATOM      8  N   UNL     1       7.680  13.389  17.197  0.00  0.00    +0.000 N 
ATOM      9  C   UNL     1       8.749  12.660  17.760  0.00  0.00    +0.000 A 
ATOM     10  C   UNL     1       8.526  11.303  18.009  0.00  0.00    +0.000 A 
ATOM     11  C   UNL     1       9.466  10.562  18.726  0.00  0.00    +0.000 A 
ATOM     12  C   UNL     1      10.639  11.167  19.172  0.00  0.00    +0.000 A 
ATOM     13  C   UNL     1      10.881  12.512  18.888  0.00  0.00    +0.000 A 
ATOM     14  C   UNL     1       9.947  13.281  18.170  0.00  0.00    +0.000 A 
ATOM     15  C   UNL     1      10.187  14.717  17.941  0.00  0.00    +0.000 A 
ATOM     16  C   UNL     1      11.393  15.150  17.372  0.00  0.00    +0.000 A 
ATOM     17  C   UNL     1      11.607  16.501  17.100  0.00  0.00    +0.000 A 
ATOM     18  C   UNL     1      10.618  17.438  17.388  0.00  0.00    +0.000 A 
ATOM     19  C   UNL     1       9.421  17.036  17.971  0.00  0.00    +0.000 A 
ATOM     20  C   UNL     1       9.205  15.683  18.269  0.00  0.00    +0.000 A 
ATOM     21  H   UNL     1       7.031  12.900  16.589  0.00  0.00    +0.000 HD
ENDBRANCH   3   5
BRANCH   1  23
ATOM     22  C   UNL     1       8.859  14.609  23.190  0.00  0.00    +0.000 C 
ATOM     23  C   UNL     1       7.831  13.743  22.439  0.00  0.00    +0.000 C 
ATOM     24  C   UNL     1       8.539  12.466  21.961  0.00  0.00    +0.000 C 
BRANCH  23  25
ATOM     25  C   UNL     1       6.678  13.387  23.393  0.00  0.00    +0.000 C 
ATOM     26  O   UNL     1       5.722  12.698  23.041  0.00  0.00    +0.000 OA
ATOM     27  N   UNL     1       6.782  13.842  24.692  0.00  0.00    +0.000 N 
ATOM     28  H   UNL     1       7.530  14.478  24.951  0.00  0.00    +0.000 HD
BRANCH  27  29
ATOM     29  C   UNL     1       5.741  13.539  25.677  0.00  0.00    +0.000 C 
BRANCH  29  30
ATOM     30  C   UNL     1       6.161  12.531  26.752  0.00  0.00    +0.000 C 
ATOM     31  F   UNL     1       7.527  12.448  26.749  0.00  0.00    +0.000 F 
ATOM     32  F   UNL     1       5.829  12.991  27.989  0.00  0.00    +0.000 F 
BRANCH  30  33
ATOM     33  C   UNL     1       5.535  11.156  26.492  0.00  0.00    +0.000 C 
ATOM     34  F   UNL     1       4.187  11.163  26.646  0.00  0.00    +0.000 F 
ATOM     35  F   UNL     1       5.775  10.725  25.228  0.00  0.00    +0.000 F 
ATOM     36  F   UNL     1       6.021  10.205  27.325  0.00  0.00    +0.000 F 
ENDBRANCH  30  33
ENDBRANCH  29  30
ENDBRANCH  27  29
ENDBRANCH  23  25
ENDBRANCH   1  23
TORSDOF 6
ENDMDL
MODEL 5
REMARK VINA RESULT:      -6.6      7.502     10.186
REMARK  Name = 
REMARK  8 active torsions:
REMARK  status: ('A' for Active; 'I' for Inactive)
REMARK    1  A    between atoms: C_1  and  C_2
REMARK    2  A    between atoms: C_2  and  C_3
REMARK    3  A    between atoms: C_2  and  C_4
REMARK    4  A    between atoms: C_2  and  C_15
REMARK    5  A    between atoms: N_6  and  C_7
REMARK    6  A    between atoms: C_7  and  C_8
REMARK    7  A    between atoms: C_8  and  C_11
REMARK    8  A    between atoms: N_17  and  C_18
REMARK                            x       y       z     vdW  Elec       q    Type
REMARK                         _______ _______ _______ _____ _____    ______ ____
ROOT
ATOM      1  C   UNL     1       3.415   7.444  17.651  0.00  0.00    +0.000 C 
ATOM      2  O   UNL     1       4.119   8.442  17.760  0.00  0.00    +0.000 OA
ATOM      3  N   UNL     1       3.849   6.308  17.042  0.00  0.00    +0.000 N 
ATOM      4  H   UNL     1       3.164   5.607  16.825  0.00  0.00    +0.000 HD
ENDROOT
BRANCH   3   5
ATOM      5  C   UNL     1       5.192   6.132  16.462  0.00  0.00    +0.000 C 
ATOM      6  C   UNL     1       5.355   4.842  15.618  0.00  0.00    +0.000 C 
ATOM      7  O   UNL     1       5.449   4.862  14.395  0.00  0.00    +0.000 OA
ATOM      8  N   UNL     1       5.387   3.618  16.267  0.00  0.00    +0.000 N 
ATOM      9  C   UNL     1       4.773   3.398  17.518  0.00  0.00    +0.000 A 
ATOM     10  C   UNL     1       3.741   2.457  17.559  0.00  0.00    +0.000 A 
ATOM     11  C   UNL     1       2.971   2.317  18.713  0.00  0.00    +0.000 A 
ATOM     12  C   UNL     1       3.245   3.096  19.835  0.00  0.00    +0.000 A 
ATOM     13  C   UNL     1       4.302   4.007  19.808  0.00  0.00    +0.000 A 
ATOM     14  C   UNL     1       5.091   4.169  18.655  0.00  0.00    +0.000 A 
ATOM     15  C   UNL     1       6.158   5.187  18.621  0.00  0.00    +0.000 A 
ATOM     16  C   UNL     1       7.134   5.220  19.627  0.00  0.00    +0.000 A 
ATOM     17  C   UNL     1       8.179   6.142  19.575  0.00  0.00    +0.000 A 
ATOM     18  C   UNL     1       8.266   7.041  18.515  0.00  0.00    +0.000 A 
ATOM     19  C   UNL     1       7.298   7.041  17.515  0.00  0.00    +0.000 A 
ATOM     20  C   UNL     1       6.232   6.132  17.570  0.00  0.00    +0.000 A 
ATOM     21  H   UNL     1       5.427   2.847  15.608  0.00  0.00    +0.000 HD
ENDBRANCH   3   5
BRANCH   1  23
ATOM     22  C   UNL     1       1.395   5.986  17.877  0.00  0.00    +0.000 C 
ATOM     23  C   UNL     1       1.991   7.361  18.230  0.00  0.00    +0.000 C 
ATOM     24  C   UNL     1       1.108   8.444  17.592  0.00  0.00    +0.000 C 
BRANCH  23  25
ATOM     25  C   UNL     1       2.012   7.523  19.759  0.00  0.00    +0.000 C 
ATOM     26  O   UNL     1       2.558   6.708  20.501  0.00  0.00    +0.000 OA
ATOM     27  N   UNL     1       1.421   8.660  20.272  0.00  0.00    +0.000 N 
ATOM     28  H   UNL     1       0.900   9.284  19.663  0.00  0.00    +0.000 HD
BRANCH  27  29
ATOM     29  C   UNL     1       1.406   8.910  21.716  0.00  0.00    +0.000 C 
BRANCH  29  30
ATOM     30  C   UNL     1       0.020   9.228  22.288  0.00  0.00    +0.000 C 
ATOM     31  F   UNL     1      -0.838   8.234  21.905  0.00  0.00    +0.000 F 
ATOM     32  F   UNL     1       0.046   9.180  23.648  0.00  0.00    +0.000 F 
BRANCH  30  33
ATOM     33  C   UNL     1      -0.478  10.592  21.797  0.00  0.00    +0.000 C 
ATOM     34  F   UNL     1      -1.080  10.519  20.584  0.00  0.00    +0.000 F 
ATOM     35  F   UNL     1      -1.388  11.131  22.646  0.00  0.00    +0.000 F 
ATOM     36  F   UNL     1       0.527  11.494  21.684  0.00  0.00    +0.000 F 
ENDBRANCH  30  33
ENDBRANCH  29  30
ENDBRANCH  27  29
ENDBRANCH  23  25
ENDBRANCH   1  23
TORSDOF 6
ENDMDL
MODEL 6
REMARK VINA RESULT:      -6.5      3.919      6.246
REMARK  Name = 
REMARK  8 active torsions:
REMARK  status: ('A' for Active; 'I' for Inactive)
REMARK    1  A    between atoms: C_1  and  C_2
REMARK    2  A    between atoms: C_2  and  C_3
REMARK    3  A    between atoms: C_2  and  C_4
REMARK    4  A    between atoms: C_2  and  C_15
REMARK    5  A    between atoms: N_6  and  C_7
REMARK    6  A    between atoms: C_7  and  C_8
REMARK    7  A    between atoms: C_8  and  C_11
REMARK    8  A    between atoms: N_17  and  C_18
REMARK                            x       y       z     vdW  Elec       q    Type
REMARK                         _______ _______ _______ _____ _____    ______ ____
ROOT
ATOM      1  C   UNL     1       0.324  10.499  20.351  0.00  0.00    +0.000 C 
ATOM      2  O   UNL     1       1.246  10.622  19.551  0.00  0.00    +0.000 OA
ATOM      3  N   UNL     1      -0.905  11.040  20.134  0.00  0.00    +0.000 N 
ATOM      4  H   UNL     1      -1.546  11.061  20.908  0.00  0.00    +0.000 HD
ENDROOT
BRANCH   3   5
ATOM      5  C   UNL     1      -1.281  11.811  18.937  0.00  0.00    +0.000 C 
ATOM      6  C   UNL     1      -0.732  13.260  18.915  0.00  0.00    +0.000 C 
ATOM      7  O   UNL     1       0.172  13.612  18.164  0.00  0.00    +0.000 OA
ATOM      8  N   UNL     1      -1.273  14.194  19.784  0.00  0.00    +0.000 N 
ATOM      9  C   UNL     1      -1.879  13.840  21.008  0.00  0.00    +0.000 A 
ATOM     10  C   UNL     1      -1.283  14.328  22.173  0.00  0.00    +0.000 A 
ATOM     11  C   UNL     1      -1.716  13.876  23.420  0.00  0.00    +0.000 A 
ATOM     12  C   UNL     1      -2.760  12.958  23.506  0.00  0.00    +0.000 A 
ATOM     13  C   UNL     1      -3.383  12.500  22.344  0.00  0.00    +0.000 A 
ATOM     14  C   UNL     1      -2.962  12.939  21.075  0.00  0.00    +0.000 A 
ATOM     15  C   UNL     1      -3.585  12.391  19.856  0.00  0.00    +0.000 A 
ATOM     16  C   UNL     1      -4.978  12.412  19.704  0.00  0.00    +0.000 A 
ATOM     17  C   UNL     1      -5.574  11.948  18.532  0.00  0.00    +0.000 A 
ATOM     18  C   UNL     1      -4.786  11.461  17.493  0.00  0.00    +0.000 A 
ATOM     19  C   UNL     1      -3.402  11.411  17.627  0.00  0.00    +0.000 A 
ATOM     20  C   UNL     1      -2.795  11.855  18.811  0.00  0.00    +0.000 A 
ATOM     21  H   UNL     1      -0.788  15.083  19.727  0.00  0.00    +0.000 HD
ENDBRANCH   3   5
BRANCH   1  23
ATOM     22  C   UNL     1      -0.710  10.072  22.589  0.00  0.00    +0.000 C 
ATOM     23  C   UNL     1       0.450   9.687  21.652  0.00  0.00    +0.000 C 
ATOM     24  C   UNL     1       1.770  10.037  22.355  0.00  0.00    +0.000 C 
BRANCH  23  25
ATOM     25  C   UNL     1       0.386   8.178  21.363  0.00  0.00    +0.000 C 
ATOM     26  O   UNL     1      -0.664   7.540  21.425  0.00  0.00    +0.000 OA
ATOM     27  N   UNL     1       1.563   7.565  20.984  0.00  0.00    +0.000 N 
ATOM     28  H   UNL     1       2.439   8.079  21.016  0.00  0.00    +0.000 HD
BRANCH  27  29
ATOM     29  C   UNL     1       1.597   6.134  20.672  0.00  0.00    +0.000 C 
BRANCH  29  30
ATOM     30  C   UNL     1       2.431   5.775  19.438  0.00  0.00    +0.000 C 
ATOM     31  F   UNL     1       2.411   6.843  18.584  0.00  0.00    +0.000 F 
ATOM     32  F   UNL     1       3.738   5.609  19.781  0.00  0.00    +0.000 F 
BRANCH  30  33
ATOM     33  C   UNL     1       1.881   4.520  18.750  0.00  0.00    +0.000 C 
ATOM     34  F   UNL     1       2.826   3.560  18.590  0.00  0.00    +0.000 F 
ATOM     35  F   UNL     1       0.875   3.955  19.463  0.00  0.00    +0.000 F 
ATOM     36  F   UNL     1       1.381   4.788  17.519  0.00  0.00    +0.000 F 
ENDBRANCH  30  33
ENDBRANCH  29  30
ENDBRANCH  27  29
ENDBRANCH  23  25
ENDBRANCH   1  23
TORSDOF 6
ENDMDL
MODEL 7
REMARK VINA RESULT:      -6.5      0.658      1.301
REMARK  Name = 
REMARK  8 active torsions:
REMARK  status: ('A' for Active; 'I' for Inactive)
REMARK    1  A    between atoms: C_1  and  C_2
REMARK    2  A    between atoms: C_2  and  C_3
REMARK    3  A    between atoms: C_2  and  C_4
REMARK    4  A    between atoms: C_2  and  C_15
REMARK    5  A    between atoms: N_6  and  C_7
REMARK    6  A    between atoms: C_7  and  C_8
REMARK    7  A    between atoms: C_8  and  C_11
REMARK    8  A    between atoms: N_17  and  C_18
REMARK                            x       y       z     vdW  Elec       q    Type
REMARK                         _______ _______ _______ _____ _____    ______ ____
ROOT
ATOM      1  C   UNL     1      -4.459  13.070  22.086  0.00  0.00    +0.000 C 
ATOM      2  O   UNL     1      -5.009  12.427  22.974  0.00  0.00    +0.000 OA
ATOM      3  N   UNL     1      -3.131  13.366  22.116  0.00  0.00    +0.000 N 
ATOM      4  H   UNL     1      -2.792  14.048  21.461  0.00  0.00    +0.000 HD
ENDROOT
BRANCH   3   5
ATOM      5  C   UNL     1      -2.206  12.951  23.185  0.00  0.00    +0.000 C 
ATOM      6  C   UNL     1      -1.398  14.114  23.814  0.00  0.00    +0.000 C 
ATOM      7  O   UNL     1      -1.618  14.534  24.946  0.00  0.00    +0.000 OA
ATOM      8  N   UNL     1      -0.396  14.713  23.068  0.00  0.00    +0.000 N 
ATOM      9  C   UNL     1      -0.394  14.725  21.658  0.00  0.00    +0.000 A 
ATOM     10  C   UNL     1      -0.459  15.974  21.036  0.00  0.00    +0.000 A 
ATOM     11  C   UNL     1      -0.642  16.058  19.656  0.00  0.00    +0.000 A 
ATOM     12  C   UNL     1      -0.735  14.897  18.891  0.00  0.00    +0.000 A 
ATOM     13  C   UNL     1      -0.629  13.648  19.507  0.00  0.00    +0.000 A 
ATOM     14  C   UNL     1      -0.447  13.538  20.898  0.00  0.00    +0.000 A 
ATOM     15  C   UNL     1      -0.409  12.211  21.538  0.00  0.00    +0.000 A 
ATOM     16  C   UNL     1       0.471  11.225  21.069  0.00  0.00    +0.000 A 
ATOM     17  C   UNL     1       0.555   9.986  21.703  0.00  0.00    +0.000 A 
ATOM     18  C   UNL     1      -0.234   9.716  22.817  0.00  0.00    +0.000 A 
ATOM     19  C   UNL     1      -1.129  10.670  23.291  0.00  0.00    +0.000 A 
ATOM     20  C   UNL     1      -1.237  11.911  22.647  0.00  0.00    +0.000 A 
ATOM     21  H   UNL     1       0.013  15.502  23.557  0.00  0.00    +0.000 HD
ENDBRANCH   3   5
BRANCH   1  23
ATOM     22  C   UNL     1      -4.414  14.744  20.227  0.00  0.00    +0.000 C 
ATOM     23  C   UNL     1      -5.201  13.566  20.832  0.00  0.00    +0.000 C 
ATOM     24  C   UNL     1      -6.597  14.074  21.223  0.00  0.00    +0.000 C 
BRANCH  23  25
ATOM     25  C   UNL     1      -5.316  12.445  19.785  0.00  0.00    +0.000 C 
ATOM     26  O   UNL     1      -5.982  11.429  19.980  0.00  0.00    +0.000 OA
ATOM     27  N   UNL     1      -4.669  12.647  18.583  0.00  0.00    +0.000 N 
ATOM     28  H   UNL     1      -4.055  13.447  18.462  0.00  0.00    +0.000 HD
BRANCH  27  29
ATOM     29  C   UNL     1      -4.735  11.642  17.519  0.00  0.00    +0.000 C 
BRANCH  29  30
ATOM     30  C   UNL     1      -3.420  10.898  17.269  0.00  0.00    +0.000 C 
ATOM     31  F   UNL     1      -2.387  11.744  17.565  0.00  0.00    +0.000 F 
ATOM     32  F   UNL     1      -3.294   9.855  18.136  0.00  0.00    +0.000 F 
BRANCH  30  33
ATOM     33  C   UNL     1      -3.327  10.417  15.816  0.00  0.00    +0.000 C 
ATOM     34  F   UNL     1      -2.434  11.133  15.089  0.00  0.00    +0.000 F 
ATOM     35  F   UNL     1      -2.935   9.121  15.739  0.00  0.00    +0.000 F 
ATOM     36  F   UNL     1      -4.516  10.501  15.172  0.00  0.00    +0.000 F 
ENDBRANCH  30  33
ENDBRANCH  29  30
ENDBRANCH  27  29
ENDBRANCH  23  25
ENDBRANCH   1  23
TORSDOF 6
ENDMDL
MODEL 8
REMARK VINA RESULT:      -6.5      2.808      6.241
REMARK  Name = 
REMARK  8 active torsions:
REMARK  status: ('A' for Active; 'I' for Inactive)
REMARK    1  A    between atoms: C_1  and  C_2
REMARK    2  A    between atoms: C_2  and  C_3
REMARK    3  A    between atoms: C_2  and  C_4
REMARK    4  A    between atoms: C_2  and  C_15
REMARK    5  A    between atoms: N_6  and  C_7
REMARK    6  A    between atoms: C_7  and  C_8
REMARK    7  A    between atoms: C_8  and  C_11
REMARK    8  A    between atoms: N_17  and  C_18
REMARK                            x       y       z     vdW  Elec       q    Type
REMARK                         _______ _______ _______ _____ _____    ______ ____
ROOT
ATOM      1  C   UNL     1      -3.497  14.950  21.749  0.00  0.00    +0.000 C 
ATOM      2  O   UNL     1      -3.079  15.844  21.021  0.00  0.00    +0.000 OA
ATOM      3  N   UNL     1      -4.467  14.082  21.354  0.00  0.00    +0.000 N 
ATOM      4  H   UNL     1      -4.887  13.504  22.059  0.00  0.00    +0.000 HD
ENDROOT
BRANCH   3   5
ATOM      5  C   UNL     1      -5.113  14.096  20.031  0.00  0.00    +0.000 C 
ATOM      6  C   UNL     1      -6.182  15.205  19.856  0.00  0.00    +0.000 C 
ATOM      7  O   UNL     1      -5.999  16.191  19.149  0.00  0.00    +0.000 OA
ATOM      8  N   UNL     1      -7.385  15.086  20.532  0.00  0.00    +0.000 N 
ATOM      9  C   UNL     1      -7.521  14.358  21.732  0.00  0.00    +0.000 A 
ATOM     10  C   UNL     1      -7.907  15.075  22.867  0.00  0.00    +0.000 A 
ATOM     11  C   UNL     1      -7.887  14.462  24.120  0.00  0.00    +0.000 A 
ATOM     12  C   UNL     1      -7.509  13.127  24.238  0.00  0.00    +0.000 A 
ATOM     13  C   UNL     1      -7.163  12.397  23.099  0.00  0.00    +0.000 A 
ATOM     14  C   UNL     1      -7.171  12.995  21.826  0.00  0.00    +0.000 A 
ATOM     15  C   UNL     1      -6.734  12.229  20.644  0.00  0.00    +0.000 A 
ATOM     16  C   UNL     1      -7.302  10.978  20.363  0.00  0.00    +0.000 A 
ATOM     17  C   UNL     1      -6.937  10.271  19.218  0.00  0.00    +0.000 A 
ATOM     18  C   UNL     1      -6.003  10.806  18.335  0.00  0.00    +0.000 A 
ATOM     19  C   UNL     1      -5.411  12.037  18.601  0.00  0.00    +0.000 A 
ATOM     20  C   UNL     1      -5.755  12.745  19.761  0.00  0.00    +0.000 A 
ATOM     21  H   UNL     1      -7.973  15.902  20.395  0.00  0.00    +0.000 HD
ENDBRANCH   3   5
BRANCH   1  23
ATOM     22  C   UNL     1      -3.947  15.221  24.195  0.00  0.00    +0.000 C 
ATOM     23  C   UNL     1      -2.937  14.693  23.159  0.00  0.00    +0.000 C 
ATOM     24  C   UNL     1      -1.619  15.460  23.341  0.00  0.00    +0.000 C 
BRANCH  23  25
ATOM     25  C   UNL     1      -2.714  13.189  23.394  0.00  0.00    +0.000 C 
ATOM     26  O   UNL     1      -3.533  12.487  23.986  0.00  0.00    +0.000 OA
ATOM     27  N   UNL     1      -1.562  12.641  22.867  0.00  0.00    +0.000 N 
ATOM     28  H   UNL     1      -0.854  13.241  22.454  0.00  0.00    +0.000 HD
BRANCH  27  29
ATOM     29  C   UNL     1      -1.271  11.214  23.026  0.00  0.00    +0.000 C 
BRANCH  29  30
ATOM     30  C   UNL     1      -0.372  10.627  21.933  0.00  0.00    +0.000 C 
ATOM     31  F   UNL     1      -1.085  10.588  20.767  0.00  0.00    +0.000 F 
ATOM     32  F   UNL     1       0.679  11.457  21.688  0.00  0.00    +0.000 F 
BRANCH  30  33
ATOM     33  C   UNL     1       0.115   9.225  22.316  0.00  0.00    +0.000 C 
ATOM     34  F   UNL     1      -0.724   8.249  21.888  0.00  0.00    +0.000 F 
ATOM     35  F   UNL     1       1.330   8.950  21.780  0.00  0.00    +0.000 F 
ATOM     36  F   UNL     1       0.241   9.075  23.657  0.00  0.00    +0.000 F 
ENDBRANCH  30  33
ENDBRANCH  29  30
ENDBRANCH  27  29
ENDBRANCH  23  25
ENDBRANCH   1  23
TORSDOF 6
ENDMDL
MODEL 9
REMARK VINA RESULT:      -6.4      4.108      6.351
REMARK  Name = 
REMARK  8 active torsions:
REMARK  status: ('A' for Active; 'I' for Inactive)
REMARK    1  A    between atoms: C_1  and  C_2
REMARK    2  A    between atoms: C_2  and  C_3
REMARK    3  A    between atoms: C_2  and  C_4
REMARK    4  A    between atoms: C_2  and  C_15
REMARK    5  A    between atoms: N_6  and  C_7
REMARK    6  A    between atoms: C_7  and  C_8
REMARK    7  A    between atoms: C_8  and  C_11
REMARK    8  A    between atoms: N_17  and  C_18
REMARK                            x       y       z     vdW  Elec       q    Type
REMARK                         _______ _______ _______ _____ _____    ______ ____
ROOT
ATOM      1  C   UNL     1       1.568  11.884  19.093  0.00  0.00    +0.000 C 
ATOM      2  O   UNL     1       2.372  12.159  18.209  0.00  0.00    +0.000 OA
ATOM      3  N   UNL     1       1.300  12.732  20.123  0.00  0.00    +0.000 N 
ATOM      4  H   UNL     1       0.780  12.366  20.900  0.00  0.00    +0.000 HD
ENDROOT
BRANCH   3   5
ATOM      5  C   UNL     1       1.914  14.059  20.296  0.00  0.00    +0.000 C 
ATOM      6  C   UNL     1       2.038  14.515  21.772  0.00  0.00    +0.000 C 
ATOM      7  O   UNL     1       3.115  14.566  22.358  0.00  0.00    +0.000 OA
ATOM      8  N   UNL     1       0.890  14.868  22.461  0.00  0.00    +0.000 N 
ATOM      9  C   UNL     1      -0.386  14.364  22.133  0.00  0.00    +0.000 A 
ATOM     10  C   UNL     1      -1.034  13.600  23.107  0.00  0.00    +0.000 A 
ATOM     11  C   UNL     1      -2.211  12.921  22.793  0.00  0.00    +0.000 A 
ATOM     12  C   UNL     1      -2.757  13.025  21.516  0.00  0.00    +0.000 A 
ATOM     13  C   UNL     1      -2.133  13.820  20.554  0.00  0.00    +0.000 A 
ATOM     14  C   UNL     1      -0.942  14.511  20.846  0.00  0.00    +0.000 A 
ATOM     15  C   UNL     1      -0.259  15.289  19.796  0.00  0.00    +0.000 A 
ATOM     16  C   UNL     1      -0.963  16.255  19.062  0.00  0.00    +0.000 A 
ATOM     17  C   UNL     1      -0.313  17.035  18.106  0.00  0.00    +0.000 A 
ATOM     18  C   UNL     1       1.049  16.866  17.874  0.00  0.00    +0.000 A 
ATOM     19  C   UNL     1       1.765  15.901  18.576  0.00  0.00    +0.000 A 
ATOM     20  C   UNL     1       1.116  15.096  19.524  0.00  0.00    +0.000 A 
ATOM     21  H   UNL     1       1.088  15.081  23.433  0.00  0.00    +0.000 HD
ENDBRANCH   3   5
BRANCH   1  23
ATOM     22  C   UNL     1      -0.545  10.802  18.302  0.00  0.00    +0.000 C 
ATOM     23  C   UNL     1       0.752  10.580  19.102  0.00  0.00    +0.000 C 
ATOM     24  C   UNL     1       0.368  10.219  20.545  0.00  0.00    +0.000 C 
BRANCH  23  25
ATOM     25  C   UNL     1       1.549   9.431  18.461  0.00  0.00    +0.000 C 
ATOM     26  O   UNL     1       1.941   9.471  17.296  0.00  0.00    +0.000 OA
ATOM     27  N   UNL     1       1.849   8.354  19.271  0.00  0.00    +0.000 N 
ATOM     28  H   UNL     1       1.452   8.290  20.203  0.00  0.00    +0.000 HD
BRANCH  27  29
ATOM     29  C   UNL     1       2.619   7.219  18.754  0.00  0.00    +0.000 C 
BRANCH  29  30
ATOM     30  C   UNL     1       2.512   5.945  19.599  0.00  0.00    +0.000 C 
ATOM     31  F   UNL     1       3.753   5.660  20.099  0.00  0.00    +0.000 F 
ATOM     32  F   UNL     1       1.724   6.164  20.687  0.00  0.00    +0.000 F 
BRANCH  30  33
ATOM     33  C   UNL     1       1.982   4.775  18.764  0.00  0.00    +0.000 C 
ATOM     34  F   UNL     1       0.965   4.119  19.377  0.00  0.00    +0.000 F 
ATOM     35  F   UNL     1       1.505   5.189  17.563  0.00  0.00    +0.000 F 
ATOM     36  F   UNL     1       2.942   3.855  18.503  0.00  0.00    +0.000 F 
ENDBRANCH  30  33
ENDBRANCH  29  30
ENDBRANCH  27  29
ENDBRANCH  23  25
ENDBRANCH   1  23
TORSDOF 6
ENDMDL
