MODEL 1
REMARK VINA RESULT:      -8.4      0.000      0.000
REMARK  Name = 
REMARK  8 active torsions:
REMARK  status: ('A' for Active; 'I' for Inactive)
REMARK    1  A    between atoms: C_1  and  C_2
REMARK    2  A    between atoms: C_2  and  C_3
REMARK    3  A    between atoms: C_3  and  C_4
REMARK    4  A    between atoms: C_4  and  N_5
REMARK    5  A    between atoms: C_4  and  C_20
REMARK    6  A    between atoms: C_10  and  C_11
REMARK    7  A    between atoms: C_14  and  C_15
REMARK    8  A    between atoms: C_15  and  N_16
REMARK                            x       y       z     vdW  Elec       q    Type
REMARK                         _______ _______ _______ _____ _____    ______ ____
ROOT
ATOM      1  N   UNL     1       4.801   3.583  17.267  0.00  0.00    +0.000 N 
ATOM      2  C   UNL     1       4.036   4.174  18.296  0.00  0.00    +0.000 A 
ATOM      3  C   UNL     1       3.745   3.408  19.433  0.00  0.00    +0.000 A 
ATOM      4  N   UNL     1       2.943   3.812  20.445  0.00  0.00    +0.000 NA
ATOM      5  C   UNL     1       2.421   5.045  20.278  0.00  0.00    +0.000 A 
ATOM      6  C   UNL     1       2.700   5.860  19.178  0.00  0.00    +0.000 A 
ATOM      7  N   UNL     1       3.496   5.412  18.164  0.00  0.00    +0.000 NA
ATOM      8  H   UNL     1       5.490   2.964  17.681  0.00  0.00    +0.000 HD
ENDROOT
BRANCH   6   9
ATOM      9  C   UNL     1       2.202   7.249  19.099  0.00  0.00    +0.000 A 
ATOM     10  C   UNL     1       1.665   7.884  20.237  0.00  0.00    +0.000 A 
ATOM     11  C   UNL     1       1.189   9.198  20.194  0.00  0.00    +0.000 A 
ATOM     12  C   UNL     1       1.245   9.939  19.011  0.00  0.00    +0.000 A 
ATOM     13  C   UNL     1       1.759   9.316  17.866  0.00  0.00    +0.000 A 
ATOM     14  C   UNL     1       2.242   7.996  17.911  0.00  0.00    +0.000 A 
BRANCH  12  15
ATOM     15  C   UNL     1       0.691  11.345  19.003  0.00  0.00    +0.000 C 
BRANCH  15  16
ATOM     16  N   UNL     1       1.533  12.297  18.289  0.00  0.00    +0.000 NA
ATOM     17  H   UNL     1       2.113  12.787  18.960  0.00  0.00    +0.000 HD
ATOM     18  H   UNL     1       0.937  13.001  17.857  0.00  0.00    +0.000 HD
ENDBRANCH  15  16
ENDBRANCH  12  15
ENDBRANCH   6   9
BRANCH   1  19
ATOM     19  C   UNL     1       5.442   4.498  16.318  0.00  0.00    +0.000 C 
BRANCH  19  20
ATOM     20  C   UNL     1       6.430   5.391  17.075  0.00  0.00    +0.000 A 
ATOM     21  C   UNL     1       7.192   4.863  18.124  0.00  0.00    +0.000 A 
ATOM     22  C   UNL     1       8.021   5.692  18.880  0.00  0.00    +0.000 A 
ATOM     23  C   UNL     1       8.103   7.055  18.601  0.00  0.00    +0.000 A 
ATOM     24  C   UNL     1       7.384   7.589  17.537  0.00  0.00    +0.000 A 
ATOM     25  C   UNL     1       6.564   6.763  16.773  0.00  0.00    +0.000 A 
ENDBRANCH  19  20
BRANCH  19  26
ATOM     26  C   UNL     1       6.234   3.707  15.249  0.00  0.00    +0.000 C 
BRANCH  26  28
ATOM     27  C   UNL     1       6.077   3.470  12.713  0.00  0.00    +0.000 C 
ATOM     28  C   UNL     1       6.413   4.373  13.886  0.00  0.00    +0.000 C 
ENDBRANCH  26  28
ENDBRANCH  19  26
ENDBRANCH   1  19
TORSDOF 7
ENDMDL
MODEL 2
REMARK VINA RESULT:      -8.4      0.451      1.065
REMARK  Name = 
REMARK  8 active torsions:
REMARK  status: ('A' for Active; 'I' for Inactive)
REMARK    1  A    between atoms: C_1  and  C_2
REMARK    2  A    between atoms: C_2  and  C_3
REMARK    3  A    between atoms: C_3  and  C_4
REMARK    4  A    between atoms: C_4  and  N_5
REMARK    5  A    between atoms: C_4  and  C_20
REMARK    6  A    between atoms: C_10  and  C_11
REMARK    7  A    between atoms: C_14  and  C_15
REMARK    8  A    between atoms: C_15  and  N_16
REMARK                            x       y       z     vdW  Elec       q    Type
REMARK                         _______ _______ _______ _____ _____    ______ ____
ROOT
ATOM      1  N   UNL     1       4.671   3.679  17.357  0.00  0.00    +0.000 N 
ATOM      2  C   UNL     1       3.888   4.282  18.366  0.00  0.00    +0.000 A 
ATOM      3  C   UNL     1       3.547   3.519  19.489  0.00  0.00    +0.000 A 
ATOM      4  N   UNL     1       2.723   3.936  20.479  0.00  0.00    +0.000 NA
ATOM      5  C   UNL     1       2.234   5.181  20.302  0.00  0.00    +0.000 A 
ATOM      6  C   UNL     1       2.563   5.994  19.214  0.00  0.00    +0.000 A 
ATOM      7  N   UNL     1       3.379   5.533  18.223  0.00  0.00    +0.000 NA
ATOM      8  H   UNL     1       5.334   3.043  17.789  0.00  0.00    +0.000 HD
ENDROOT
BRANCH   6   9
ATOM      9  C   UNL     1       2.098   7.394  19.127  0.00  0.00    +0.000 A 
ATOM     10  C   UNL     1       1.503   8.023  20.238  0.00  0.00    +0.000 A 
ATOM     11  C   UNL     1       1.056   9.346  20.187  0.00  0.00    +0.000 A 
ATOM     12  C   UNL     1       1.201  10.104  19.022  0.00  0.00    +0.000 A 
ATOM     13  C   UNL     1       1.774   9.488  17.901  0.00  0.00    +0.000 A 
ATOM     14  C   UNL     1       2.228   8.157  17.956  0.00  0.00    +0.000 A 
BRANCH  12  15
ATOM     15  C   UNL     1       0.676  11.521  19.002  0.00  0.00    +0.000 C 
BRANCH  15  16
ATOM     16  N   UNL     1      -0.419  11.721  18.061  0.00  0.00    +0.000 NA
ATOM     17  H   UNL     1      -1.269  11.344  18.464  0.00  0.00    +0.000 HD
ATOM     18  H   UNL     1      -0.233  11.174  17.222  0.00  0.00    +0.000 HD
ENDBRANCH  15  16
ENDBRANCH  12  15
ENDBRANCH   6   9
BRANCH   1  19
ATOM     19  C   UNL     1       5.360   4.583  16.432  0.00  0.00    +0.000 C 
BRANCH  19  20
ATOM     20  C   UNL     1       6.298   5.494  17.230  0.00  0.00    +0.000 A 
ATOM     21  C   UNL     1       6.433   6.843  16.880  0.00  0.00    +0.000 A 
ATOM     22  C   UNL     1       7.357   7.654  17.540  0.00  0.00    +0.000 A 
ATOM     23  C   UNL     1       8.157   7.132  18.556  0.00  0.00    +0.000 A 
ATOM     24  C   UNL     1       8.008   5.805  18.943  0.00  0.00    +0.000 A 
ATOM     25  C   UNL     1       7.079   4.996  18.295  0.00  0.00    +0.000 A 
ENDBRANCH  19  20
BRANCH  19  26
ATOM     26  C   UNL     1       6.216   3.780  15.422  0.00  0.00    +0.000 C 
BRANCH  26  28
ATOM     27  C   UNL     1       5.939   3.584  12.893  0.00  0.00    +0.000 C 
ATOM     28  C   UNL     1       6.450   4.417  14.053  0.00  0.00    +0.000 C 
ENDBRANCH  26  28
ENDBRANCH  19  26
ENDBRANCH   1  19
TORSDOF 7
ENDMDL
MODEL 3
REMARK VINA RESULT:      -8.3      0.447      1.429
REMARK  Name = 
REMARK  8 active torsions:
REMARK  status: ('A' for Active; 'I' for Inactive)
REMARK    1  A    between atoms: C_1  and  C_2
REMARK    2  A    between atoms: C_2  and  C_3
REMARK    3  A    between atoms: C_3  and  C_4
REMARK    4  A    between atoms: C_4  and  N_5
REMARK    5  A    between atoms: C_4  and  C_20
REMARK    6  A    between atoms: C_10  and  C_11
REMARK    7  A    between atoms: C_14  and  C_15
REMARK    8  A    between atoms: C_15  and  N_16
REMARK                            x       y       z     vdW  Elec       q    Type
REMARK                         _______ _______ _______ _____ _____    ______ ____
ROOT
ATOM      1  N   UNL     1       4.647   3.390  17.326  0.00  0.00    +0.000 N 
ATOM      2  C   UNL     1       3.934   3.907  18.430  0.00  0.00    +0.000 A 
ATOM      3  C   UNL     1       3.704   3.067  19.527  0.00  0.00    +0.000 A 
ATOM      4  N   UNL     1       2.954   3.398  20.604  0.00  0.00    +0.000 NA
ATOM      5  C   UNL     1       2.422   4.637  20.546  0.00  0.00    +0.000 A 
ATOM      6  C   UNL     1       2.641   5.524  19.489  0.00  0.00    +0.000 A 
ATOM      7  N   UNL     1       3.385   5.148  18.408  0.00  0.00    +0.000 NA
ATOM      8  H   UNL     1       5.358   2.749  17.663  0.00  0.00    +0.000 HD
ENDROOT
BRANCH   6   9
ATOM      9  C   UNL     1       2.137   6.912  19.527  0.00  0.00    +0.000 A 
ATOM     10  C   UNL     1       2.245   7.746  18.396  0.00  0.00    +0.000 A 
ATOM     11  C   UNL     1       1.774   9.062  18.401  0.00  0.00    +0.000 A 
ATOM     12  C   UNL     1       1.160   9.596  19.537  0.00  0.00    +0.000 A 
ATOM     13  C   UNL     1       1.062   8.787  20.677  0.00  0.00    +0.000 A 
ATOM     14  C   UNL     1       1.531   7.461  20.669  0.00  0.00    +0.000 A 
BRANCH  12  15
ATOM     15  C   UNL     1       0.694  11.034  19.507  0.00  0.00    +0.000 C 
BRANCH  15  16
ATOM     16  N   UNL     1       0.851  11.667  18.204  0.00  0.00    +0.000 NA
ATOM     17  H   UNL     1       0.015  11.497  17.656  0.00  0.00    +0.000 HD
ATOM     18  H   UNL     1       1.616  11.212  17.708  0.00  0.00    +0.000 HD
ENDBRANCH  15  16
ENDBRANCH  12  15
ENDBRANCH   6   9
BRANCH   1  19
ATOM     19  C   UNL     1       5.236   4.369  16.408  0.00  0.00    +0.000 C 
BRANCH  19  20
ATOM     20  C   UNL     1       6.183   5.283  17.193  0.00  0.00    +0.000 A 
ATOM     21  C   UNL     1       6.218   6.656  16.923  0.00  0.00    +0.000 A 
ATOM     22  C   UNL     1       7.145   7.478  17.565  0.00  0.00    +0.000 A 
ATOM     23  C   UNL     1       8.047   6.943  18.483  0.00  0.00    +0.000 A 
ATOM     24  C   UNL     1       8.000   5.588  18.793  0.00  0.00    +0.000 A 
ATOM     25  C   UNL     1       7.069   4.767  18.162  0.00  0.00    +0.000 A 
ENDBRANCH  19  20
BRANCH  19  26
ATOM     26  C   UNL     1       6.060   3.657  15.308  0.00  0.00    +0.000 C 
BRANCH  26  28
ATOM     27  C   UNL     1       6.168   3.501  12.764  0.00  0.00    +0.000 C 
ATOM     28  C   UNL     1       6.234   4.399  13.984  0.00  0.00    +0.000 C 
ENDBRANCH  26  28
ENDBRANCH  19  26
ENDBRANCH   1  19
TORSDOF 7
ENDMDL
MODEL 4
REMARK VINA RESULT:      -8.1      0.753      1.219
REMARK  Name = 
REMARK  8 active torsions:
REMARK  status: ('A' for Active; 'I' for Inactive)
REMARK    1  A    between atoms: C_1  and  C_2
REMARK    2  A    between atoms: C_2  and  C_3
REMARK    3  A    between atoms: C_3  and  C_4
REMARK    4  A    between atoms: C_4  and  N_5
REMARK    5  A    between atoms: C_4  and  C_20
REMARK    6  A    between atoms: C_10  and  C_11
REMARK    7  A    between atoms: C_14  and  C_15
REMARK    8  A    between atoms: C_15  and  N_16
REMARK                            x       y       z     vdW  Elec       q    Type
REMARK                         _______ _______ _______ _____ _____    ______ ____
ROOT
ATOM      1  N   UNL     1       5.017   3.961  16.291  0.00  0.00    +0.000 N 
ATOM      2  C   UNL     1       4.145   4.267  17.359  0.00  0.00    +0.000 A 
ATOM      3  C   UNL     1       3.729   3.226  18.198  0.00  0.00    +0.000 A 
ATOM      4  N   UNL     1       2.821   3.358  19.193  0.00  0.00    +0.000 NA
ATOM      5  C   UNL     1       2.326   4.606  19.326  0.00  0.00    +0.000 A 
ATOM      6  C   UNL     1       2.727   5.686  18.535  0.00  0.00    +0.000 A 
ATOM      7  N   UNL     1       3.628   5.511  17.525  0.00  0.00    +0.000 NA
ATOM      8  H   UNL     1       5.654   3.227  16.584  0.00  0.00    +0.000 HD
ENDROOT
BRANCH   6   9
ATOM      9  C   UNL     1       2.246   7.058  18.798  0.00  0.00    +0.000 A 
ATOM     10  C   UNL     1       2.207   8.014  17.764  0.00  0.00    +0.000 A 
ATOM     11  C   UNL     1       1.755   9.319  17.982  0.00  0.00    +0.000 A 
ATOM     12  C   UNL     1       1.306   9.718  19.243  0.00  0.00    +0.000 A 
ATOM     13  C   UNL     1       1.356   8.785  20.287  0.00  0.00    +0.000 A 
ATOM     14  C   UNL     1       1.807   7.471  20.066  0.00  0.00    +0.000 A 
BRANCH  12  15
ATOM     15  C   UNL     1       0.855  11.147  19.439  0.00  0.00    +0.000 C 
BRANCH  15  16
ATOM     16  N   UNL     1       0.501  11.819  18.195  0.00  0.00    +0.000 NA
ATOM     17  H   UNL     1       1.230  12.484  17.964  0.00  0.00    +0.000 HD
ATOM     18  H   UNL     1      -0.346  12.364  18.346  0.00  0.00    +0.000 HD
ENDBRANCH  15  16
ENDBRANCH  12  15
ENDBRANCH   6   9
BRANCH   1  19
ATOM     19  C   UNL     1       5.761   5.082  15.710  0.00  0.00    +0.000 C 
BRANCH  19  20
ATOM     20  C   UNL     1       6.680   5.679  16.780  0.00  0.00    +0.000 A 
ATOM     21  C   UNL     1       7.254   4.853  17.754  0.00  0.00    +0.000 A 
ATOM     22  C   UNL     1       8.013   5.403  18.788  0.00  0.00    +0.000 A 
ATOM     23  C   UNL     1       8.210   6.781  18.864  0.00  0.00    +0.000 A 
ATOM     24  C   UNL     1       7.680   7.613  17.884  0.00  0.00    +0.000 A 
ATOM     25  C   UNL     1       6.932   7.066  16.845  0.00  0.00    +0.000 A 
ENDBRANCH  19  20
BRANCH  19  26
ATOM     26  C   UNL     1       6.646   4.597  14.536  0.00  0.00    +0.000 C 
BRANCH  26  28
ATOM     27  C   UNL     1       6.705   3.714  12.143  0.00  0.00    +0.000 C 
ATOM     28  C   UNL     1       5.972   3.734  13.471  0.00  0.00    +0.000 C 
ENDBRANCH  26  28
ENDBRANCH  19  26
ENDBRANCH   1  19
TORSDOF 7
ENDMDL
MODEL 5
REMARK VINA RESULT:      -7.8      1.375      1.467
REMARK  Name = 
REMARK  8 active torsions:
REMARK  status: ('A' for Active; 'I' for Inactive)
REMARK    1  A    between atoms: C_1  and  C_2
REMARK    2  A    between atoms: C_2  and  C_3
REMARK    3  A    between atoms: C_3  and  C_4
REMARK    4  A    between atoms: C_4  and  N_5
REMARK    5  A    between atoms: C_4  and  C_20
REMARK    6  A    between atoms: C_10  and  C_11
REMARK    7  A    between atoms: C_14  and  C_15
REMARK    8  A    between atoms: C_15  and  N_16
REMARK                            x       y       z     vdW  Elec       q    Type
REMARK                         _______ _______ _______ _____ _____    ______ ____
ROOT
ATOM      1  N   UNL     1       4.967   3.965  15.988  0.00  0.00    +0.000 N 
ATOM      2  C   UNL     1       4.169   4.038  17.151  0.00  0.00    +0.000 A 
ATOM      3  C   UNL     1       3.875   2.850  17.833  0.00  0.00    +0.000 A 
ATOM      4  N   UNL     1       3.045   2.761  18.898  0.00  0.00    +0.000 NA
ATOM      5  C   UNL     1       2.499   3.937  19.272  0.00  0.00    +0.000 A 
ATOM      6  C   UNL     1       2.779   5.154  18.644  0.00  0.00    +0.000 A 
ATOM      7  N   UNL     1       3.604   5.203  17.558  0.00  0.00    +0.000 NA
ATOM      8  H   UNL     1       5.662   3.235  16.109  0.00  0.00    +0.000 HD
ENDROOT
BRANCH   6   9
ATOM      9  C   UNL     1       2.252   6.432  19.165  0.00  0.00    +0.000 A 
ATOM     10  C   UNL     1       1.663   6.496  20.444  0.00  0.00    +0.000 A 
ATOM     11  C   UNL     1       1.158   7.691  20.965  0.00  0.00    +0.000 A 
ATOM     12  C   UNL     1       1.235   8.878  20.233  0.00  0.00    +0.000 A 
ATOM     13  C   UNL     1       1.800   8.828  18.952  0.00  0.00    +0.000 A 
ATOM     14  C   UNL     1       2.312   7.626  18.430  0.00  0.00    +0.000 A 
BRANCH  12  15
ATOM     15  C   UNL     1       0.648  10.140  20.823  0.00  0.00    +0.000 C 
BRANCH  15  16
ATOM     16  N   UNL     1       1.011  10.350  22.219  0.00  0.00    +0.000 NA
ATOM     17  H   UNL     1       0.791   9.511  22.744  0.00  0.00    +0.000 HD
ATOM     18  H   UNL     1       0.424  11.089  22.602  0.00  0.00    +0.000 HD
ENDBRANCH  15  16
ENDBRANCH  12  15
ENDBRANCH   6   9
BRANCH   1  19
ATOM     19  C   UNL     1       5.604   5.210  15.550  0.00  0.00    +0.000 C 
BRANCH  19  20
ATOM     20  C   UNL     1       6.561   5.693  16.644  0.00  0.00    +0.000 A 
ATOM     21  C   UNL     1       7.144   4.772  17.524  0.00  0.00    +0.000 A 
ATOM     22  C   UNL     1       7.939   5.214  18.582  0.00  0.00    +0.000 A 
ATOM     23  C   UNL     1       8.164   6.576  18.777  0.00  0.00    +0.000 A 
ATOM     24  C   UNL     1       7.626   7.502  17.889  0.00  0.00    +0.000 A 
ATOM     25  C   UNL     1       6.841   7.064  16.826  0.00  0.00    +0.000 A 
ENDBRANCH  19  20
BRANCH  19  26
ATOM     26  C   UNL     1       6.429   4.975  14.261  0.00  0.00    +0.000 C 
BRANCH  26  28
ATOM     27  C   UNL     1       5.474   3.574  12.355  0.00  0.00    +0.000 C 
ATOM     28  C   UNL     1       6.322   3.596  13.613  0.00  0.00    +0.000 C 
ENDBRANCH  26  28
ENDBRANCH  19  26
ENDBRANCH   1  19
TORSDOF 7
ENDMDL
MODEL 6
REMARK VINA RESULT:      -7.7      1.223      1.299
REMARK  Name = 
REMARK  8 active torsions:
REMARK  status: ('A' for Active; 'I' for Inactive)
REMARK    1  A    between atoms: C_1  and  C_2
REMARK    2  A    between atoms: C_2  and  C_3
REMARK    3  A    between atoms: C_3  and  C_4
REMARK    4  A    between atoms: C_4  and  N_5
REMARK    5  A    between atoms: C_4  and  C_20
REMARK    6  A    between atoms: C_10  and  C_11
REMARK    7  A    between atoms: C_14  and  C_15
REMARK    8  A    between atoms: C_15  and  N_16
REMARK                            x       y       z     vdW  Elec       q    Type
REMARK                         _______ _______ _______ _____ _____    ______ ____
ROOT
ATOM      1  N   UNL     1       4.501   4.663  16.834  0.00  0.00    +0.000 N 
ATOM      2  C   UNL     1       3.713   4.917  17.978  0.00  0.00    +0.000 A 
ATOM      3  C   UNL     1       3.400   3.844  18.822  0.00  0.00    +0.000 A 
ATOM      4  N   UNL     1       2.575   3.924  19.892  0.00  0.00    +0.000 NA
ATOM      5  C   UNL     1       2.054   5.152  20.096  0.00  0.00    +0.000 A 
ATOM      6  C   UNL     1       2.354   6.262  19.302  0.00  0.00    +0.000 A 
ATOM      7  N   UNL     1       3.172   6.139  18.216  0.00  0.00    +0.000 NA
ATOM      8  H   UNL     1       5.183   3.945  17.055  0.00  0.00    +0.000 HD
ENDROOT
BRANCH   6   9
ATOM      9  C   UNL     1       1.855   7.611  19.637  0.00  0.00    +0.000 A 
ATOM     10  C   UNL     1       1.497   7.934  20.961  0.00  0.00    +0.000 A 
ATOM     11  C   UNL     1       1.025   9.203  21.310  0.00  0.00    +0.000 A 
ATOM     12  C   UNL     1       0.904  10.209  20.349  0.00  0.00    +0.000 A 
ATOM     13  C   UNL     1       1.237   9.898  19.023  0.00  0.00    +0.000 A 
ATOM     14  C   UNL     1       1.717   8.623  18.674  0.00  0.00    +0.000 A 
BRANCH  12  15
ATOM     15  C   UNL     1       0.360  11.556  20.766  0.00  0.00    +0.000 C 
BRANCH  15  16
ATOM     16  N   UNL     1      -0.133  11.583  22.137  0.00  0.00    +0.000 NA
ATOM     17  H   UNL     1      -0.971  11.017  22.194  0.00  0.00    +0.000 HD
ATOM     18  H   UNL     1      -0.413  12.535  22.366  0.00  0.00    +0.000 HD
ENDBRANCH  15  16
ENDBRANCH  12  15
ENDBRANCH   6   9
BRANCH   1  19
ATOM     19  C   UNL     1       5.159   5.820  16.221  0.00  0.00    +0.000 C 
BRANCH  19  20
ATOM     20  C   UNL     1       6.335   6.251  17.104  0.00  0.00    +0.000 A 
ATOM     21  C   UNL     1       6.899   5.348  18.012  0.00  0.00    +0.000 A 
ATOM     22  C   UNL     1       7.905   5.761  18.886  0.00  0.00    +0.000 A 
ATOM     23  C   UNL     1       8.361   7.079  18.867  0.00  0.00    +0.000 A 
ATOM     24  C   UNL     1       7.839   7.980  17.944  0.00  0.00    +0.000 A 
ATOM     25  C   UNL     1       6.844   7.567  17.063  0.00  0.00    +0.000 A 
ENDBRANCH  19  20
BRANCH  19  26
ATOM     26  C   UNL     1       5.719   5.452  14.825  0.00  0.00    +0.000 C 
BRANCH  26  28
ATOM     27  C   UNL     1       6.094   3.541  13.177  0.00  0.00    +0.000 C 
ATOM     28  C   UNL     1       6.168   4.006  14.619  0.00  0.00    +0.000 C 
ENDBRANCH  26  28
ENDBRANCH  19  26
ENDBRANCH   1  19
TORSDOF 7
ENDMDL
MODEL 7
REMARK VINA RESULT:      -7.6      2.096      7.398
REMARK  Name = 
REMARK  8 active torsions:
REMARK  status: ('A' for Active; 'I' for Inactive)
REMARK    1  A    between atoms: C_1  and  C_2
REMARK    2  A    between atoms: C_2  and  C_3
REMARK    3  A    between atoms: C_3  and  C_4
REMARK    4  A    between atoms: C_4  and  N_5
REMARK    5  A    between atoms: C_4  and  C_20
REMARK    6  A    between atoms: C_10  and  C_11
REMARK    7  A    between atoms: C_14  and  C_15
REMARK    8  A    between atoms: C_15  and  N_16
REMARK                            x       y       z     vdW  Elec       q    Type
REMARK                         _______ _______ _______ _____ _____    ______ ____
ROOT
ATOM      1  N   UNL     1       4.191   6.413  19.284  0.00  0.00    +0.000 N 
ATOM      2  C   UNL     1       5.305   5.758  18.716  0.00  0.00    +0.000 A 
ATOM      3  C   UNL     1       6.392   5.452  19.545  0.00  0.00    +0.000 A 
ATOM      4  N   UNL     1       7.559   4.919  19.115  0.00  0.00    +0.000 NA
ATOM      5  C   UNL     1       7.607   4.694  17.785  0.00  0.00    +0.000 A 
ATOM      6  C   UNL     1       6.542   4.955  16.918  0.00  0.00    +0.000 A 
ATOM      7  N   UNL     1       5.388   5.515  17.383  0.00  0.00    +0.000 NA
ATOM      8  H   UNL     1       4.058   6.078  20.233  0.00  0.00    +0.000 HD
ENDROOT
BRANCH   6   9
ATOM      9  C   UNL     1       6.599   4.580  15.490  0.00  0.00    +0.000 A 
ATOM     10  C   UNL     1       5.670   3.668  14.951  0.00  0.00    +0.000 A 
ATOM     11  C   UNL     1       5.695   3.296  13.604  0.00  0.00    +0.000 A 
ATOM     12  C   UNL     1       6.646   3.835  12.733  0.00  0.00    +0.000 A 
ATOM     13  C   UNL     1       7.589   4.729  13.257  0.00  0.00    +0.000 A 
ATOM     14  C   UNL     1       7.559   5.106  14.612  0.00  0.00    +0.000 A 
BRANCH  12  15
ATOM     15  C   UNL     1       6.655   3.381  11.292  0.00  0.00    +0.000 C 
BRANCH  15  16
ATOM     16  N   UNL     1       7.283   2.080  11.098  0.00  0.00    +0.000 NA
ATOM     17  H   UNL     1       8.062   1.994  11.740  0.00  0.00    +0.000 HD
ATOM     18  H   UNL     1       7.680   2.044  10.160  0.00  0.00    +0.000 HD
ENDBRANCH  15  16
ENDBRANCH  12  15
ENDBRANCH   6   9
BRANCH   1  19
ATOM     19  C   UNL     1       2.933   6.339  18.535  0.00  0.00    +0.000 C 
BRANCH  19  20
ATOM     20  C   UNL     1       2.167   5.085  18.970  0.00  0.00    +0.000 A 
ATOM     21  C   UNL     1       1.766   4.935  20.303  0.00  0.00    +0.000 A 
ATOM     22  C   UNL     1       1.154   3.755  20.727  0.00  0.00    +0.000 A 
ATOM     23  C   UNL     1       0.933   2.711  19.829  0.00  0.00    +0.000 A 
ATOM     24  C   UNL     1       1.289   2.859  18.493  0.00  0.00    +0.000 A 
ATOM     25  C   UNL     1       1.889   4.040  18.065  0.00  0.00    +0.000 A 
ENDBRANCH  19  20
BRANCH  19  26
ATOM     26  C   UNL     1       2.046   7.571  18.837  0.00  0.00    +0.000 C 
BRANCH  26  28
ATOM     27  C   UNL     1       1.525  10.003  18.268  0.00  0.00    +0.000 C 
ATOM     28  C   UNL     1       1.960   8.644  17.753  0.00  0.00    +0.000 C 
ENDBRANCH  26  28
ENDBRANCH  19  26
ENDBRANCH   1  19
TORSDOF 7
ENDMDL
MODEL 8
REMARK VINA RESULT:      -7.5      2.259      7.770
REMARK  Name = 
REMARK  8 active torsions:
REMARK  status: ('A' for Active; 'I' for Inactive)
REMARK    1  A    between atoms: C_1  and  C_2
REMARK    2  A    between atoms: C_2  and  C_3
REMARK    3  A    between atoms: C_3  and  C_4
REMARK    4  A    between atoms: C_4  and  N_5
REMARK    5  A    between atoms: C_4  and  C_20
REMARK    6  A    between atoms: C_10  and  C_11
REMARK    7  A    between atoms: C_14  and  C_15
REMARK    8  A    between atoms: C_15  and  N_16
REMARK                            x       y       z     vdW  Elec       q    Type
REMARK                         _______ _______ _______ _____ _____    ______ ____
ROOT
ATOM      1  N   UNL     1       1.061   9.306  20.127  0.00  0.00    +0.000 N 
ATOM      2  C   UNL     1       1.555   7.992  19.973  0.00  0.00    +0.000 A 
ATOM      3  C   UNL     1       1.214   7.035  20.937  0.00  0.00    +0.000 A 
ATOM      4  N   UNL     1       1.696   5.771  20.968  0.00  0.00    +0.000 NA
ATOM      5  C   UNL     1       2.561   5.485  19.972  0.00  0.00    +0.000 A 
ATOM      6  C   UNL     1       2.914   6.393  18.971  0.00  0.00    +0.000 A 
ATOM      7  N   UNL     1       2.426   7.668  18.984  0.00  0.00    +0.000 NA
ATOM      8  H   UNL     1       0.130   9.264  20.528  0.00  0.00    +0.000 HD
ENDROOT
BRANCH   6   9
ATOM      9  C   UNL     1       3.770   5.996  17.834  0.00  0.00    +0.000 A 
ATOM     10  C   UNL     1       3.923   4.638  17.491  0.00  0.00    +0.000 A 
ATOM     11  C   UNL     1       4.723   4.232  16.419  0.00  0.00    +0.000 A 
ATOM     12  C   UNL     1       5.394   5.172  15.633  0.00  0.00    +0.000 A 
ATOM     13  C   UNL     1       5.268   6.526  15.972  0.00  0.00    +0.000 A 
ATOM     14  C   UNL     1       4.459   6.934  17.048  0.00  0.00    +0.000 A 
BRANCH  12  15
ATOM     15  C   UNL     1       6.273   4.685  14.504  0.00  0.00    +0.000 C 
BRANCH  15  16
ATOM     16  N   UNL     1       7.575   5.338  14.460  0.00  0.00    +0.000 NA
ATOM     17  H   UNL     1       7.437   6.342  14.465  0.00  0.00    +0.000 HD
ATOM     18  H   UNL     1       8.023   5.115  13.573  0.00  0.00    +0.000 HD
ENDBRANCH  15  16
ENDBRANCH  12  15
ENDBRANCH   6   9
BRANCH   1  19
ATOM     19  C   UNL     1       1.065  10.153  18.931  0.00  0.00    +0.000 C 
BRANCH  19  20
ATOM     20  C   UNL     1      -0.382  10.460  18.533  0.00  0.00    +0.000 A 
ATOM     21  C   UNL     1      -1.100  11.455  19.207  0.00  0.00    +0.000 A 
ATOM     22  C   UNL     1      -2.447  11.674  18.915  0.00  0.00    +0.000 A 
ATOM     23  C   UNL     1      -3.094  10.906  17.948  0.00  0.00    +0.000 A 
ATOM     24  C   UNL     1      -2.386   9.940  17.240  0.00  0.00    +0.000 A 
ATOM     25  C   UNL     1      -1.039   9.727  17.522  0.00  0.00    +0.000 A 
ENDBRANCH  19  20
BRANCH  19  26
ATOM     26  C   UNL     1       1.778  11.497  19.219  0.00  0.00    +0.000 C 
BRANCH  26  28
ATOM     27  C   UNL     1       2.601  13.706  18.244  0.00  0.00    +0.000 C 
ATOM     28  C   UNL     1       2.403  12.218  18.026  0.00  0.00    +0.000 C 
ENDBRANCH  26  28
ENDBRANCH  19  26
ENDBRANCH   1  19
TORSDOF 7
ENDMDL
MODEL 9
REMARK VINA RESULT:      -7.5      2.278      7.742
REMARK  Name = 
REMARK  8 active torsions:
REMARK  status: ('A' for Active; 'I' for Inactive)
REMARK    1  A    between atoms: C_1  and  C_2
REMARK    2  A    between atoms: C_2  and  C_3
REMARK    3  A    between atoms: C_3  and  C_4
REMARK    4  A    between atoms: C_4  and  N_5
REMARK    5  A    between atoms: C_4  and  C_20
REMARK    6  A    between atoms: C_10  and  C_11
REMARK    7  A    between atoms: C_14  and  C_15
REMARK    8  A    between atoms: C_15  and  N_16
REMARK                            x       y       z     vdW  Elec       q    Type
REMARK                         _______ _______ _______ _____ _____    ______ ____
ROOT
ATOM      1  N   UNL     1       1.033   9.329  20.111  0.00  0.00    +0.000 N 
ATOM      2  C   UNL     1       1.521   8.010  19.984  0.00  0.00    +0.000 A 
ATOM      3  C   UNL     1       1.182   7.077  20.972  0.00  0.00    +0.000 A 
ATOM      4  N   UNL     1       1.659   5.812  21.029  0.00  0.00    +0.000 NA
ATOM      5  C   UNL     1       2.517   5.500  20.034  0.00  0.00    +0.000 A 
ATOM      6  C   UNL     1       2.867   6.384  19.010  0.00  0.00    +0.000 A 
ATOM      7  N   UNL     1       2.384   7.660  18.997  0.00  0.00    +0.000 NA
ATOM      8  H   UNL     1       0.104   9.300  20.519  0.00  0.00    +0.000 HD
ENDROOT
BRANCH   6   9
ATOM      9  C   UNL     1       3.714   5.957  17.877  0.00  0.00    +0.000 A 
ATOM     10  C   UNL     1       4.421   6.907  17.113  0.00  0.00    +0.000 A 
ATOM     11  C   UNL     1       5.232   6.534  16.037  0.00  0.00    +0.000 A 
ATOM     12  C   UNL     1       5.383   5.189  15.690  0.00  0.00    +0.000 A 
ATOM     13  C   UNL     1       4.672   4.233  16.427  0.00  0.00    +0.000 A 
ATOM     14  C   UNL     1       3.860   4.609  17.512  0.00  0.00    +0.000 A 
BRANCH  12  15
ATOM     15  C   UNL     1       6.246   4.835  14.501  0.00  0.00    +0.000 C 
BRANCH  15  16
ATOM     16  N   UNL     1       7.571   5.440  14.545  0.00  0.00    +0.000 NA
ATOM     17  H   UNL     1       8.266   4.702  14.567  0.00  0.00    +0.000 HD
ATOM     18  H   UNL     1       7.669   5.952  15.420  0.00  0.00    +0.000 HD
ENDBRANCH  15  16
ENDBRANCH  12  15
ENDBRANCH   6   9
BRANCH   1  19
ATOM     19  C   UNL     1       1.033  10.149  18.896  0.00  0.00    +0.000 C 
BRANCH  19  20
ATOM     20  C   UNL     1      -0.416  10.387  18.456  0.00  0.00    +0.000 A 
ATOM     21  C   UNL     1      -0.964   9.635  17.411  0.00  0.00    +0.000 A 
ATOM     22  C   UNL     1      -2.248   9.912  16.940  0.00  0.00    +0.000 A 
ATOM     23  C   UNL     1      -3.001  10.941  17.505  0.00  0.00    +0.000 A 
ATOM     24  C   UNL     1      -2.487  11.672  18.571  0.00  0.00    +0.000 A 
ATOM     25  C   UNL     1      -1.211  11.390  19.049  0.00  0.00    +0.000 A 
ENDBRANCH  19  20
BRANCH  19  26
ATOM     26  C   UNL     1       1.683  11.527  19.169  0.00  0.00    +0.000 C 
BRANCH  26  28
ATOM     27  C   UNL     1       2.718  13.654  18.213  0.00  0.00    +0.000 C 
ATOM     28  C   UNL     1       2.440  12.177  18.011  0.00  0.00    +0.000 C 
ENDBRANCH  26  28
ENDBRANCH  19  26
ENDBRANCH   1  19
TORSDOF 7
ENDMDL
