MODEL 1
REMARK VINA RESULT:      -8.3      0.000      0.000
REMARK  Name = 
REMARK  6 active torsions:
REMARK  status: ('A' for Active; 'I' for Inactive)
REMARK    1  A    between atoms: C_2  and  C_3
REMARK    2  A    between atoms: C_8  and  C_9
REMARK    3  A    between atoms: C_9  and  C_10
REMARK    4  A    between atoms: N_17  and  C_18
REMARK    5  A    between atoms: C_18  and  C_19
REMARK    6  A    between atoms: C_19  and  C_20
REMARK                            x       y       z     vdW  Elec       q    Type
REMARK                         _______ _______ _______ _____ _____    ______ ____
ROOT
ATOM      1  C   UNL     1       6.368   4.471  14.388  0.00  0.00    +0.000 A 
ATOM      2  N   UNL     1       7.442   5.149  14.852  0.00  0.00    +0.000 NA
ATOM      3  C   UNL     1       7.329   5.750  16.057  0.00  0.00    +0.000 A 
ATOM      4  C   UNL     1       6.132   5.660  16.765  0.00  0.00    +0.000 A 
ATOM      5  C   UNL     1       5.652   6.123  18.010  0.00  0.00    +0.000 A 
ATOM      6  C   UNL     1       4.351   5.663  18.179  0.00  0.00    +0.000 A 
ATOM      7  N   UNL     1       4.011   4.981  17.016  0.00  0.00    +0.000 N 
ATOM      8  C   UNL     1       5.108   4.938  16.177  0.00  0.00    +0.000 A 
ATOM      9  N   UNL     1       5.168   4.312  14.988  0.00  0.00    +0.000 NA
ENDROOT
BRANCH   1  11
ATOM     10  N   UNL     1       6.642   3.330  12.062  0.00  0.00    +0.000 NA
ATOM     11  C   UNL     1       6.517   3.842  13.100  0.00  0.00    +0.000 C 
ENDBRANCH   1  11
BRANCH   6  12
ATOM     12  C   UNL     1       3.430   5.865  19.352  0.00  0.00    +0.000 C 
BRANCH  12  13
ATOM     13  C   UNL     1       2.536   7.094  19.264  0.00  0.00    +0.000 A 
ATOM     14  C   UNL     1       1.912   7.606  20.414  0.00  0.00    +0.000 A 
ATOM     15  C   UNL     1       1.169   8.789  20.357  0.00  0.00    +0.000 A 
ATOM     16  C   UNL     1       1.036   9.468  19.149  0.00  0.00    +0.000 A 
ATOM     17 CL   UNL     1       0.163  10.950  19.090  0.00  0.00    +0.000 Cl
ATOM     18  C   UNL     1       1.620   8.959  17.991  0.00  0.00    +0.000 A 
ATOM     19  C   UNL     1       2.366   7.777  18.047  0.00  0.00    +0.000 A 
ENDBRANCH  12  13
ENDBRANCH   6  12
BRANCH   7  20
ATOM     20  C   UNL     1       2.764   4.284  16.722  0.00  0.00    +0.000 C 
BRANCH  20  21
ATOM     21  C   UNL     1       2.751   2.762  16.983  0.00  0.00    +0.000 C 
BRANCH  21  22
ATOM     22  C   UNL     1       2.170   2.309  18.348  0.00  0.00    +0.000 C 
ATOM     23  C   UNL     1       3.245   1.726  19.292  0.00  0.00    +0.000 C 
ATOM     24  C   UNL     1       3.666   2.573  20.495  0.00  0.00    +0.000 C 
ATOM     25  C   UNL     1       2.710   2.446  21.679  0.00  0.00    +0.000 C 
ATOM     26  C   UNL     1       1.397   3.210  21.545  0.00  0.00    +0.000 C 
ATOM     27  C   UNL     1       0.611   2.965  20.260  0.00  0.00    +0.000 C 
ATOM     28  C   UNL     1       1.328   3.429  18.988  0.00  0.00    +0.000 C 
ENDBRANCH  21  22
ENDBRANCH  20  21
ENDBRANCH   7  20
TORSDOF 6
ENDMDL
MODEL 2
REMARK VINA RESULT:      -7.4      3.763      6.893
REMARK  Name = 
REMARK  6 active torsions:
REMARK  status: ('A' for Active; 'I' for Inactive)
REMARK    1  A    between atoms: C_2  and  C_3
REMARK    2  A    between atoms: C_8  and  C_9
REMARK    3  A    between atoms: C_9  and  C_10
REMARK    4  A    between atoms: N_17  and  C_18
REMARK    5  A    between atoms: C_18  and  C_19
REMARK    6  A    between atoms: C_19  and  C_20
REMARK                            x       y       z     vdW  Elec       q    Type
REMARK                         _______ _______ _______ _____ _____    ______ ____
ROOT
ATOM      1  C   UNL     1       0.368  10.840  20.879  0.00  0.00    +0.000 A 
ATOM      2  N   UNL     1       0.439  11.676  19.818  0.00  0.00    +0.000 NA
ATOM      3  C   UNL     1       0.973  11.191  18.674  0.00  0.00    +0.000 A 
ATOM      4  C   UNL     1       1.429   9.875  18.628  0.00  0.00    +0.000 A 
ATOM      5  C   UNL     1       2.013   9.037  17.652  0.00  0.00    +0.000 A 
ATOM      6  C   UNL     1       2.215   7.782  18.214  0.00  0.00    +0.000 A 
ATOM      7  N   UNL     1       1.822   7.868  19.545  0.00  0.00    +0.000 N 
ATOM      8  C   UNL     1       1.301   9.126  19.784  0.00  0.00    +0.000 A 
ATOM      9  N   UNL     1       0.770   9.552  20.945  0.00  0.00    +0.000 NA
ENDROOT
BRANCH   1  11
ATOM     10  N   UNL     1      -0.662  11.824  23.059  0.00  0.00    +0.000 NA
ATOM     11  C   UNL     1      -0.204  11.385  22.083  0.00  0.00    +0.000 C 
ENDBRANCH   1  11
BRANCH   6  12
ATOM     12  C   UNL     1       2.779   6.545  17.569  0.00  0.00    +0.000 C 
BRANCH  12  13
ATOM     13  C   UNL     1       4.223   6.232  17.932  0.00  0.00    +0.000 A 
ATOM     14  C   UNL     1       5.281   6.848  17.242  0.00  0.00    +0.000 A 
ATOM     15  C   UNL     1       6.608   6.639  17.634  0.00  0.00    +0.000 A 
ATOM     16  C   UNL     1       6.889   5.807  18.714  0.00  0.00    +0.000 A 
ATOM     17 CL   UNL     1       8.518   5.590  19.228  0.00  0.00    +0.000 Cl
ATOM     18  C   UNL     1       5.856   5.162  19.391  0.00  0.00    +0.000 A 
ATOM     19  C   UNL     1       4.529   5.373  19.001  0.00  0.00    +0.000 A 
ENDBRANCH  12  13
ENDBRANCH   6  12
BRANCH   7  20
ATOM     20  C   UNL     1       1.808   6.805  20.544  0.00  0.00    +0.000 C 
BRANCH  20  21
ATOM     21  C   UNL     1       0.674   5.764  20.420  0.00  0.00    +0.000 C 
BRANCH  21  22
ATOM     22  C   UNL     1       1.104   4.275  20.486  0.00  0.00    +0.000 C 
ATOM     23  C   UNL     1       0.863   3.523  19.158  0.00  0.00    +0.000 C 
ATOM     24  C   UNL     1       2.089   3.160  18.316  0.00  0.00    +0.000 C 
ATOM     25  C   UNL     1       2.781   1.884  18.789  0.00  0.00    +0.000 C 
ATOM     26  C   UNL     1       3.632   2.028  20.046  0.00  0.00    +0.000 C 
ATOM     27  C   UNL     1       2.947   2.679  21.244  0.00  0.00    +0.000 C 
ATOM     28  C   UNL     1       2.544   4.140  21.019  0.00  0.00    +0.000 C 
ENDBRANCH  21  22
ENDBRANCH  20  21
ENDBRANCH   7  20
TORSDOF 6
ENDMDL
MODEL 3
REMARK VINA RESULT:      -7.4      2.410      5.566
REMARK  Name = 
REMARK  6 active torsions:
REMARK  status: ('A' for Active; 'I' for Inactive)
REMARK    1  A    between atoms: C_2  and  C_3
REMARK    2  A    between atoms: C_8  and  C_9
REMARK    3  A    between atoms: C_9  and  C_10
REMARK    4  A    between atoms: N_17  and  C_18
REMARK    5  A    between atoms: C_18  and  C_19
REMARK    6  A    between atoms: C_19  and  C_20
REMARK                            x       y       z     vdW  Elec       q    Type
REMARK                         _______ _______ _______ _____ _____    ______ ____
ROOT
ATOM      1  C   UNL     1       7.206   7.210  17.247  0.00  0.00    +0.000 A 
ATOM      2  N   UNL     1       7.834   6.509  16.275  0.00  0.00    +0.000 NA
ATOM      3  C   UNL     1       7.208   5.412  15.791  0.00  0.00    +0.000 A 
ATOM      4  C   UNL     1       5.965   5.044  16.303  0.00  0.00    +0.000 A 
ATOM      5  C   UNL     1       5.031   4.013  16.057  0.00  0.00    +0.000 A 
ATOM      6  C   UNL     1       3.932   4.208  16.885  0.00  0.00    +0.000 A 
ATOM      7  N   UNL     1       4.220   5.310  17.683  0.00  0.00    +0.000 N 
ATOM      8  C   UNL     1       5.434   5.846  17.298  0.00  0.00    +0.000 A 
ATOM      9  N   UNL     1       6.006   6.951  17.809  0.00  0.00    +0.000 NA
ENDROOT
BRANCH   1  11
ATOM     10  N   UNL     1       8.456   9.310  18.149  0.00  0.00    +0.000 NA
ATOM     11  C   UNL     1       7.898   8.372  17.743  0.00  0.00    +0.000 C 
ENDBRANCH   1  11
BRANCH   6  12
ATOM     12  C   UNL     1       2.668   3.397  16.972  0.00  0.00    +0.000 C 
BRANCH  12  13
ATOM     13  C   UNL     1       2.219   3.056  18.385  0.00  0.00    +0.000 A 
ATOM     14  C   UNL     1       3.102   2.436  19.285  0.00  0.00    +0.000 A 
ATOM     15  C   UNL     1       2.727   2.209  20.613  0.00  0.00    +0.000 A 
ATOM     16  C   UNL     1       1.463   2.592  21.052  0.00  0.00    +0.000 A 
ATOM     17 CL   UNL     1       1.020   2.358  22.699  0.00  0.00    +0.000 Cl
ATOM     18  C   UNL     1       0.561   3.179  20.168  0.00  0.00    +0.000 A 
ATOM     19  C   UNL     1       0.937   3.409  18.839  0.00  0.00    +0.000 A 
ENDBRANCH  12  13
ENDBRANCH   6  12
BRANCH   7  20
ATOM     20  C   UNL     1       3.365   5.932  18.688  0.00  0.00    +0.000 C 
BRANCH  20  21
ATOM     21  C   UNL     1       2.292   6.911  18.164  0.00  0.00    +0.000 C 
BRANCH  21  22
ATOM     22  C   UNL     1       2.124   8.231  18.961  0.00  0.00    +0.000 C 
ATOM     23  C   UNL     1       1.622   9.400  18.085  0.00  0.00    +0.000 C 
ATOM     24  C   UNL     1       0.177   9.864  18.282  0.00  0.00    +0.000 C 
ATOM     25  C   UNL     1       0.013  10.819  19.462  0.00  0.00    +0.000 C 
ATOM     26  C   UNL     1       0.038  10.167  20.840  0.00  0.00    +0.000 C 
ATOM     27  C   UNL     1       1.225   9.249  21.122  0.00  0.00    +0.000 C 
ATOM     28  C   UNL     1       1.281   8.005  20.231  0.00  0.00    +0.000 C 
ENDBRANCH  21  22
ENDBRANCH  20  21
ENDBRANCH   7  20
TORSDOF 6
ENDMDL
MODEL 4
REMARK VINA RESULT:      -7.3      3.455      6.528
REMARK  Name = 
REMARK  6 active torsions:
REMARK  status: ('A' for Active; 'I' for Inactive)
REMARK    1  A    between atoms: C_2  and  C_3
REMARK    2  A    between atoms: C_8  and  C_9
REMARK    3  A    between atoms: C_9  and  C_10
REMARK    4  A    between atoms: N_17  and  C_18
REMARK    5  A    between atoms: C_18  and  C_19
REMARK    6  A    between atoms: C_19  and  C_20
REMARK                            x       y       z     vdW  Elec       q    Type
REMARK                         _______ _______ _______ _____ _____    ______ ____
ROOT
ATOM      1  C   UNL     1       0.638   9.939  19.627  0.00  0.00    +0.000 A 
ATOM      2  N   UNL     1       1.042  10.505  18.466  0.00  0.00    +0.000 NA
ATOM      3  C   UNL     1       1.942   9.827  17.719  0.00  0.00    +0.000 A 
ATOM      4  C   UNL     1       2.419   8.594  18.163  0.00  0.00    +0.000 A 
ATOM      5  C   UNL     1       3.318   7.619  17.676  0.00  0.00    +0.000 A 
ATOM      6  C   UNL     1       3.349   6.561  18.576  0.00  0.00    +0.000 A 
ATOM      7  N   UNL     1       2.528   6.914  19.642  0.00  0.00    +0.000 N 
ATOM      8  C   UNL     1       1.927   8.128  19.369  0.00  0.00    +0.000 A 
ATOM      9  N   UNL     1       1.025   8.754  20.147  0.00  0.00    +0.000 NA
ENDROOT
BRANCH   1  11
ATOM     10  N   UNL     1      -1.097  11.289  21.024  0.00  0.00    +0.000 NA
ATOM     11  C   UNL     1      -0.320  10.686  20.402  0.00  0.00    +0.000 C 
ENDBRANCH   1  11
BRANCH   6  12
ATOM     12  C   UNL     1       4.127   5.276  18.487  0.00  0.00    +0.000 C 
BRANCH  12  13
ATOM     13  C   UNL     1       5.053   5.168  17.283  0.00  0.00    +0.000 A 
ATOM     14  C   UNL     1       4.667   4.431  16.151  0.00  0.00    +0.000 A 
ATOM     15  C   UNL     1       5.470   4.408  15.005  0.00  0.00    +0.000 A 
ATOM     16  C   UNL     1       6.669   5.114  14.984  0.00  0.00    +0.000 A 
ATOM     17 CL   UNL     1       7.632   5.126  13.558  0.00  0.00    +0.000 Cl
ATOM     18  C   UNL     1       7.085   5.824  16.108  0.00  0.00    +0.000 A 
ATOM     19  C   UNL     1       6.281   5.850  17.254  0.00  0.00    +0.000 A 
ENDBRANCH  12  13
ENDBRANCH   6  12
BRANCH   7  20
ATOM     20  C   UNL     1       2.205   6.120  20.822  0.00  0.00    +0.000 C 
BRANCH  20  21
ATOM     21  C   UNL     1       1.038   5.119  20.676  0.00  0.00    +0.000 C 
BRANCH  21  22
ATOM     22  C   UNL     1       1.429   3.662  20.316  0.00  0.00    +0.000 C 
ATOM     23  C   UNL     1       0.881   3.217  18.942  0.00  0.00    +0.000 C 
ATOM     24  C   UNL     1       1.880   3.073  17.792  0.00  0.00    +0.000 C 
ATOM     25  C   UNL     1       2.623   1.739  17.810  0.00  0.00    +0.000 C 
ATOM     26  C   UNL     1       3.733   1.620  18.848  0.00  0.00    +0.000 C 
ATOM     27  C   UNL     1       3.346   1.977  20.281  0.00  0.00    +0.000 C 
ATOM     28  C   UNL     1       2.946   3.443  20.476  0.00  0.00    +0.000 C 
ENDBRANCH  21  22
ENDBRANCH  20  21
ENDBRANCH   7  20
TORSDOF 6
ENDMDL
MODEL 5
REMARK VINA RESULT:      -7.2      1.033      1.408
REMARK  Name = 
REMARK  6 active torsions:
REMARK  status: ('A' for Active; 'I' for Inactive)
REMARK    1  A    between atoms: C_2  and  C_3
REMARK    2  A    between atoms: C_8  and  C_9
REMARK    3  A    between atoms: C_9  and  C_10
REMARK    4  A    between atoms: N_17  and  C_18
REMARK    5  A    between atoms: C_18  and  C_19
REMARK    6  A    between atoms: C_19  and  C_20
REMARK                            x       y       z     vdW  Elec       q    Type
REMARK                         _______ _______ _______ _____ _____    ______ ____
ROOT
ATOM      1  C   UNL     1       6.402   3.556  13.111  0.00  0.00    +0.000 A 
ATOM      2  N   UNL     1       7.153   4.668  12.936  0.00  0.00    +0.000 NA
ATOM      3  C   UNL     1       7.197   5.560  13.950  0.00  0.00    +0.000 A 
ATOM      4  C   UNL     1       6.477   5.314  15.119  0.00  0.00    +0.000 A 
ATOM      5  C   UNL     1       6.289   5.974  16.353  0.00  0.00    +0.000 A 
ATOM      6  C   UNL     1       5.466   5.189  17.151  0.00  0.00    +0.000 A 
ATOM      7  N   UNL     1       5.095   4.088  16.387  0.00  0.00    +0.000 N 
ATOM      8  C   UNL     1       5.746   4.140  15.169  0.00  0.00    +0.000 A 
ATOM      9  N   UNL     1       5.674   3.213  14.196  0.00  0.00    +0.000 NA
ENDROOT
BRANCH   1  11
ATOM     10  N   UNL     1       6.355   1.873  11.124  0.00  0.00    +0.000 NA
ATOM     11  C   UNL     1       6.373   2.625  12.012  0.00  0.00    +0.000 C 
ENDBRANCH   1  11
BRANCH   6  12
ATOM     12  C   UNL     1       5.003   5.447  18.559  0.00  0.00    +0.000 C 
BRANCH  12  13
ATOM     13  C   UNL     1       3.840   6.420  18.686  0.00  0.00    +0.000 A 
ATOM     14  C   UNL     1       3.089   6.483  19.871  0.00  0.00    +0.000 A 
ATOM     15  C   UNL     1       2.082   7.442  20.029  0.00  0.00    +0.000 A 
ATOM     16  C   UNL     1       1.812   8.340  19.001  0.00  0.00    +0.000 A 
ATOM     17 CL   UNL     1       0.608   9.552  19.216  0.00  0.00    +0.000 Cl
ATOM     18  C   UNL     1       2.524   8.274  17.806  0.00  0.00    +0.000 A 
ATOM     19  C   UNL     1       3.534   7.317  17.649  0.00  0.00    +0.000 A 
ENDBRANCH  12  13
ENDBRANCH   6  12
BRANCH   7  20
ATOM     20  C   UNL     1       4.266   2.958  16.792  0.00  0.00    +0.000 C 
BRANCH  20  21
ATOM     21  C   UNL     1       2.753   3.234  16.930  0.00  0.00    +0.000 C 
BRANCH  21  22
ATOM     22  C   UNL     1       2.083   2.731  18.236  0.00  0.00    +0.000 C 
ATOM     23  C   UNL     1       3.046   1.913  19.125  0.00  0.00    +0.000 C 
ATOM     24  C   UNL     1       3.552   2.567  20.412  0.00  0.00    +0.000 C 
ATOM     25  C   UNL     1       2.560   2.456  21.568  0.00  0.00    +0.000 C 
ATOM     26  C   UNL     1       1.369   3.405  21.502  0.00  0.00    +0.000 C 
ATOM     27  C   UNL     1       0.586   3.402  20.191  0.00  0.00    +0.000 C 
ATOM     28  C   UNL     1       1.389   3.888  18.980  0.00  0.00    +0.000 C 
ENDBRANCH  21  22
ENDBRANCH  20  21
ENDBRANCH   7  20
TORSDOF 6
ENDMDL
MODEL 6
REMARK VINA RESULT:      -7.2      4.978      9.251
REMARK  Name = 
REMARK  6 active torsions:
REMARK  status: ('A' for Active; 'I' for Inactive)
REMARK    1  A    between atoms: C_2  and  C_3
REMARK    2  A    between atoms: C_8  and  C_9
REMARK    3  A    between atoms: C_9  and  C_10
REMARK    4  A    between atoms: N_17  and  C_18
REMARK    5  A    between atoms: C_18  and  C_19
REMARK    6  A    between atoms: C_19  and  C_20
REMARK                            x       y       z     vdW  Elec       q    Type
REMARK                         _______ _______ _______ _____ _____    ______ ____
ROOT
ATOM      1  C   UNL     1      -0.422  10.854  22.379  0.00  0.00    +0.000 A 
ATOM      2  N   UNL     1       0.059   9.993  23.304  0.00  0.00    +0.000 NA
ATOM      3  C   UNL     1       0.827   8.969  22.868  0.00  0.00    +0.000 A 
ATOM      4  C   UNL     1       1.088   8.833  21.506  0.00  0.00    +0.000 A 
ATOM      5  C   UNL     1       1.825   7.939  20.698  0.00  0.00    +0.000 A 
ATOM      6  C   UNL     1       1.732   8.360  19.377  0.00  0.00    +0.000 A 
ATOM      7  N   UNL     1       0.887   9.464  19.365  0.00  0.00    +0.000 N 
ATOM      8  C   UNL     1       0.533   9.780  20.663  0.00  0.00    +0.000 A 
ATOM      9  N   UNL     1      -0.228  10.822  21.042  0.00  0.00    +0.000 NA
ENDROOT
BRANCH   1  11
ATOM     10  N   UNL     1      -1.893  12.808  23.273  0.00  0.00    +0.000 NA
ATOM     11  C   UNL     1      -1.238  11.933  22.874  0.00  0.00    +0.000 C 
ENDBRANCH   1  11
BRANCH   6  12
ATOM     12  C   UNL     1       2.368   7.758  18.154  0.00  0.00    +0.000 C 
BRANCH  12  13
ATOM     13  C   UNL     1       2.656   6.266  18.247  0.00  0.00    +0.000 A 
ATOM     14  C   UNL     1       3.919   5.808  18.658  0.00  0.00    +0.000 A 
ATOM     15  C   UNL     1       4.160   4.442  18.839  0.00  0.00    +0.000 A 
ATOM     16  C   UNL     1       3.143   3.521  18.603  0.00  0.00    +0.000 A 
ATOM     17 CL   UNL     1       3.425   1.845  18.875  0.00  0.00    +0.000 Cl
ATOM     18  C   UNL     1       1.894   3.952  18.164  0.00  0.00    +0.000 A 
ATOM     19  C   UNL     1       1.651   5.319  17.986  0.00  0.00    +0.000 A 
ENDBRANCH  12  13
ENDBRANCH   6  12
BRANCH   7  20
ATOM     20  C   UNL     1       0.504  10.284  18.220  0.00  0.00    +0.000 C 
BRANCH  20  21
ATOM     21  C   UNL     1      -0.866   9.970  17.581  0.00  0.00    +0.000 C 
BRANCH  21  22
ATOM     22  C   UNL     1      -1.918  11.109  17.627  0.00  0.00    +0.000 C 
ATOM     23  C   UNL     1      -2.704  11.251  16.305  0.00  0.00    +0.000 C 
ATOM     24  C   UNL     1      -4.164  10.792  16.294  0.00  0.00    +0.000 C 
ATOM     25  C   UNL     1      -5.123  11.840  16.853  0.00  0.00    +0.000 C 
ATOM     26  C   UNL     1      -5.131  11.977  18.372  0.00  0.00    +0.000 C 
ATOM     27  C   UNL     1      -3.768  12.168  19.031  0.00  0.00    +0.000 C 
ATOM     28  C   UNL     1      -2.820  10.976  18.870  0.00  0.00    +0.000 C 
ENDBRANCH  21  22
ENDBRANCH  20  21
ENDBRANCH   7  20
TORSDOF 6
ENDMDL
MODEL 7
REMARK VINA RESULT:      -7.1      0.954      1.451
REMARK  Name = 
REMARK  6 active torsions:
REMARK  status: ('A' for Active; 'I' for Inactive)
REMARK    1  A    between atoms: C_2  and  C_3
REMARK    2  A    between atoms: C_8  and  C_9
REMARK    3  A    between atoms: C_9  and  C_10
REMARK    4  A    between atoms: N_17  and  C_18
REMARK    5  A    between atoms: C_18  and  C_19
REMARK    6  A    between atoms: C_19  and  C_20
REMARK                            x       y       z     vdW  Elec       q    Type
REMARK                         _______ _______ _______ _____ _____    ______ ____
ROOT
ATOM      1  C   UNL     1       6.083   3.759  13.222  0.00  0.00    +0.000 A 
ATOM      2  N   UNL     1       7.205   4.512  13.295  0.00  0.00    +0.000 NA
ATOM      3  C   UNL     1       7.409   5.224  14.426  0.00  0.00    +0.000 A 
ATOM      4  C   UNL     1       6.473   5.165  15.457  0.00  0.00    +0.000 A 
ATOM      5  C   UNL     1       6.344   5.732  16.745  0.00  0.00    +0.000 A 
ATOM      6  C   UNL     1       5.176   5.251  17.323  0.00  0.00    +0.000 A 
ATOM      7  N   UNL     1       4.556   4.449  16.371  0.00  0.00    +0.000 N 
ATOM      8  C   UNL     1       5.366   4.359  15.255  0.00  0.00    +0.000 A 
ATOM      9  N   UNL     1       5.118   3.623  14.157  0.00  0.00    +0.000 NA
ENDROOT
BRANCH   1  11
ATOM     10  N   UNL     1       5.739   2.407  11.023  0.00  0.00    +0.000 NA
ATOM     11  C   UNL     1       5.893   3.014  12.004  0.00  0.00    +0.000 C 
ENDBRANCH   1  11
BRANCH   6  12
ATOM     12  C   UNL     1       4.621   5.536  18.692  0.00  0.00    +0.000 C 
BRANCH  12  13
ATOM     13  C   UNL     1       3.602   6.665  18.750  0.00  0.00    +0.000 A 
ATOM     14  C   UNL     1       3.503   7.592  17.698  0.00  0.00    +0.000 A 
ATOM     15  C   UNL     1       2.505   8.572  17.701  0.00  0.00    +0.000 A 
ATOM     16  C   UNL     1       1.602   8.640  18.757  0.00  0.00    +0.000 A 
ATOM     17 CL   UNL     1       0.343   9.814  18.735  0.00  0.00    +0.000 Cl
ATOM     18  C   UNL     1       1.703   7.751  19.825  0.00  0.00    +0.000 A 
ATOM     19  C   UNL     1       2.699   6.768  19.822  0.00  0.00    +0.000 A 
ENDBRANCH  12  13
ENDBRANCH   6  12
BRANCH   7  20
ATOM     20  C   UNL     1       3.319   3.688  16.512  0.00  0.00    +0.000 C 
BRANCH  20  21
ATOM     21  C   UNL     1       3.439   2.306  17.190  0.00  0.00    +0.000 C 
BRANCH  21  22
ATOM     22  C   UNL     1       2.579   2.094  18.464  0.00  0.00    +0.000 C 
ATOM     23  C   UNL     1       3.423   1.698  19.696  0.00  0.00    +0.000 C 
ATOM     24  C   UNL     1       3.611   2.748  20.794  0.00  0.00    +0.000 C 
ATOM     25  C   UNL     1       2.430   2.821  21.759  0.00  0.00    +0.000 C 
ATOM     26  C   UNL     1       1.193   3.535  21.226  0.00  0.00    +0.000 C 
ATOM     27  C   UNL     1       0.680   3.059  19.870  0.00  0.00    +0.000 C 
ATOM     28  C   UNL     1       1.653   3.300  18.711  0.00  0.00    +0.000 C 
ENDBRANCH  21  22
ENDBRANCH  20  21
ENDBRANCH   7  20
TORSDOF 6
ENDMDL
MODEL 8
REMARK VINA RESULT:      -7.1      3.282      7.328
REMARK  Name = 
REMARK  6 active torsions:
REMARK  status: ('A' for Active; 'I' for Inactive)
REMARK    1  A    between atoms: C_2  and  C_3
REMARK    2  A    between atoms: C_8  and  C_9
REMARK    3  A    between atoms: C_9  and  C_10
REMARK    4  A    between atoms: N_17  and  C_18
REMARK    5  A    between atoms: C_18  and  C_19
REMARK    6  A    between atoms: C_19  and  C_20
REMARK                            x       y       z     vdW  Elec       q    Type
REMARK                         _______ _______ _______ _____ _____    ______ ____
ROOT
ATOM      1  C   UNL     1       2.506   2.827  20.100  0.00  0.00    +0.000 A 
ATOM      2  N   UNL     1       2.755   1.646  19.490  0.00  0.00    +0.000 NA
ATOM      3  C   UNL     1       3.424   1.676  18.316  0.00  0.00    +0.000 A 
ATOM      4  C   UNL     1       3.822   2.899  17.779  0.00  0.00    +0.000 A 
ATOM      5  C   UNL     1       4.522   3.322  16.628  0.00  0.00    +0.000 A 
ATOM      6  C   UNL     1       4.642   4.706  16.670  0.00  0.00    +0.000 A 
ATOM      7  N   UNL     1       3.960   5.136  17.803  0.00  0.00    +0.000 N 
ATOM      8  C   UNL     1       3.502   4.035  18.502  0.00  0.00    +0.000 A 
ATOM      9  N   UNL     1       2.849   4.064  19.678  0.00  0.00    +0.000 NA
ENDROOT
BRANCH   1  11
ATOM     10  N   UNL     1       1.213   2.705  22.357  0.00  0.00    +0.000 NA
ATOM     11  C   UNL     1       1.790   2.762  21.349  0.00  0.00    +0.000 C 
ENDBRANCH   1  11
BRANCH   6  12
ATOM     12  C   UNL     1       5.330   5.618  15.690  0.00  0.00    +0.000 C 
BRANCH  12  13
ATOM     13  C   UNL     1       5.847   4.936  14.431  0.00  0.00    +0.000 A 
ATOM     14  C   UNL     1       7.178   5.115  14.018  0.00  0.00    +0.000 A 
ATOM     15  C   UNL     1       7.685   4.416  12.917  0.00  0.00    +0.000 A 
ATOM     16  C   UNL     1       6.864   3.537  12.215  0.00  0.00    +0.000 A 
ATOM     17 CL   UNL     1       7.503   2.639  10.893  0.00  0.00    +0.000 Cl
ATOM     18  C   UNL     1       5.533   3.370  12.590  0.00  0.00    +0.000 A 
ATOM     19  C   UNL     1       5.026   4.067  13.692  0.00  0.00    +0.000 A 
ENDBRANCH  12  13
ENDBRANCH   6  12
BRANCH   7  20
ATOM     20  C   UNL     1       3.828   6.500  18.303  0.00  0.00    +0.000 C 
BRANCH  20  21
ATOM     21  C   UNL     1       2.543   7.255  17.901  0.00  0.00    +0.000 C 
BRANCH  21  22
ATOM     22  C   UNL     1       2.167   8.479  18.777  0.00  0.00    +0.000 C 
ATOM     23  C   UNL     1       1.457   9.593  17.977  0.00  0.00    +0.000 C 
ATOM     24  C   UNL     1      -0.042   9.791  18.213  0.00  0.00    +0.000 C 
ATOM     25  C   UNL     1      -0.345  10.634  19.450  0.00  0.00    +0.000 C 
ATOM     26  C   UNL     1      -0.183   9.917  20.786  0.00  0.00    +0.000 C 
ATOM     27  C   UNL     1       1.147   9.202  21.003  0.00  0.00    +0.000 C 
ATOM     28  C   UNL     1       1.398   8.038  20.038  0.00  0.00    +0.000 C 
ENDBRANCH  21  22
ENDBRANCH  20  21
ENDBRANCH   7  20
TORSDOF 6
ENDMDL
MODEL 9
REMARK VINA RESULT:      -7.0      5.028      9.699
REMARK  Name = 
REMARK  6 active torsions:
REMARK  status: ('A' for Active; 'I' for Inactive)
REMARK    1  A    between atoms: C_2  and  C_3
REMARK    2  A    between atoms: C_8  and  C_9
REMARK    3  A    between atoms: C_9  and  C_10
REMARK    4  A    between atoms: N_17  and  C_18
REMARK    5  A    between atoms: C_18  and  C_19
REMARK    6  A    between atoms: C_19  and  C_20
REMARK                            x       y       z     vdW  Elec       q    Type
REMARK                         _______ _______ _______ _____ _____    ______ ____
ROOT
ATOM      1  C   UNL     1      -0.365  11.097  22.361  0.00  0.00    +0.000 A 
ATOM      2  N   UNL     1      -0.143  10.114  23.263  0.00  0.00    +0.000 NA
ATOM      3  C   UNL     1       0.505   9.007  22.837  0.00  0.00    +0.000 A 
ATOM      4  C   UNL     1       0.910   8.913  21.506  0.00  0.00    +0.000 A 
ATOM      5  C   UNL     1       1.596   7.962  20.719  0.00  0.00    +0.000 A 
ATOM      6  C   UNL     1       1.736   8.473  19.434  0.00  0.00    +0.000 A 
ATOM      7  N   UNL     1       1.080   9.699  19.414  0.00  0.00    +0.000 N 
ATOM      8  C   UNL     1       0.619   9.988  20.685  0.00  0.00    +0.000 A 
ATOM      9  N   UNL     1      -0.013  11.116  21.057  0.00  0.00    +0.000 NA
ENDROOT
BRANCH   1  11
ATOM     10  N   UNL     1      -1.618  13.207  23.231  0.00  0.00    +0.000 NA
ATOM     11  C   UNL     1      -1.059  12.263  22.844  0.00  0.00    +0.000 C 
ENDBRANCH   1  11
BRANCH   6  12
ATOM     12  C   UNL     1       2.419   7.850  18.247  0.00  0.00    +0.000 C 
BRANCH  12  13
ATOM     13  C   UNL     1       2.634   6.346  18.344  0.00  0.00    +0.000 A 
ATOM     14  C   UNL     1       1.629   5.454  17.934  0.00  0.00    +0.000 A 
ATOM     15  C   UNL     1       1.857   4.074  17.930  0.00  0.00    +0.000 A 
ATOM     16  C   UNL     1       3.088   3.573  18.344  0.00  0.00    +0.000 A 
ATOM     17 CL   UNL     1       3.385   1.878  18.291  0.00  0.00    +0.000 Cl
ATOM     18  C   UNL     1       4.086   4.439  18.785  0.00  0.00    +0.000 A 
ATOM     19  C   UNL     1       3.860   5.820  18.786  0.00  0.00    +0.000 A 
ENDBRANCH  12  13
ENDBRANCH   6  12
BRANCH   7  20
ATOM     20  C   UNL     1       0.976  10.639  18.303  0.00  0.00    +0.000 C 
BRANCH  20  21
ATOM     21  C   UNL     1       2.157  11.615  18.119  0.00  0.00    +0.000 C 
BRANCH  21  22
ATOM     22  C   UNL     1       2.046  12.969  18.869  0.00  0.00    +0.000 C 
ATOM     23  C   UNL     1       3.288  13.866  18.670  0.00  0.00    +0.000 C 
ATOM     24  C   UNL     1       3.137  15.098  17.774  0.00  0.00    +0.000 C 
ATOM     25  C   UNL     1       2.523  16.292  18.500  0.00  0.00    +0.000 C 
ATOM     26  C   UNL     1       1.017  16.217  18.726  0.00  0.00    +0.000 C 
ATOM     27  C   UNL     1       0.503  14.938  19.380  0.00  0.00    +0.000 C 
ATOM     28  C   UNL     1       0.716  13.674  18.540  0.00  0.00    +0.000 C 
ENDBRANCH  21  22
ENDBRANCH  20  21
ENDBRANCH   7  20
TORSDOF 6
ENDMDL
