MODEL 1
REMARK VINA RESULT:      -8.9      0.000      0.000
REMARK  Name = 
REMARK  4 active torsions:
REMARK  status: ('A' for Active; 'I' for Inactive)
REMARK    1  A    between atoms: C_3  and  O_4
REMARK    2  A    between atoms: O_4  and  C_5
REMARK    3  A    between atoms: C_5  and  C_6
REMARK    4  A    between atoms: C_14  and  C_15
REMARK                            x       y       z     vdW  Elec       q    Type
REMARK                         _______ _______ _______ _____ _____    ______ ____
ROOT
ATOM      1  C   UNL     1       1.043   3.649  20.529  0.00  0.00    +0.000 A 
ATOM      2  C   UNL     1       1.332   4.999  20.431  0.00  0.00    +0.000 A 
ATOM      3  C   UNL     1       2.304   5.456  19.519  0.00  0.00    +0.000 A 
ATOM      4  C   UNL     1       2.985   4.599  18.624  0.00  0.00    +0.000 A 
ATOM      5  N   UNL     1       3.908   5.038  17.680  0.00  0.00    +0.000 NA
ATOM      6  C   UNL     1       4.570   4.144  16.928  0.00  0.00    +0.000 A 
ATOM      7  C   UNL     1       4.319   2.780  17.077  0.00  0.00    +0.000 A 
ATOM      8  C   UNL     1       3.378   2.319  17.991  0.00  0.00    +0.000 A 
ATOM      9  C   UNL     1       2.686   3.227  18.780  0.00  0.00    +0.000 A 
ATOM     10  C   UNL     1       1.734   2.762  19.715  0.00  0.00    +0.000 A 
ENDROOT
BRANCH   6  11
ATOM     11  C   UNL     1       5.645   4.542  15.984  0.00  0.00    +0.000 A 
ATOM     12  N   UNL     1       6.613   5.341  16.433  0.00  0.00    +0.000 NA
ATOM     13  N   UNL     1       7.487   5.646  15.451  0.00  0.00    +0.000 NA
ATOM     14  C   UNL     1       7.082   5.026  14.368  0.00  0.00    +0.000 A 
ATOM     15  C   UNL     1       7.650   5.017  13.069  0.00  0.00    +0.000 A 
ATOM     16  C   UNL     1       7.080   4.279  12.099  0.00  0.00    +0.000 A 
ATOM     17  C   UNL     1       5.892   3.491  12.368  0.00  0.00    +0.000 A 
ATOM     18  C   UNL     1       5.340   3.505  13.608  0.00  0.00    +0.000 A 
ATOM     19  N   UNL     1       5.922   4.281  14.625  0.00  0.00    +0.000 N 
ENDBRANCH   6  11
BRANCH   3  20
ATOM     20  O   UNL     1       2.528   6.812  19.626  0.00  0.00    +0.000 OA
BRANCH  20  21
ATOM     21  C   UNL     1       1.825   7.417  20.708  0.00  0.00    +0.000 C 
BRANCH  21  22
ATOM     22  C   UNL     1       1.184   8.677  20.226  0.00  0.00    +0.000 A 
ATOM     23  C   UNL     1       0.290   9.375  21.034  0.00  0.00    +0.000 A 
ATOM     24  C   UNL     1      -0.255  10.542  20.539  0.00  0.00    +0.000 A 
ATOM     25  N   UNL     1       0.033  11.048  19.319  0.00  0.00    +0.000 NA
ATOM     26  C   UNL     1       0.904  10.348  18.558  0.00  0.00    +0.000 A 
ATOM     27  C   UNL     1       1.503   9.173  18.961  0.00  0.00    +0.000 A 
ENDBRANCH  21  22
ENDBRANCH  20  21
ENDBRANCH   3  20
TORSDOF 4
ENDMDL
MODEL 2
REMARK VINA RESULT:      -8.9      0.665      1.072
REMARK  Name = 
REMARK  4 active torsions:
REMARK  status: ('A' for Active; 'I' for Inactive)
REMARK    1  A    between atoms: C_3  and  O_4
REMARK    2  A    between atoms: O_4  and  C_5
REMARK    3  A    between atoms: C_5  and  C_6
REMARK    4  A    between atoms: C_14  and  C_15
REMARK                            x       y       z     vdW  Elec       q    Type
REMARK                         _______ _______ _______ _____ _____    ______ ____
ROOT
ATOM      1  C   UNL     1       1.045   3.501  20.549  0.00  0.00    +0.000 A 
ATOM      2  C   UNL     1       1.434   4.828  20.592  0.00  0.00    +0.000 A 
ATOM      3  C   UNL     1       2.424   5.310  19.714  0.00  0.00    +0.000 A 
ATOM      4  C   UNL     1       3.028   4.510  18.717  0.00  0.00    +0.000 A 
ATOM      5  N   UNL     1       3.968   4.981  17.807  0.00  0.00    +0.000 NA
ATOM      6  C   UNL     1       4.552   4.129  16.949  0.00  0.00    +0.000 A 
ATOM      7  C   UNL     1       4.202   2.780  16.954  0.00  0.00    +0.000 A 
ATOM      8  C   UNL     1       3.241   2.290  17.833  0.00  0.00    +0.000 A 
ATOM      9  C   UNL     1       2.630   3.154  18.730  0.00  0.00    +0.000 A 
ATOM     10  C   UNL     1       1.658   2.660  19.629  0.00  0.00    +0.000 A 
ENDROOT
BRANCH   6  11
ATOM     11  C   UNL     1       5.641   4.550  16.031  0.00  0.00    +0.000 A 
ATOM     12  N   UNL     1       6.589   5.358  16.507  0.00  0.00    +0.000 NA
ATOM     13  N   UNL     1       7.479   5.682  15.545  0.00  0.00    +0.000 NA
ATOM     14  C   UNL     1       7.106   5.066  14.449  0.00  0.00    +0.000 A 
ATOM     15  C   UNL     1       7.701   5.075  13.163  0.00  0.00    +0.000 A 
ATOM     16  C   UNL     1       7.162   4.337  12.175  0.00  0.00    +0.000 A 
ATOM     17  C   UNL     1       5.979   3.531  12.413  0.00  0.00    +0.000 A 
ATOM     18  C   UNL     1       5.400   3.528  13.640  0.00  0.00    +0.000 A 
ATOM     19  N   UNL     1       5.951   4.303  14.676  0.00  0.00    +0.000 N 
ENDBRANCH   6  11
BRANCH   3  20
ATOM     20  O   UNL     1       2.751   6.627  19.963  0.00  0.00    +0.000 OA
BRANCH  20  21
ATOM     21  C   UNL     1       2.098   7.546  19.092  0.00  0.00    +0.000 C 
BRANCH  21  22
ATOM     22  C   UNL     1       1.425   8.597  19.911  0.00  0.00    +0.000 A 
ATOM     23  C   UNL     1       0.859   9.717  19.306  0.00  0.00    +0.000 A 
ATOM     24  C   UNL     1       0.235  10.644  20.116  0.00  0.00    +0.000 A 
ATOM     25  N   UNL     1       0.137  10.524  21.459  0.00  0.00    +0.000 NA
ATOM     26  C   UNL     1       0.695   9.427  22.017  0.00  0.00    +0.000 A 
ATOM     27  C   UNL     1       1.340   8.443  21.296  0.00  0.00    +0.000 A 
ENDBRANCH  21  22
ENDBRANCH  20  21
ENDBRANCH   3  20
TORSDOF 4
ENDMDL
MODEL 3
REMARK VINA RESULT:      -8.5      0.865      1.394
REMARK  Name = 
REMARK  4 active torsions:
REMARK  status: ('A' for Active; 'I' for Inactive)
REMARK    1  A    between atoms: C_3  and  O_4
REMARK    2  A    between atoms: O_4  and  C_5
REMARK    3  A    between atoms: C_5  and  C_6
REMARK    4  A    between atoms: C_14  and  C_15
REMARK                            x       y       z     vdW  Elec       q    Type
REMARK                         _______ _______ _______ _____ _____    ______ ____
ROOT
ATOM      1  C   UNL     1       1.499   4.729  20.441  0.00  0.00    +0.000 A 
ATOM      2  C   UNL     1       1.792   6.032  20.079  0.00  0.00    +0.000 A 
ATOM      3  C   UNL     1       2.715   6.294  19.047  0.00  0.00    +0.000 A 
ATOM      4  C   UNL     1       3.340   5.274  18.293  0.00  0.00    +0.000 A 
ATOM      5  N   UNL     1       4.213   5.514  17.236  0.00  0.00    +0.000 NA
ATOM      6  C   UNL     1       4.827   4.484  16.631  0.00  0.00    +0.000 A 
ATOM      7  C   UNL     1       4.575   3.177  17.045  0.00  0.00    +0.000 A 
ATOM      8  C   UNL     1       3.682   2.910  18.077  0.00  0.00    +0.000 A 
ATOM      9  C   UNL     1       3.041   3.960  18.718  0.00  0.00    +0.000 A 
ATOM     10  C   UNL     1       2.138   3.694  19.773  0.00  0.00    +0.000 A 
ENDROOT
BRANCH   6  11
ATOM     11  C   UNL     1       5.851   4.682  15.574  0.00  0.00    +0.000 A 
ATOM     12  N   UNL     1       6.920   5.424  15.864  0.00  0.00    +0.000 NA
ATOM     13  N   UNL     1       7.733   5.544  14.793  0.00  0.00    +0.000 NA
ATOM     14  C   UNL     1       7.187   4.863  13.814  0.00  0.00    +0.000 A 
ATOM     15  C   UNL     1       7.642   4.671  12.487  0.00  0.00    +0.000 A 
ATOM     16  C   UNL     1       6.931   3.899  11.644  0.00  0.00    +0.000 A 
ATOM     17  C   UNL     1       5.704   3.260  12.082  0.00  0.00    +0.000 A 
ATOM     18  C   UNL     1       5.259   3.450  13.350  0.00  0.00    +0.000 A 
ATOM     19  N   UNL     1       5.990   4.263  14.234  0.00  0.00    +0.000 N 
ENDBRANCH   6  11
BRANCH   3  20
ATOM     20  O   UNL     1       2.955   7.643  18.888  0.00  0.00    +0.000 OA
BRANCH  20  21
ATOM     21  C   UNL     1       2.040   8.278  17.999  0.00  0.00    +0.000 C 
BRANCH  21  22
ATOM     22  C   UNL     1       1.602   9.574  18.599  0.00  0.00    +0.000 A 
ATOM     23  C   UNL     1       2.017  10.787  18.052  0.00  0.00    +0.000 A 
ATOM     24  C   UNL     1       1.563  11.950  18.640  0.00  0.00    +0.000 A 
ATOM     25  N   UNL     1       0.738  11.979  19.711  0.00  0.00    +0.000 NA
ATOM     26  C   UNL     1       0.353  10.787  20.218  0.00  0.00    +0.000 A 
ATOM     27  C   UNL     1       0.749   9.570  19.703  0.00  0.00    +0.000 A 
ENDBRANCH  21  22
ENDBRANCH  20  21
ENDBRANCH   3  20
TORSDOF 4
ENDMDL
MODEL 4
REMARK VINA RESULT:      -8.5      2.333      7.187
REMARK  Name = 
REMARK  4 active torsions:
REMARK  status: ('A' for Active; 'I' for Inactive)
REMARK    1  A    between atoms: C_3  and  O_4
REMARK    2  A    between atoms: O_4  and  C_5
REMARK    3  A    between atoms: C_5  and  C_6
REMARK    4  A    between atoms: C_14  and  C_15
REMARK                            x       y       z     vdW  Elec       q    Type
REMARK                         _______ _______ _______ _____ _____    ______ ____
ROOT
ATOM      1  C   UNL     1       3.360   1.885  19.327  0.00  0.00    +0.000 A 
ATOM      2  C   UNL     1       3.823   2.376  18.118  0.00  0.00    +0.000 A 
ATOM      3  C   UNL     1       3.631   3.729  17.778  0.00  0.00    +0.000 A 
ATOM      4  C   UNL     1       3.024   4.665  18.647  0.00  0.00    +0.000 A 
ATOM      5  N   UNL     1       2.873   6.016  18.351  0.00  0.00    +0.000 NA
ATOM      6  C   UNL     1       2.208   6.815  19.200  0.00  0.00    +0.000 A 
ATOM      7  C   UNL     1       1.688   6.299  20.386  0.00  0.00    +0.000 A 
ATOM      8  C   UNL     1       1.854   4.959  20.721  0.00  0.00    +0.000 A 
ATOM      9  C   UNL     1       2.535   4.116  19.854  0.00  0.00    +0.000 A 
ATOM     10  C   UNL     1       2.699   2.752  20.186  0.00  0.00    +0.000 A 
ENDROOT
BRANCH   6  11
ATOM     11  C   UNL     1       1.918   8.238  18.888  0.00  0.00    +0.000 A 
ATOM     12  N   UNL     1       2.438   8.756  17.775  0.00  0.00    +0.000 NA
ATOM     13  N   UNL     1       2.120  10.063  17.654  0.00  0.00    +0.000 NA
ATOM     14  C   UNL     1       1.381  10.379  18.690  0.00  0.00    +0.000 A 
ATOM     15  C   UNL     1       0.793  11.622  19.032  0.00  0.00    +0.000 A 
ATOM     16  C   UNL     1       0.038  11.718  20.141  0.00  0.00    +0.000 A 
ATOM     17  C   UNL     1      -0.183  10.562  20.990  0.00  0.00    +0.000 A 
ATOM     18  C   UNL     1       0.386   9.373  20.671  0.00  0.00    +0.000 A 
ATOM     19  N   UNL     1       1.186   9.265  19.520  0.00  0.00    +0.000 N 
ENDBRANCH   6  11
BRANCH   3  20
ATOM     20  O   UNL     1       4.070   4.017  16.502  0.00  0.00    +0.000 OA
BRANCH  20  21
ATOM     21  C   UNL     1       5.461   3.777  16.316  0.00  0.00    +0.000 C 
BRANCH  21  22
ATOM     22  C   UNL     1       6.233   4.908  16.913  0.00  0.00    +0.000 A 
ATOM     23  C   UNL     1       6.027   6.216  16.480  0.00  0.00    +0.000 A 
ATOM     24  C   UNL     1       6.758   7.219  17.083  0.00  0.00    +0.000 A 
ATOM     25  N   UNL     1       7.656   7.006  18.071  0.00  0.00    +0.000 NA
ATOM     26  C   UNL     1       7.833   5.727  18.469  0.00  0.00    +0.000 A 
ATOM     27  C   UNL     1       7.152   4.654  17.932  0.00  0.00    +0.000 A 
ENDBRANCH  21  22
ENDBRANCH  20  21
ENDBRANCH   3  20
TORSDOF 4
ENDMDL
MODEL 5
REMARK VINA RESULT:      -8.4      2.443      7.045
REMARK  Name = 
REMARK  4 active torsions:
REMARK  status: ('A' for Active; 'I' for Inactive)
REMARK    1  A    between atoms: C_3  and  O_4
REMARK    2  A    between atoms: O_4  and  C_5
REMARK    3  A    between atoms: C_5  and  C_6
REMARK    4  A    between atoms: C_14  and  C_15
REMARK                            x       y       z     vdW  Elec       q    Type
REMARK                         _______ _______ _______ _____ _____    ______ ____
ROOT
ATOM      1  C   UNL     1       3.334   1.754  18.190  0.00  0.00    +0.000 A 
ATOM      2  C   UNL     1       3.909   2.717  17.379  0.00  0.00    +0.000 A 
ATOM      3  C   UNL     1       3.684   4.085  17.627  0.00  0.00    +0.000 A 
ATOM      4  C   UNL     1       2.928   4.556  18.725  0.00  0.00    +0.000 A 
ATOM      5  N   UNL     1       2.739   5.903  19.016  0.00  0.00    +0.000 NA
ATOM      6  C   UNL     1       1.935   6.260  20.031  0.00  0.00    +0.000 A 
ATOM      7  C   UNL     1       1.307   5.284  20.804  0.00  0.00    +0.000 A 
ATOM      8  C   UNL     1       1.506   3.931  20.553  0.00  0.00    +0.000 A 
ATOM      9  C   UNL     1       2.330   3.542  19.506  0.00  0.00    +0.000 A 
ATOM     10  C   UNL     1       2.529   2.168  19.243  0.00  0.00    +0.000 A 
ENDROOT
BRANCH   6  11
ATOM     11  C   UNL     1       1.606   7.679  20.321  0.00  0.00    +0.000 A 
ATOM     12  N   UNL     1       1.201   7.993  21.551  0.00  0.00    +0.000 NA
ATOM     13  N   UNL     1       0.902   9.306  21.645  0.00  0.00    +0.000 NA
ATOM     14  C   UNL     1       1.130   9.839  20.468  0.00  0.00    +0.000 A 
ATOM     15  C   UNL     1       0.976  11.181  20.042  0.00  0.00    +0.000 A 
ATOM     16  C   UNL     1       1.301  11.521  18.782  0.00  0.00    +0.000 A 
ATOM     17  C   UNL     1       1.810  10.528  17.854  0.00  0.00    +0.000 A 
ATOM     18  C   UNL     1       1.949   9.239  18.255  0.00  0.00    +0.000 A 
ATOM     19  N   UNL     1       1.602   8.873  19.568  0.00  0.00    +0.000 N 
ENDBRANCH   6  11
BRANCH   3  20
ATOM     20  O   UNL     1       4.254   4.893  16.665  0.00  0.00    +0.000 OA
BRANCH  20  21
ATOM     21  C   UNL     1       5.614   4.570  16.389  0.00  0.00    +0.000 C 
BRANCH  21  22
ATOM     22  C   UNL     1       6.498   5.456  17.204  0.00  0.00    +0.000 A 
ATOM     23  C   UNL     1       7.107   4.982  18.364  0.00  0.00    +0.000 A 
ATOM     24  C   UNL     1       7.927   5.844  19.062  0.00  0.00    +0.000 A 
ATOM     25  N   UNL     1       8.177   7.117  18.684  0.00  0.00    +0.000 NA
ATOM     26  C   UNL     1       7.572   7.548  17.554  0.00  0.00    +0.000 A 
ATOM     27  C   UNL     1       6.736   6.766  16.784  0.00  0.00    +0.000 A 
ENDBRANCH  21  22
ENDBRANCH  20  21
ENDBRANCH   3  20
TORSDOF 4
ENDMDL
MODEL 6
REMARK VINA RESULT:      -8.4      1.292      1.661
REMARK  Name = 
REMARK  4 active torsions:
REMARK  status: ('A' for Active; 'I' for Inactive)
REMARK    1  A    between atoms: C_3  and  O_4
REMARK    2  A    between atoms: O_4  and  C_5
REMARK    3  A    between atoms: C_5  and  C_6
REMARK    4  A    between atoms: C_14  and  C_15
REMARK                            x       y       z     vdW  Elec       q    Type
REMARK                         _______ _______ _______ _____ _____    ______ ____
ROOT
ATOM      1  C   UNL     1       1.804   5.753  20.601  0.00  0.00    +0.000 A 
ATOM      2  C   UNL     1       1.928   6.949  19.917  0.00  0.00    +0.000 A 
ATOM      3  C   UNL     1       2.777   7.045  18.797  0.00  0.00    +0.000 A 
ATOM      4  C   UNL     1       3.492   5.944  18.274  0.00  0.00    +0.000 A 
ATOM      5  N   UNL     1       4.293   6.006  17.138  0.00  0.00    +0.000 NA
ATOM      6  C   UNL     1       5.004   4.930  16.762  0.00  0.00    +0.000 A 
ATOM      7  C   UNL     1       4.924   3.747  17.495  0.00  0.00    +0.000 A 
ATOM      8  C   UNL     1       4.106   3.650  18.615  0.00  0.00    +0.000 A 
ATOM      9  C   UNL     1       3.367   4.751  19.022  0.00  0.00    +0.000 A 
ATOM     10  C   UNL     1       2.539   4.659  20.164  0.00  0.00    +0.000 A 
ENDROOT
BRANCH   6  11
ATOM     11  C   UNL     1       5.960   4.969  15.627  0.00  0.00    +0.000 A 
ATOM     12  N   UNL     1       7.087   5.666  15.776  0.00  0.00    +0.000 NA
ATOM     13  N   UNL     1       7.828   5.639  14.647  0.00  0.00    +0.000 NA
ATOM     14  C   UNL     1       7.176   4.907  13.775  0.00  0.00    +0.000 A 
ATOM     15  C   UNL     1       7.525   4.569  12.444  0.00  0.00    +0.000 A 
ATOM     16  C   UNL     1       6.714   3.771  11.726  0.00  0.00    +0.000 A 
ATOM     17  C   UNL     1       5.487   3.251  12.301  0.00  0.00    +0.000 A 
ATOM     18  C   UNL     1       5.145   3.580  13.571  0.00  0.00    +0.000 A 
ATOM     19  N   UNL     1       5.981   4.423  14.326  0.00  0.00    +0.000 N 
ENDBRANCH   6  11
BRANCH   3  20
ATOM     20  O   UNL     1       2.849   8.331  18.301  0.00  0.00    +0.000 OA
BRANCH  20  21
ATOM     21  C   UNL     1       1.697   8.713  17.555  0.00  0.00    +0.000 C 
BRANCH  21  22
ATOM     22  C   UNL     1       1.126   9.959  18.149  0.00  0.00    +0.000 A 
ATOM     23  C   UNL     1      -0.247  10.091  18.343  0.00  0.00    +0.000 A 
ATOM     24  C   UNL     1      -0.711  11.259  18.913  0.00  0.00    +0.000 A 
ATOM     25  N   UNL     1       0.090  12.278  19.298  0.00  0.00    +0.000 NA
ATOM     26  C   UNL     1       1.417  12.120  19.097  0.00  0.00    +0.000 A 
ATOM     27  C   UNL     1       1.981  10.993  18.537  0.00  0.00    +0.000 A 
ENDBRANCH  21  22
ENDBRANCH  20  21
ENDBRANCH   3  20
TORSDOF 4
ENDMDL
MODEL 7
REMARK VINA RESULT:      -8.4      2.318      7.201
REMARK  Name = 
REMARK  4 active torsions:
REMARK  status: ('A' for Active; 'I' for Inactive)
REMARK    1  A    between atoms: C_3  and  O_4
REMARK    2  A    between atoms: O_4  and  C_5
REMARK    3  A    between atoms: C_5  and  C_6
REMARK    4  A    between atoms: C_14  and  C_15
REMARK                            x       y       z     vdW  Elec       q    Type
REMARK                         _______ _______ _______ _____ _____    ______ ____
ROOT
ATOM      1  C   UNL     1       3.701   1.799  18.574  0.00  0.00    +0.000 A 
ATOM      2  C   UNL     1       4.295   2.460  17.514  0.00  0.00    +0.000 A 
ATOM      3  C   UNL     1       4.084   3.840  17.325  0.00  0.00    +0.000 A 
ATOM      4  C   UNL     1       3.322   4.633  18.214  0.00  0.00    +0.000 A 
ATOM      5  N   UNL     1       3.146   6.006  18.074  0.00  0.00    +0.000 NA
ATOM      6  C   UNL     1       2.336   6.665  18.919  0.00  0.00    +0.000 A 
ATOM      7  C   UNL     1       1.689   5.980  19.946  0.00  0.00    +0.000 A 
ATOM      8  C   UNL     1       1.875   4.613  20.127  0.00  0.00    +0.000 A 
ATOM      9  C   UNL     1       2.705   3.914  19.262  0.00  0.00    +0.000 A 
ATOM     10  C   UNL     1       2.890   2.524  19.437  0.00  0.00    +0.000 A 
ENDROOT
BRANCH   6  11
ATOM     11  C   UNL     1       2.021   8.106  18.753  0.00  0.00    +0.000 A 
ATOM     12  N   UNL     1       2.324   8.687  17.592  0.00  0.00    +0.000 NA
ATOM     13  N   UNL     1       2.017  10.002  17.612  0.00  0.00    +0.000 NA
ATOM     14  C   UNL     1       1.502  10.261  18.790  0.00  0.00    +0.000 A 
ATOM     15  C   UNL     1       1.019  11.486  19.313  0.00  0.00    +0.000 A 
ATOM     16  C   UNL     1       0.497  11.521  20.553  0.00  0.00    +0.000 A 
ATOM     17  C   UNL     1       0.422  10.317  21.360  0.00  0.00    +0.000 A 
ATOM     18  C   UNL     1       0.893   9.144  20.867  0.00  0.00    +0.000 A 
ATOM     19  N   UNL     1       1.449   9.100  19.576  0.00  0.00    +0.000 N 
ENDBRANCH   6  11
BRANCH   3  20
ATOM     20  O   UNL     1       4.674   4.308  16.169  0.00  0.00    +0.000 OA
BRANCH  20  21
ATOM     21  C   UNL     1       6.081   4.092  16.125  0.00  0.00    +0.000 C 
BRANCH  21  22
ATOM     22  C   UNL     1       6.755   5.101  16.996  0.00  0.00    +0.000 A 
ATOM     23  C   UNL     1       7.432   4.708  18.148  0.00  0.00    +0.000 A 
ATOM     24  C   UNL     1       8.050   5.686  18.900  0.00  0.00    +0.000 A 
ATOM     25  N   UNL     1       8.039   7.000  18.581  0.00  0.00    +0.000 NA
ATOM     26  C   UNL     1       7.373   7.350  17.458  0.00  0.00    +0.000 A 
ATOM     27  C   UNL     1       6.725   6.450  16.638  0.00  0.00    +0.000 A 
ENDBRANCH  21  22
ENDBRANCH  20  21
ENDBRANCH   3  20
TORSDOF 4
ENDMDL
MODEL 8
REMARK VINA RESULT:      -8.0      2.689      7.543
REMARK  Name = 
REMARK  4 active torsions:
REMARK  status: ('A' for Active; 'I' for Inactive)
REMARK    1  A    between atoms: C_3  and  O_4
REMARK    2  A    between atoms: O_4  and  C_5
REMARK    3  A    between atoms: C_5  and  C_6
REMARK    4  A    between atoms: C_14  and  C_15
REMARK                            x       y       z     vdW  Elec       q    Type
REMARK                         _______ _______ _______ _____ _____    ______ ____
ROOT
ATOM      1  C   UNL     1       6.321   4.621  16.384  0.00  0.00    +0.000 A 
ATOM      2  C   UNL     1       6.126   4.019  17.615  0.00  0.00    +0.000 A 
ATOM      3  C   UNL     1       5.209   4.561  18.536  0.00  0.00    +0.000 A 
ATOM      4  C   UNL     1       4.404   5.687  18.252  0.00  0.00    +0.000 A 
ATOM      5  N   UNL     1       3.455   6.205  19.128  0.00  0.00    +0.000 NA
ATOM      6  C   UNL     1       2.795   7.330  18.809  0.00  0.00    +0.000 A 
ATOM      7  C   UNL     1       3.043   7.966  17.593  0.00  0.00    +0.000 A 
ATOM      8  C   UNL     1       3.963   7.451  16.687  0.00  0.00    +0.000 A 
ATOM      9  C   UNL     1       4.658   6.292  17.000  0.00  0.00    +0.000 A 
ATOM     10  C   UNL     1       5.599   5.769  16.085  0.00  0.00    +0.000 A 
ENDROOT
BRANCH   6  11
ATOM     11  C   UNL     1       1.854   7.991  19.748  0.00  0.00    +0.000 A 
ATOM     12  N   UNL     1       1.564   7.368  20.891  0.00  0.00    +0.000 NA
ATOM     13  N   UNL     1       0.667   8.072  21.614  0.00  0.00    +0.000 NA
ATOM     14  C   UNL     1       0.391   9.160  20.935  0.00  0.00    +0.000 A 
ATOM     15  C   UNL     1      -0.486  10.225  21.256  0.00  0.00    +0.000 A 
ATOM     16  C   UNL     1      -0.597  11.272  20.419  0.00  0.00    +0.000 A 
ATOM     17  C   UNL     1       0.174  11.324  19.190  0.00  0.00    +0.000 A 
ATOM     18  C   UNL     1       1.008  10.301  18.874  0.00  0.00    +0.000 A 
ATOM     19  N   UNL     1       1.122   9.198  19.738  0.00  0.00    +0.000 N 
ENDBRANCH   6  11
BRANCH   3  20
ATOM     20  O   UNL     1       5.217   3.889  19.741  0.00  0.00    +0.000 OA
BRANCH  20  21
ATOM     21  C   UNL     1       4.657   2.581  19.662  0.00  0.00    +0.000 C 
BRANCH  21  22
ATOM     22  C   UNL     1       3.169   2.687  19.708  0.00  0.00    +0.000 A 
ATOM     23  C   UNL     1       2.391   2.262  18.633  0.00  0.00    +0.000 A 
ATOM     24  C   UNL     1       1.020   2.369  18.744  0.00  0.00    +0.000 A 
ATOM     25  N   UNL     1       0.389   2.857  19.836  0.00  0.00    +0.000 NA
ATOM     26  C   UNL     1       1.170   3.261  20.862  0.00  0.00    +0.000 A 
ATOM     27  C   UNL     1       2.548   3.195  20.851  0.00  0.00    +0.000 A 
ENDBRANCH  21  22
ENDBRANCH  20  21
ENDBRANCH   3  20
TORSDOF 4
ENDMDL
MODEL 9
REMARK VINA RESULT:      -7.9      4.022      7.687
REMARK  Name = 
REMARK  4 active torsions:
REMARK  status: ('A' for Active; 'I' for Inactive)
REMARK    1  A    between atoms: C_3  and  O_4
REMARK    2  A    between atoms: O_4  and  C_5
REMARK    3  A    between atoms: C_5  and  C_6
REMARK    4  A    between atoms: C_14  and  C_15
REMARK                            x       y       z     vdW  Elec       q    Type
REMARK                         _______ _______ _______ _____ _____    ______ ____
ROOT
ATOM      1  C   UNL     1       6.955   4.495  16.467  0.00  0.00    +0.000 A 
ATOM      2  C   UNL     1       7.434   5.782  16.641  0.00  0.00    +0.000 A 
ATOM      3  C   UNL     1       6.573   6.810  17.074  0.00  0.00    +0.000 A 
ATOM      4  C   UNL     1       5.217   6.592  17.408  0.00  0.00    +0.000 A 
ATOM      5  N   UNL     1       4.365   7.582  17.887  0.00  0.00    +0.000 NA
ATOM      6  C   UNL     1       3.069   7.304  18.098  0.00  0.00    +0.000 A 
ATOM      7  C   UNL     1       2.580   6.021  17.859  0.00  0.00    +0.000 A 
ATOM      8  C   UNL     1       3.418   5.005  17.410  0.00  0.00    +0.000 A 
ATOM      9  C   UNL     1       4.760   5.274  17.182  0.00  0.00    +0.000 A 
ATOM     10  C   UNL     1       5.613   4.246  16.719  0.00  0.00    +0.000 A 
ENDROOT
BRANCH   6  11
ATOM     11  C   UNL     1       2.090   8.345  18.502  0.00  0.00    +0.000 A 
ATOM     12  N   UNL     1       1.693   9.226  17.584  0.00  0.00    +0.000 NA
ATOM     13  N   UNL     1       0.839  10.128  18.113  0.00  0.00    +0.000 NA
ATOM     14  C   UNL     1       0.679   9.814  19.376  0.00  0.00    +0.000 A 
ATOM     15  C   UNL     1      -0.115  10.443  20.367  0.00  0.00    +0.000 A 
ATOM     16  C   UNL     1      -0.158   9.930  21.610  0.00  0.00    +0.000 A 
ATOM     17  C   UNL     1       0.599   8.738  21.947  0.00  0.00    +0.000 A 
ATOM     18  C   UNL     1       1.368   8.138  21.003  0.00  0.00    +0.000 A 
ATOM     19  N   UNL     1       1.427   8.674  19.704  0.00  0.00    +0.000 N 
ENDBRANCH   6  11
BRANCH   3  20
ATOM     20  O   UNL     1       7.196   8.040  17.100  0.00  0.00    +0.000 OA
BRANCH  20  21
ATOM     21  C   UNL     1       8.199   8.145  18.106  0.00  0.00    +0.000 C 
BRANCH  21  22
ATOM     22  C   UNL     1       8.531   9.586  18.312  0.00  0.00    +0.000 A 
ATOM     23  C   UNL     1       8.032  10.562  17.453  0.00  0.00    +0.000 A 
ATOM     24  C   UNL     1       8.359  11.878  17.707  0.00  0.00    +0.000 A 
ATOM     25  N   UNL     1       9.132  12.273  18.743  0.00  0.00    +0.000 NA
ATOM     26  C   UNL     1       9.602  11.304  19.560  0.00  0.00    +0.000 A 
ATOM     27  C   UNL     1       9.331   9.962  19.393  0.00  0.00    +0.000 A 
ENDBRANCH  21  22
ENDBRANCH  20  21
ENDBRANCH   3  20
TORSDOF 4
ENDMDL
