MODEL 1
REMARK VINA RESULT:      -7.1      0.000      0.000
REMARK  Name = 
REMARK  16 active torsions:
REMARK  status: ('A' for Active; 'I' for Inactive)
REMARK    1  A    between atoms: C_1  and  C_2
REMARK    2  A    between atoms: C_3  and  O_4
REMARK    3  A    between atoms: O_4  and  C_5
REMARK    4  A    between atoms: C_5  and  C_6
REMARK    5  A    between atoms: C_6  and  C_7
REMARK    6  A    between atoms: C_7  and  C_8
REMARK    7  A    between atoms: C_8  and  O_9
REMARK    8  A    between atoms: O_9  and  C_10
REMARK    9  A    between atoms: C_15  and  C_16
REMARK   10  A    between atoms: C_16  and  O_18
REMARK   11  A    between atoms: C_21  and  C_22
REMARK   12  A    between atoms: C_22  and  C_24
REMARK   13  A    between atoms: C_24  and  C_25
REMARK   14  A    between atoms: C_25  and  C_26
REMARK   15  A    between atoms: C_25  and  C_27
REMARK   16  A    between atoms: C_28  and  O_29
REMARK                            x       y       z     vdW  Elec       q    Type
REMARK                         _______ _______ _______ _____ _____    ______ ____
ROOT
ATOM      1  O   UNL     1       2.752   5.932  19.943  0.00  0.00    +0.000 OA
ENDROOT
BRANCH   1   4
ATOM      2  C   UNL     1       3.119   7.843  17.338  0.00  0.00    +0.000 C 
ATOM      3  C   UNL     1       2.338   8.043  18.614  0.00  0.00    +0.000 A 
ATOM      4  C   UNL     1       2.222   7.170  19.713  0.00  0.00    +0.000 A 
ATOM      5  C   UNL     1       1.424   7.562  20.807  0.00  0.00    +0.000 A 
ATOM      6  C   UNL     1       0.759   8.790  20.856  0.00  0.00    +0.000 A 
ATOM      7  C   UNL     1       0.867   9.666  19.782  0.00  0.00    +0.000 A 
ATOM      8  C   UNL     1       1.632   9.272  18.674  0.00  0.00    +0.000 A 
BRANCH   7   9
ATOM      9  C   UNL     1       0.210  11.020  19.804  0.00  0.00    +0.000 C 
ATOM     10  O   UNL     1      -0.401  11.384  18.806  0.00  0.00    +0.000 OA
BRANCH   9  11
ATOM     11  C   UNL     1       0.423  11.889  21.026  0.00  0.00    +0.000 C 
BRANCH  11  12
ATOM     12  C   UNL     1      -0.839  12.178  21.852  0.00  0.00    +0.000 C 
ATOM     13  C   UNL     1      -1.083  11.104  22.915  0.00  0.00    +0.000 C 
ATOM     14  C   UNL     1      -0.674  13.540  22.534  0.00  0.00    +0.000 C 
ENDBRANCH  11  12
ENDBRANCH   9  11
ENDBRANCH   7   9
BRANCH   8  15
ATOM     15  O   UNL     1       1.741  10.093  17.567  0.00  0.00    +0.000 OA
ATOM     16  H   UNL     1       0.840  10.269  17.226  0.00  0.00    +0.000 HD
ENDBRANCH   8  15
ENDBRANCH   1   4
BRANCH   1  17
ATOM     17  C   UNL     1       1.929   4.878  20.401  0.00  0.00    +0.000 C 
BRANCH  17  18
ATOM     18  C   UNL     1       1.390   4.058  19.223  0.00  0.00    +0.000 C 
BRANCH  18  19
ATOM     19  C   UNL     1       2.102   4.357  17.887  0.00  0.00    +0.000 C 
BRANCH  19  20
ATOM     20  C   UNL     1       2.973   3.165  17.499  0.00  0.00    +0.000 C 
BRANCH  20  21
ATOM     21  O   UNL     1       4.318   3.245  17.918  0.00  0.00    +0.000 OA
BRANCH  21  22
ATOM     22  C   UNL     1       5.151   4.007  17.124  0.00  0.00    +0.000 A 
ATOM     23  C   UNL     1       4.933   3.698  15.768  0.00  0.00    +0.000 A 
ATOM     24  C   UNL     1       5.642   4.327  14.746  0.00  0.00    +0.000 A 
ATOM     25  C   UNL     1       6.605   5.276  15.059  0.00  0.00    +0.000 A 
ATOM     26  C   UNL     1       6.846   5.598  16.391  0.00  0.00    +0.000 A 
ATOM     27  C   UNL     1       6.115   4.997  17.441  0.00  0.00    +0.000 A 
BRANCH  27  28
ATOM     28  C   UNL     1       6.520   5.482  18.800  0.00  0.00    +0.000 C 
ATOM     29  O   UNL     1       7.619   5.907  19.103  0.00  0.00    +0.000 OA
BRANCH  28  30
ATOM     30  O   UNL     1       5.505   5.460  19.698  0.00  0.00    +0.000 OA
ATOM     31  H   UNL     1       5.471   4.685  20.290  0.00  0.00    +0.000 HD
ENDBRANCH  28  30
ENDBRANCH  27  28
ENDBRANCH  21  22
ENDBRANCH  20  21
ENDBRANCH  19  20
ENDBRANCH  18  19
ENDBRANCH  17  18
ENDBRANCH   1  17
TORSDOF 13
ENDMDL
MODEL 2
REMARK VINA RESULT:      -7.1      0.927      1.176
REMARK  Name = 
REMARK  16 active torsions:
REMARK  status: ('A' for Active; 'I' for Inactive)
REMARK    1  A    between atoms: C_1  and  C_2
REMARK    2  A    between atoms: C_3  and  O_4
REMARK    3  A    between atoms: O_4  and  C_5
REMARK    4  A    between atoms: C_5  and  C_6
REMARK    5  A    between atoms: C_6  and  C_7
REMARK    6  A    between atoms: C_7  and  C_8
REMARK    7  A    between atoms: C_8  and  O_9
REMARK    8  A    between atoms: O_9  and  C_10
REMARK    9  A    between atoms: C_15  and  C_16
REMARK   10  A    between atoms: C_16  and  O_18
REMARK   11  A    between atoms: C_21  and  C_22
REMARK   12  A    between atoms: C_22  and  C_24
REMARK   13  A    between atoms: C_24  and  C_25
REMARK   14  A    between atoms: C_25  and  C_26
REMARK   15  A    between atoms: C_25  and  C_27
REMARK   16  A    between atoms: C_28  and  O_29
REMARK                            x       y       z     vdW  Elec       q    Type
REMARK                         _______ _______ _______ _____ _____    ______ ____
ROOT
ATOM      1  O   UNL     1       2.337   6.111  20.544  0.00  0.00    +0.000 OA
ENDROOT
BRANCH   1   4
ATOM      2  C   UNL     1       2.967   7.482  17.663  0.00  0.00    +0.000 C 
ATOM      3  C   UNL     1       2.177   7.980  18.848  0.00  0.00    +0.000 A 
ATOM      4  C   UNL     1       1.943   7.334  20.077  0.00  0.00    +0.000 A 
ATOM      5  C   UNL     1       1.160   7.990  21.049  0.00  0.00    +0.000 A 
ATOM      6  C   UNL     1       0.623   9.265  20.852  0.00  0.00    +0.000 A 
ATOM      7  C   UNL     1       0.849   9.920  19.647  0.00  0.00    +0.000 A 
ATOM      8  C   UNL     1       1.599   9.263  18.660  0.00  0.00    +0.000 A 
BRANCH   7   9
ATOM      9  C   UNL     1       0.334  11.313  19.402  0.00  0.00    +0.000 C 
ATOM     10  O   UNL     1       1.079  12.119  18.859  0.00  0.00    +0.000 OA
BRANCH   9  11
ATOM     11  C   UNL     1      -1.045  11.658  19.925  0.00  0.00    +0.000 C 
BRANCH  11  12
ATOM     12  C   UNL     1      -1.073  12.662  21.087  0.00  0.00    +0.000 C 
ATOM     13  C   UNL     1      -1.453  14.068  20.618  0.00  0.00    +0.000 C 
ATOM     14  C   UNL     1      -2.092  12.178  22.124  0.00  0.00    +0.000 C 
ENDBRANCH  11  12
ENDBRANCH   9  11
ENDBRANCH   7   9
BRANCH   8  15
ATOM     15  O   UNL     1       1.821   9.858  17.433  0.00  0.00    +0.000 OA
ATOM     16  H   UNL     1       0.954  10.106  17.050  0.00  0.00    +0.000 HD
ENDBRANCH   8  15
ENDBRANCH   1   4
BRANCH   1  17
ATOM     17  C   UNL     1       1.414   5.042  20.610  0.00  0.00    +0.000 C 
BRANCH  17  18
ATOM     18  C   UNL     1       1.528   4.148  19.371  0.00  0.00    +0.000 C 
BRANCH  18  19
ATOM     19  C   UNL     1       2.554   3.007  19.527  0.00  0.00    +0.000 C 
BRANCH  19  20
ATOM     20  C   UNL     1       3.381   2.890  18.248  0.00  0.00    +0.000 C 
BRANCH  20  21
ATOM     21  O   UNL     1       3.574   4.100  17.549  0.00  0.00    +0.000 OA
BRANCH  21  22
ATOM     22  C   UNL     1       4.865   4.350  17.128  0.00  0.00    +0.000 A 
ATOM     23  C   UNL     1       4.988   4.048  15.759  0.00  0.00    +0.000 A 
ATOM     24  C   UNL     1       6.191   4.214  15.073  0.00  0.00    +0.000 A 
ATOM     25  C   UNL     1       7.311   4.672  15.750  0.00  0.00    +0.000 A 
ATOM     26  C   UNL     1       7.222   4.974  17.105  0.00  0.00    +0.000 A 
ATOM     27  C   UNL     1       6.004   4.846  17.811  0.00  0.00    +0.000 A 
BRANCH  27  28
ATOM     28  C   UNL     1       6.113   5.224  19.258  0.00  0.00    +0.000 C 
ATOM     29  O   UNL     1       7.144   5.263  19.905  0.00  0.00    +0.000 OA
BRANCH  28  30
ATOM     30  O   UNL     1       4.929   5.588  19.805  0.00  0.00    +0.000 OA
ATOM     31  H   UNL     1       4.933   5.756  20.766  0.00  0.00    +0.000 HD
ENDBRANCH  28  30
ENDBRANCH  27  28
ENDBRANCH  21  22
ENDBRANCH  20  21
ENDBRANCH  19  20
ENDBRANCH  18  19
ENDBRANCH  17  18
ENDBRANCH   1  17
TORSDOF 13
ENDMDL
MODEL 3
REMARK VINA RESULT:      -6.8      5.569      8.504
REMARK  Name = 
REMARK  16 active torsions:
REMARK  status: ('A' for Active; 'I' for Inactive)
REMARK    1  A    between atoms: C_1  and  C_2
REMARK    2  A    between atoms: C_3  and  O_4
REMARK    3  A    between atoms: O_4  and  C_5
REMARK    4  A    between atoms: C_5  and  C_6
REMARK    5  A    between atoms: C_6  and  C_7
REMARK    6  A    between atoms: C_7  and  C_8
REMARK    7  A    between atoms: C_8  and  O_9
REMARK    8  A    between atoms: O_9  and  C_10
REMARK    9  A    between atoms: C_15  and  C_16
REMARK   10  A    between atoms: C_16  and  O_18
REMARK   11  A    between atoms: C_21  and  C_22
REMARK   12  A    between atoms: C_22  and  C_24
REMARK   13  A    between atoms: C_24  and  C_25
REMARK   14  A    between atoms: C_25  and  C_26
REMARK   15  A    between atoms: C_25  and  C_27
REMARK   16  A    between atoms: C_28  and  O_29
REMARK                            x       y       z     vdW  Elec       q    Type
REMARK                         _______ _______ _______ _____ _____    ______ ____
ROOT
ATOM      1  O   UNL     1       6.497   7.633  16.867  0.00  0.00    +0.000 OA
ENDROOT
BRANCH   1   4
ATOM      2  C   UNL     1       6.714   4.399  16.619  0.00  0.00    +0.000 C 
ATOM      3  C   UNL     1       5.573   5.287  17.050  0.00  0.00    +0.000 A 
ATOM      4  C   UNL     1       5.542   6.692  17.132  0.00  0.00    +0.000 A 
ATOM      5  C   UNL     1       4.358   7.319  17.573  0.00  0.00    +0.000 A 
ATOM      6  C   UNL     1       3.206   6.605  17.910  0.00  0.00    +0.000 A 
ATOM      7  C   UNL     1       3.217   5.217  17.829  0.00  0.00    +0.000 A 
ATOM      8  C   UNL     1       4.400   4.581  17.423  0.00  0.00    +0.000 A 
BRANCH   7   9
ATOM      9  C   UNL     1       1.988   4.403  18.136  0.00  0.00    +0.000 C 
ATOM     10  O   UNL     1       1.349   3.943  17.197  0.00  0.00    +0.000 OA
BRANCH   9  11
ATOM     11  C   UNL     1       1.565   4.282  19.585  0.00  0.00    +0.000 C 
BRANCH  11  12
ATOM     12  C   UNL     1       1.210   2.861  20.047  0.00  0.00    +0.000 C 
ATOM     13  C   UNL     1       2.105   1.807  19.391  0.00  0.00    +0.000 C 
ATOM     14  C   UNL     1       1.371   2.789  21.568  0.00  0.00    +0.000 C 
ENDBRANCH  11  12
ENDBRANCH   9  11
ENDBRANCH   7   9
BRANCH   8  15
ATOM     15  O   UNL     1       4.471   3.203  17.361  0.00  0.00    +0.000 OA
ATOM     16  H   UNL     1       5.250   2.959  16.820  0.00  0.00    +0.000 HD
ENDBRANCH   8  15
ENDBRANCH   1   4
BRANCH   1  17
ATOM     17  C   UNL     1       7.648   7.730  17.682  0.00  0.00    +0.000 C 
BRANCH  17  18
ATOM     18  C   UNL     1       8.127   9.183  17.776  0.00  0.00    +0.000 C 
BRANCH  18  19
ATOM     19  C   UNL     1       8.949   9.480  19.048  0.00  0.00    +0.000 C 
BRANCH  19  20
ATOM     20  C   UNL     1       9.793  10.732  18.826  0.00  0.00    +0.000 C 
BRANCH  20  21
ATOM     21  O   UNL     1       9.113  11.953  19.016  0.00  0.00    +0.000 OA
BRANCH  21  22
ATOM     22  C   UNL     1       9.667  13.053  18.392  0.00  0.00    +0.000 A 
ATOM     23  C   UNL     1      10.675  12.639  17.500  0.00  0.00    +0.000 A 
ATOM     24  C   UNL     1      11.399  13.550  16.733  0.00  0.00    +0.000 A 
ATOM     25  C   UNL     1      11.143  14.908  16.853  0.00  0.00    +0.000 A 
ATOM     26  C   UNL     1      10.156  15.348  17.730  0.00  0.00    +0.000 A 
ATOM     27  C   UNL     1       9.387  14.439  18.492  0.00  0.00    +0.000 A 
BRANCH  27  28
ATOM     28  C   UNL     1       8.374  15.109  19.371  0.00  0.00    +0.000 C 
ATOM     29  O   UNL     1       7.878  16.203  19.175  0.00  0.00    +0.000 OA
BRANCH  28  30
ATOM     30  O   UNL     1       7.993  14.346  20.423  0.00  0.00    +0.000 OA
ATOM     31  H   UNL     1       8.247  14.673  21.306  0.00  0.00    +0.000 HD
ENDBRANCH  28  30
ENDBRANCH  27  28
ENDBRANCH  21  22
ENDBRANCH  20  21
ENDBRANCH  19  20
ENDBRANCH  18  19
ENDBRANCH  17  18
ENDBRANCH   1  17
TORSDOF 13
ENDMDL
MODEL 4
REMARK VINA RESULT:      -6.8      1.477      1.739
REMARK  Name = 
REMARK  16 active torsions:
REMARK  status: ('A' for Active; 'I' for Inactive)
REMARK    1  A    between atoms: C_1  and  C_2
REMARK    2  A    between atoms: C_3  and  O_4
REMARK    3  A    between atoms: O_4  and  C_5
REMARK    4  A    between atoms: C_5  and  C_6
REMARK    5  A    between atoms: C_6  and  C_7
REMARK    6  A    between atoms: C_7  and  C_8
REMARK    7  A    between atoms: C_8  and  O_9
REMARK    8  A    between atoms: O_9  and  C_10
REMARK    9  A    between atoms: C_15  and  C_16
REMARK   10  A    between atoms: C_16  and  O_18
REMARK   11  A    between atoms: C_21  and  C_22
REMARK   12  A    between atoms: C_22  and  C_24
REMARK   13  A    between atoms: C_24  and  C_25
REMARK   14  A    between atoms: C_25  and  C_26
REMARK   15  A    between atoms: C_25  and  C_27
REMARK   16  A    between atoms: C_28  and  O_29
REMARK                            x       y       z     vdW  Elec       q    Type
REMARK                         _______ _______ _______ _____ _____    ______ ____
ROOT
ATOM      1  O   UNL     1       2.756   5.815  20.026  0.00  0.00    +0.000 OA
ENDROOT
BRANCH   1   4
ATOM      2  C   UNL     1       3.285   7.363  17.216  0.00  0.00    +0.000 C 
ATOM      3  C   UNL     1       2.515   7.775  18.447  0.00  0.00    +0.000 A 
ATOM      4  C   UNL     1       2.326   7.053  19.641  0.00  0.00    +0.000 A 
ATOM      5  C   UNL     1       1.555   7.635  20.669  0.00  0.00    +0.000 A 
ATOM      6  C   UNL     1       0.988   8.908  20.560  0.00  0.00    +0.000 A 
ATOM      7  C   UNL     1       1.171   9.637  19.390  0.00  0.00    +0.000 A 
ATOM      8  C   UNL     1       1.908   9.054  18.348  0.00  0.00    +0.000 A 
BRANCH   7   9
ATOM      9  C   UNL     1       0.622  11.030  19.239  0.00  0.00    +0.000 C 
ATOM     10  O   UNL     1      -0.582  11.161  19.055  0.00  0.00    +0.000 OA
BRANCH   9  11
ATOM     11  C   UNL     1       1.606  12.181  19.234  0.00  0.00    +0.000 C 
BRANCH  11  12
ATOM     12  C   UNL     1       1.542  13.104  20.459  0.00  0.00    +0.000 C 
ATOM     13  C   UNL     1       2.931  13.585  20.885  0.00  0.00    +0.000 C 
ATOM     14  C   UNL     1       0.669  14.314  20.113  0.00  0.00    +0.000 C 
ENDBRANCH  11  12
ENDBRANCH   9  11
ENDBRANCH   7   9
BRANCH   8  15
ATOM     15  O   UNL     1       2.087   9.723  17.153  0.00  0.00    +0.000 OA
ATOM     16  H   UNL     1       2.859   9.333  16.694  0.00  0.00    +0.000 HD
ENDBRANCH   8  15
ENDBRANCH   1   4
BRANCH   1  17
ATOM     17  C   UNL     1       1.993   5.046  20.936  0.00  0.00    +0.000 C 
BRANCH  17  18
ATOM     18  C   UNL     1       1.985   3.570  20.525  0.00  0.00    +0.000 C 
BRANCH  18  19
ATOM     19  C   UNL     1       3.362   2.886  20.654  0.00  0.00    +0.000 C 
BRANCH  19  20
ATOM     20  C   UNL     1       4.133   3.049  19.346  0.00  0.00    +0.000 C 
BRANCH  20  21
ATOM     21  O   UNL     1       5.285   3.859  19.428  0.00  0.00    +0.000 OA
BRANCH  21  22
ATOM     22  C   UNL     1       5.688   4.452  18.248  0.00  0.00    +0.000 A 
ATOM     23  C   UNL     1       4.899   3.980  17.183  0.00  0.00    +0.000 A 
ATOM     24  C   UNL     1       5.091   4.419  15.873  0.00  0.00    +0.000 A 
ATOM     25  C   UNL     1       6.095   5.334  15.594  0.00  0.00    +0.000 A 
ATOM     26  C   UNL     1       6.895   5.815  16.627  0.00  0.00    +0.000 A 
ATOM     27  C   UNL     1       6.695   5.409  17.966  0.00  0.00    +0.000 A 
BRANCH  27  28
ATOM     28  C   UNL     1       7.655   6.042  18.928  0.00  0.00    +0.000 C 
ATOM     29  O   UNL     1       8.327   7.033  18.710  0.00  0.00    +0.000 OA
BRANCH  28  30
ATOM     30  O   UNL     1       7.680   5.431  20.137  0.00  0.00    +0.000 OA
ATOM     31  H   UNL     1       8.133   5.913  20.853  0.00  0.00    +0.000 HD
ENDBRANCH  28  30
ENDBRANCH  27  28
ENDBRANCH  21  22
ENDBRANCH  20  21
ENDBRANCH  19  20
ENDBRANCH  18  19
ENDBRANCH  17  18
ENDBRANCH   1  17
TORSDOF 13
ENDMDL
MODEL 5
REMARK VINA RESULT:      -6.8      2.229      7.952
REMARK  Name = 
REMARK  16 active torsions:
REMARK  status: ('A' for Active; 'I' for Inactive)
REMARK    1  A    between atoms: C_1  and  C_2
REMARK    2  A    between atoms: C_3  and  O_4
REMARK    3  A    between atoms: O_4  and  C_5
REMARK    4  A    between atoms: C_5  and  C_6
REMARK    5  A    between atoms: C_6  and  C_7
REMARK    6  A    between atoms: C_7  and  C_8
REMARK    7  A    between atoms: C_8  and  O_9
REMARK    8  A    between atoms: O_9  and  C_10
REMARK    9  A    between atoms: C_15  and  C_16
REMARK   10  A    between atoms: C_16  and  O_18
REMARK   11  A    between atoms: C_21  and  C_22
REMARK   12  A    between atoms: C_22  and  C_24
REMARK   13  A    between atoms: C_24  and  C_25
REMARK   14  A    between atoms: C_25  and  C_26
REMARK   15  A    between atoms: C_25  and  C_27
REMARK   16  A    between atoms: C_28  and  O_29
REMARK                            x       y       z     vdW  Elec       q    Type
REMARK                         _______ _______ _______ _____ _____    ______ ____
ROOT
ATOM      1  O   UNL     1       4.600   3.197  19.996  0.00  0.00    +0.000 OA
ENDROOT
BRANCH   1   4
ATOM      2  C   UNL     1       6.976   5.361  19.504  0.00  0.00    +0.000 C 
ATOM      3  C   UNL     1       6.099   4.611  18.531  0.00  0.00    +0.000 A 
ATOM      4  C   UNL     1       5.078   3.683  18.812  0.00  0.00    +0.000 A 
ATOM      5  C   UNL     1       4.387   3.091  17.734  0.00  0.00    +0.000 A 
ATOM      6  C   UNL     1       4.658   3.404  16.400  0.00  0.00    +0.000 A 
ATOM      7  C   UNL     1       5.659   4.323  16.105  0.00  0.00    +0.000 A 
ATOM      8  C   UNL     1       6.375   4.893  17.168  0.00  0.00    +0.000 A 
BRANCH   7   9
ATOM      9  C   UNL     1       5.958   4.730  14.687  0.00  0.00    +0.000 C 
ATOM     10  O   UNL     1       5.906   5.920  14.403  0.00  0.00    +0.000 OA
BRANCH   9  11
ATOM     11  C   UNL     1       6.216   3.631  13.676  0.00  0.00    +0.000 C 
BRANCH  11  12
ATOM     12  C   UNL     1       5.966   4.017  12.211  0.00  0.00    +0.000 C 
ATOM     13  C   UNL     1       7.223   3.850  11.354  0.00  0.00    +0.000 C 
ATOM     14  C   UNL     1       4.850   3.127  11.657  0.00  0.00    +0.000 C 
ENDBRANCH  11  12
ENDBRANCH   9  11
ENDBRANCH   7   9
BRANCH   8  15
ATOM     15  O   UNL     1       7.403   5.784  16.925  0.00  0.00    +0.000 OA
ATOM     16  H   UNL     1       8.239   5.383  17.241  0.00  0.00    +0.000 HD
ENDBRANCH   8  15
ENDBRANCH   1   4
BRANCH   1  17
ATOM     17  C   UNL     1       3.311   2.618  20.060  0.00  0.00    +0.000 C 
BRANCH  17  18
ATOM     18  C   UNL     1       2.744   2.713  21.480  0.00  0.00    +0.000 C 
BRANCH  18  19
ATOM     19  C   UNL     1       1.285   3.214  21.529  0.00  0.00    +0.000 C 
BRANCH  19  20
ATOM     20  C   UNL     1       1.135   4.430  20.618  0.00  0.00    +0.000 C 
BRANCH  20  21
ATOM     21  O   UNL     1       1.635   5.639  21.147  0.00  0.00    +0.000 OA
BRANCH  21  22
ATOM     22  C   UNL     1       1.834   6.657  20.237  0.00  0.00    +0.000 A 
ATOM     23  C   UNL     1       2.449   6.148  19.077  0.00  0.00    +0.000 A 
ATOM     24  C   UNL     1       2.762   6.964  17.991  0.00  0.00    +0.000 A 
ATOM     25  C   UNL     1       2.481   8.321  18.046  0.00  0.00    +0.000 A 
ATOM     26  C   UNL     1       1.879   8.854  19.182  0.00  0.00    +0.000 A 
ATOM     27  C   UNL     1       1.522   8.039  20.280  0.00  0.00    +0.000 A 
BRANCH  27  28
ATOM     28  C   UNL     1       0.881   8.800  21.401  0.00  0.00    +0.000 C 
ATOM     29  O   UNL     1      -0.316   8.913  21.590  0.00  0.00    +0.000 OA
BRANCH  28  30
ATOM     30  O   UNL     1       1.779   9.336  22.263  0.00  0.00    +0.000 OA
ATOM     31  H   UNL     1       2.565   8.793  22.458  0.00  0.00    +0.000 HD
ENDBRANCH  28  30
ENDBRANCH  27  28
ENDBRANCH  21  22
ENDBRANCH  20  21
ENDBRANCH  19  20
ENDBRANCH  18  19
ENDBRANCH  17  18
ENDBRANCH   1  17
TORSDOF 13
ENDMDL
MODEL 6
REMARK VINA RESULT:      -6.8      1.882      8.188
REMARK  Name = 
REMARK  16 active torsions:
REMARK  status: ('A' for Active; 'I' for Inactive)
REMARK    1  A    between atoms: C_1  and  C_2
REMARK    2  A    between atoms: C_3  and  O_4
REMARK    3  A    between atoms: O_4  and  C_5
REMARK    4  A    between atoms: C_5  and  C_6
REMARK    5  A    between atoms: C_6  and  C_7
REMARK    6  A    between atoms: C_7  and  C_8
REMARK    7  A    between atoms: C_8  and  O_9
REMARK    8  A    between atoms: O_9  and  C_10
REMARK    9  A    between atoms: C_15  and  C_16
REMARK   10  A    between atoms: C_16  and  O_18
REMARK   11  A    between atoms: C_21  and  C_22
REMARK   12  A    between atoms: C_22  and  C_24
REMARK   13  A    between atoms: C_24  and  C_25
REMARK   14  A    between atoms: C_25  and  C_26
REMARK   15  A    between atoms: C_25  and  C_27
REMARK   16  A    between atoms: C_28  and  O_29
REMARK                            x       y       z     vdW  Elec       q    Type
REMARK                         _______ _______ _______ _____ _____    ______ ____
ROOT
ATOM      1  O   UNL     1       4.463   4.037  20.026  0.00  0.00    +0.000 OA
ENDROOT
BRANCH   1   4
ATOM      2  C   UNL     1       7.254   5.552  19.329  0.00  0.00    +0.000 C 
ATOM      3  C   UNL     1       6.236   4.885  18.436  0.00  0.00    +0.000 A 
ATOM      4  C   UNL     1       5.037   4.245  18.804  0.00  0.00    +0.000 A 
ATOM      5  C   UNL     1       4.235   3.677  17.793  0.00  0.00    +0.000 A 
ATOM      6  C   UNL     1       4.569   3.742  16.438  0.00  0.00    +0.000 A 
ATOM      7  C   UNL     1       5.747   4.376  16.057  0.00  0.00    +0.000 A 
ATOM      8  C   UNL     1       6.569   4.915  17.057  0.00  0.00    +0.000 A 
BRANCH   7   9
ATOM      9  C   UNL     1       6.130   4.514  14.607  0.00  0.00    +0.000 C 
ATOM     10  O   UNL     1       6.428   5.627  14.191  0.00  0.00    +0.000 OA
BRANCH   9  11
ATOM     11  C   UNL     1       6.035   3.283  13.731  0.00  0.00    +0.000 C 
BRANCH  11  12
ATOM     12  C   UNL     1       6.037   3.553  12.219  0.00  0.00    +0.000 C 
ATOM     13  C   UNL     1       6.988   2.615  11.473  0.00  0.00    +0.000 C 
ATOM     14  C   UNL     1       4.613   3.361  11.687  0.00  0.00    +0.000 C 
ENDBRANCH  11  12
ENDBRANCH   9  11
ENDBRANCH   7   9
BRANCH   8  15
ATOM     15  O   UNL     1       7.766   5.522  16.732  0.00  0.00    +0.000 OA
ATOM     16  H   UNL     1       8.079   5.149  15.882  0.00  0.00    +0.000 HD
ENDBRANCH   8  15
ENDBRANCH   1   4
BRANCH   1  17
ATOM     17  C   UNL     1       3.569   2.958  20.220  0.00  0.00    +0.000 C 
BRANCH  17  18
ATOM     18  C   UNL     1       2.457   3.343  21.202  0.00  0.00    +0.000 C 
BRANCH  18  19
ATOM     19  C   UNL     1       1.126   3.710  20.513  0.00  0.00    +0.000 C 
BRANCH  19  20
ATOM     20  C   UNL     1       1.268   5.065  19.824  0.00  0.00    +0.000 C 
BRANCH  20  21
ATOM     21  O   UNL     1       2.004   6.028  20.545  0.00  0.00    +0.000 OA
BRANCH  21  22
ATOM     22  C   UNL     1       1.562   7.331  20.432  0.00  0.00    +0.000 A 
ATOM     23  C   UNL     1       0.827   7.687  21.578  0.00  0.00    +0.000 A 
ATOM     24  C   UNL     1       0.265   8.955  21.728  0.00  0.00    +0.000 A 
ATOM     25  C   UNL     1       0.412   9.896  20.720  0.00  0.00    +0.000 A 
ATOM     26  C   UNL     1       1.128   9.571  19.573  0.00  0.00    +0.000 A 
ATOM     27  C   UNL     1       1.734   8.304  19.415  0.00  0.00    +0.000 A 
BRANCH  27  28
ATOM     28  C   UNL     1       2.463   8.152  18.114  0.00  0.00    +0.000 C 
ATOM     29  O   UNL     1       2.311   8.852  17.130  0.00  0.00    +0.000 OA
BRANCH  28  30
ATOM     30  O   UNL     1       3.388   7.162  18.133  0.00  0.00    +0.000 OA
ATOM     31  H   UNL     1       3.438   6.605  17.334  0.00  0.00    +0.000 HD
ENDBRANCH  28  30
ENDBRANCH  27  28
ENDBRANCH  21  22
ENDBRANCH  20  21
ENDBRANCH  19  20
ENDBRANCH  18  19
ENDBRANCH  17  18
ENDBRANCH   1  17
TORSDOF 13
ENDMDL
MODEL 7
REMARK VINA RESULT:      -6.7      1.446      2.197
REMARK  Name = 
REMARK  16 active torsions:
REMARK  status: ('A' for Active; 'I' for Inactive)
REMARK    1  A    between atoms: C_1  and  C_2
REMARK    2  A    between atoms: C_3  and  O_4
REMARK    3  A    between atoms: O_4  and  C_5
REMARK    4  A    between atoms: C_5  and  C_6
REMARK    5  A    between atoms: C_6  and  C_7
REMARK    6  A    between atoms: C_7  and  C_8
REMARK    7  A    between atoms: C_8  and  O_9
REMARK    8  A    between atoms: O_9  and  C_10
REMARK    9  A    between atoms: C_15  and  C_16
REMARK   10  A    between atoms: C_16  and  O_18
REMARK   11  A    between atoms: C_21  and  C_22
REMARK   12  A    between atoms: C_22  and  C_24
REMARK   13  A    between atoms: C_24  and  C_25
REMARK   14  A    between atoms: C_25  and  C_26
REMARK   15  A    between atoms: C_25  and  C_27
REMARK   16  A    between atoms: C_28  and  O_29
REMARK                            x       y       z     vdW  Elec       q    Type
REMARK                         _______ _______ _______ _____ _____    ______ ____
ROOT
ATOM      1  O   UNL     1       2.634   5.727  20.086  0.00  0.00    +0.000 OA
ENDROOT
BRANCH   1   4
ATOM      2  C   UNL     1       3.309   7.447  17.411  0.00  0.00    +0.000 C 
ATOM      3  C   UNL     1       2.462   7.777  18.615  0.00  0.00    +0.000 A 
ATOM      4  C   UNL     1       2.211   6.982  19.750  0.00  0.00    +0.000 A 
ATOM      5  C   UNL     1       1.372   7.493  20.762  0.00  0.00    +0.000 A 
ATOM      6  C   UNL     1       0.796   8.764  20.695  0.00  0.00    +0.000 A 
ATOM      7  C   UNL     1       1.037   9.564  19.584  0.00  0.00    +0.000 A 
ATOM      8  C   UNL     1       1.844   9.053  18.556  0.00  0.00    +0.000 A 
BRANCH   7   9
ATOM      9  C   UNL     1       0.479  10.958  19.484  0.00  0.00    +0.000 C 
ATOM     10  O   UNL     1       1.265  11.888  19.351  0.00  0.00    +0.000 OA
BRANCH   9  11
ATOM     11  C   UNL     1      -1.016  11.134  19.647  0.00  0.00    +0.000 C 
BRANCH  11  12
ATOM     12  C   UNL     1      -1.448  11.998  20.840  0.00  0.00    +0.000 C 
ATOM     13  C   UNL     1      -0.549  11.779  22.059  0.00  0.00    +0.000 C 
ATOM     14  C   UNL     1      -1.389  13.471  20.423  0.00  0.00    +0.000 C 
ENDBRANCH  11  12
ENDBRANCH   9  11
ENDBRANCH   7   9
BRANCH   8  15
ATOM     15  O   UNL     1       2.084   9.795  17.416  0.00  0.00    +0.000 OA
ATOM     16  H   UNL     1       2.651   9.266  16.818  0.00  0.00    +0.000 HD
ENDBRANCH   8  15
ENDBRANCH   1   4
BRANCH   1  17
ATOM     17  C   UNL     1       1.791   4.611  19.879  0.00  0.00    +0.000 C 
BRANCH  17  18
ATOM     18  C   UNL     1       2.579   3.303  20.006  0.00  0.00    +0.000 C 
BRANCH  18  19
ATOM     19  C   UNL     1       2.859   2.619  18.652  0.00  0.00    +0.000 C 
BRANCH  19  20
ATOM     20  C   UNL     1       3.326   3.664  17.642  0.00  0.00    +0.000 C 
BRANCH  20  21
ATOM     21  O   UNL     1       4.594   3.421  17.072  0.00  0.00    +0.000 OA
BRANCH  21  22
ATOM     22  C   UNL     1       5.560   4.373  17.326  0.00  0.00    +0.000 A 
ATOM     23  C   UNL     1       5.624   4.632  18.708  0.00  0.00    +0.000 A 
ATOM     24  C   UNL     1       6.522   5.555  19.243  0.00  0.00    +0.000 A 
ATOM     25  C   UNL     1       7.371   6.258  18.401  0.00  0.00    +0.000 A 
ATOM     26  C   UNL     1       7.326   6.027  17.029  0.00  0.00    +0.000 A 
ATOM     27  C   UNL     1       6.448   5.071  16.469  0.00  0.00    +0.000 A 
BRANCH  27  28
ATOM     28  C   UNL     1       6.556   4.968  14.978  0.00  0.00    +0.000 C 
ATOM     29  O   UNL     1       7.506   5.328  14.308  0.00  0.00    +0.000 OA
BRANCH  28  30
ATOM     30  O   UNL     1       5.486   4.364  14.406  0.00  0.00    +0.000 OA
ATOM     31  H   UNL     1       5.460   3.391  14.464  0.00  0.00    +0.000 HD
ENDBRANCH  28  30
ENDBRANCH  27  28
ENDBRANCH  21  22
ENDBRANCH  20  21
ENDBRANCH  19  20
ENDBRANCH  18  19
ENDBRANCH  17  18
ENDBRANCH   1  17
TORSDOF 13
ENDMDL
MODEL 8
REMARK VINA RESULT:      -6.7      2.225      4.618
REMARK  Name = 
REMARK  16 active torsions:
REMARK  status: ('A' for Active; 'I' for Inactive)
REMARK    1  A    between atoms: C_1  and  C_2
REMARK    2  A    between atoms: C_3  and  O_4
REMARK    3  A    between atoms: O_4  and  C_5
REMARK    4  A    between atoms: C_5  and  C_6
REMARK    5  A    between atoms: C_6  and  C_7
REMARK    6  A    between atoms: C_7  and  C_8
REMARK    7  A    between atoms: C_8  and  O_9
REMARK    8  A    between atoms: O_9  and  C_10
REMARK    9  A    between atoms: C_15  and  C_16
REMARK   10  A    between atoms: C_16  and  O_18
REMARK   11  A    between atoms: C_21  and  C_22
REMARK   12  A    between atoms: C_22  and  C_24
REMARK   13  A    between atoms: C_24  and  C_25
REMARK   14  A    between atoms: C_25  and  C_26
REMARK   15  A    between atoms: C_25  and  C_27
REMARK   16  A    between atoms: C_28  and  O_29
REMARK                            x       y       z     vdW  Elec       q    Type
REMARK                         _______ _______ _______ _____ _____    ______ ____
ROOT
ATOM      1  O   UNL     1       0.561   9.650  18.631  0.00  0.00    +0.000 OA
ENDROOT
BRANCH   1   4
ATOM      2  C   UNL     1       1.044   8.584  21.664  0.00  0.00    +0.000 C 
ATOM      3  C   UNL     1       0.313   9.797  21.143  0.00  0.00    +0.000 A 
ATOM      4  C   UNL     1       0.136  10.203  19.806  0.00  0.00    +0.000 A 
ATOM      5  C   UNL     1      -0.582  11.389  19.548  0.00  0.00    +0.000 A 
ATOM      6  C   UNL     1      -1.145  12.167  20.563  0.00  0.00    +0.000 A 
ATOM      7  C   UNL     1      -0.986  11.777  21.888  0.00  0.00    +0.000 A 
ATOM      8  C   UNL     1      -0.244  10.617  22.158  0.00  0.00    +0.000 A 
BRANCH   7   9
ATOM      9  C   UNL     1      -1.612  12.554  23.015  0.00  0.00    +0.000 C 
ATOM     10  O   UNL     1      -0.901  13.317  23.657  0.00  0.00    +0.000 OA
BRANCH   9  11
ATOM     11  C   UNL     1      -3.064  12.274  23.345  0.00  0.00    +0.000 C 
BRANCH  11  12
ATOM     12  C   UNL     1      -4.075  13.259  22.740  0.00  0.00    +0.000 C 
ATOM     13  C   UNL     1      -3.423  14.595  22.378  0.00  0.00    +0.000 C 
ATOM     14  C   UNL     1      -4.676  12.627  21.480  0.00  0.00    +0.000 C 
ENDBRANCH  11  12
ENDBRANCH   9  11
ENDBRANCH   7   9
BRANCH   8  15
ATOM     15  O   UNL     1      -0.028  10.209  23.460  0.00  0.00    +0.000 OA
ATOM     16  H   UNL     1       0.934  10.252  23.640  0.00  0.00    +0.000 HD
ENDBRANCH   8  15
ENDBRANCH   1   4
BRANCH   1  17
ATOM     17  C   UNL     1       1.884   9.865  18.179  0.00  0.00    +0.000 C 
BRANCH  17  18
ATOM     18  C   UNL     1       2.499   8.561  17.659  0.00  0.00    +0.000 C 
BRANCH  18  19
ATOM     19  C   UNL     1       2.308   7.365  18.616  0.00  0.00    +0.000 C 
BRANCH  19  20
ATOM     20  C   UNL     1       2.759   6.083  17.921  0.00  0.00    +0.000 C 
BRANCH  20  21
ATOM     21  O   UNL     1       1.912   4.970  18.110  0.00  0.00    +0.000 OA
BRANCH  21  22
ATOM     22  C   UNL     1       2.225   4.150  19.175  0.00  0.00    +0.000 A 
ATOM     23  C   UNL     1       1.097   3.989  20.002  0.00  0.00    +0.000 A 
ATOM     24  C   UNL     1       1.134   3.203  21.153  0.00  0.00    +0.000 A 
ATOM     25  C   UNL     1       2.313   2.569  21.516  0.00  0.00    +0.000 A 
ATOM     26  C   UNL     1       3.446   2.715  20.721  0.00  0.00    +0.000 A 
ATOM     27  C   UNL     1       3.421   3.479  19.532  0.00  0.00    +0.000 A 
BRANCH  27  28
ATOM     28  C   UNL     1       4.739   3.508  18.818  0.00  0.00    +0.000 C 
ATOM     29  O   UNL     1       5.739   4.090  19.196  0.00  0.00    +0.000 OA
BRANCH  28  30
ATOM     30  O   UNL     1       4.750   2.757  17.690  0.00  0.00    +0.000 OA
ATOM     31  H   UNL     1       5.044   3.208  16.876  0.00  0.00    +0.000 HD
ENDBRANCH  28  30
ENDBRANCH  27  28
ENDBRANCH  21  22
ENDBRANCH  20  21
ENDBRANCH  19  20
ENDBRANCH  18  19
ENDBRANCH  17  18
ENDBRANCH   1  17
TORSDOF 13
ENDMDL
MODEL 9
REMARK VINA RESULT:      -6.7      1.263      1.513
REMARK  Name = 
REMARK  16 active torsions:
REMARK  status: ('A' for Active; 'I' for Inactive)
REMARK    1  A    between atoms: C_1  and  C_2
REMARK    2  A    between atoms: C_3  and  O_4
REMARK    3  A    between atoms: O_4  and  C_5
REMARK    4  A    between atoms: C_5  and  C_6
REMARK    5  A    between atoms: C_6  and  C_7
REMARK    6  A    between atoms: C_7  and  C_8
REMARK    7  A    between atoms: C_8  and  O_9
REMARK    8  A    between atoms: O_9  and  C_10
REMARK    9  A    between atoms: C_15  and  C_16
REMARK   10  A    between atoms: C_16  and  O_18
REMARK   11  A    between atoms: C_21  and  C_22
REMARK   12  A    between atoms: C_22  and  C_24
REMARK   13  A    between atoms: C_24  and  C_25
REMARK   14  A    between atoms: C_25  and  C_26
REMARK   15  A    between atoms: C_25  and  C_27
REMARK   16  A    between atoms: C_28  and  O_29
REMARK                            x       y       z     vdW  Elec       q    Type
REMARK                         _______ _______ _______ _____ _____    ______ ____
ROOT
ATOM      1  O   UNL     1       2.389   6.290  20.581  0.00  0.00    +0.000 OA
ENDROOT
BRANCH   1   4
ATOM      2  C   UNL     1       3.040   7.646  17.699  0.00  0.00    +0.000 C 
ATOM      3  C   UNL     1       2.165   8.108  18.838  0.00  0.00    +0.000 A 
ATOM      4  C   UNL     1       1.927   7.470  20.071  0.00  0.00    +0.000 A 
ATOM      5  C   UNL     1       1.056   8.086  20.994  0.00  0.00    +0.000 A 
ATOM      6  C   UNL     1       0.437   9.313  20.746  0.00  0.00    +0.000 A 
ATOM      7  C   UNL     1       0.666   9.959  19.536  0.00  0.00    +0.000 A 
ATOM      8  C   UNL     1       1.504   9.340  18.597  0.00  0.00    +0.000 A 
BRANCH   7   9
ATOM      9  C   UNL     1       0.061  11.305  19.239  0.00  0.00    +0.000 C 
ATOM     10  O   UNL     1      -0.872  11.358  18.446  0.00  0.00    +0.000 OA
BRANCH   9  11
ATOM     11  C   UNL     1       0.703  12.524  19.868  0.00  0.00    +0.000 C 
BRANCH  11  12
ATOM     12  C   UNL     1      -0.277  13.589  20.381  0.00  0.00    +0.000 C 
ATOM     13  C   UNL     1       0.002  13.969  21.837  0.00  0.00    +0.000 C 
ATOM     14  C   UNL     1      -0.149  14.834  19.497  0.00  0.00    +0.000 C 
ENDBRANCH  11  12
ENDBRANCH   9  11
ENDBRANCH   7   9
BRANCH   8  15
ATOM     15  O   UNL     1       1.734   9.926  17.367  0.00  0.00    +0.000 OA
ATOM     16  H   UNL     1       2.695   9.883  17.181  0.00  0.00    +0.000 HD
ENDBRANCH   8  15
ENDBRANCH   1   4
BRANCH   1  17
ATOM     17  C   UNL     1       1.536   5.164  20.658  0.00  0.00    +0.000 C 
BRANCH  17  18
ATOM     18  C   UNL     1       2.314   3.924  21.109  0.00  0.00    +0.000 C 
BRANCH  18  19
ATOM     19  C   UNL     1       2.746   3.009  19.943  0.00  0.00    +0.000 C 
BRANCH  19  20
ATOM     20  C   UNL     1       4.157   3.385  19.498  0.00  0.00    +0.000 C 
BRANCH  20  21
ATOM     21  O   UNL     1       4.253   4.589  18.769  0.00  0.00    +0.000 OA
BRANCH  21  22
ATOM     22  C   UNL     1       5.237   4.630  17.802  0.00  0.00    +0.000 A 
ATOM     23  C   UNL     1       4.745   4.090  16.598  0.00  0.00    +0.000 A 
ATOM     24  C   UNL     1       5.534   4.011  15.451  0.00  0.00    +0.000 A 
ATOM     25  C   UNL     1       6.846   4.457  15.485  0.00  0.00    +0.000 A 
ATOM     26  C   UNL     1       7.362   4.991  16.663  0.00  0.00    +0.000 A 
ATOM     27  C   UNL     1       6.570   5.112  17.828  0.00  0.00    +0.000 A 
BRANCH  27  28
ATOM     28  C   UNL     1       7.305   5.714  18.986  0.00  0.00    +0.000 C 
ATOM     29  O   UNL     1       7.280   5.305  20.133  0.00  0.00    +0.000 OA
BRANCH  28  30
ATOM     30  O   UNL     1       8.082   6.768  18.636  0.00  0.00    +0.000 OA
ATOM     31  H   UNL     1       8.854   6.565  18.076  0.00  0.00    +0.000 HD
ENDBRANCH  28  30
ENDBRANCH  27  28
ENDBRANCH  21  22
ENDBRANCH  20  21
ENDBRANCH  19  20
ENDBRANCH  18  19
ENDBRANCH  17  18
ENDBRANCH   1  17
TORSDOF 13
ENDMDL
