MODEL 1
REMARK VINA RESULT:      -7.6      0.000      0.000
REMARK  Name = 
REMARK  3 active torsions:
REMARK  status: ('A' for Active; 'I' for Inactive)
REMARK    1  A    between atoms: C_1  and  C_2
REMARK    2  A    between atoms: C_4  and  C_5
REMARK    3  A    between atoms: N_7  and  C_8
REMARK                            x       y       z     vdW  Elec       q    Type
REMARK                         _______ _______ _______ _____ _____    ______ ____
ROOT
ATOM      1  C   UNL     1       5.449   4.454  17.360  0.00  0.00    +0.000 C 
ATOM      2  O   UNL     1       6.051   4.191  18.396  0.00  0.00    +0.000 OA
ATOM      3  N   UNL     1       4.071   4.569  17.236  0.00  0.00    +0.000 N 
ATOM      4  H   UNL     1       3.761   4.838  16.300  0.00  0.00    +0.000 HD
ENDROOT
BRANCH   3   5
ATOM      5  C   UNL     1       3.102   4.362  18.207  0.00  0.00    +0.000 C 
ATOM      6  C   UNL     1       2.195   3.389  18.024  0.00  0.00    +0.000 C 
ATOM      7  C   UNL     1       1.117   3.137  19.015  0.00  0.00    +0.000 C 
ATOM      8  O   UNL     1       0.298   2.248  18.793  0.00  0.00    +0.000 OA
ATOM      9  C   UNL     1       1.018   4.033  20.226  0.00  0.00    +0.000 C 
ATOM     10  C   UNL     1       2.386   4.551  20.628  0.00  0.00    +0.000 C 
ATOM     11  C   UNL     1       3.101   5.219  19.457  0.00  0.00    +0.000 C 
ENDBRANCH   3   5
BRANCH   1  15
ATOM     12  C   UNL     1       7.155   4.433  12.574  0.00  0.00    +0.000 C 
ATOM     13  C   UNL     1       6.849   4.605  14.006  0.00  0.00    +0.000 A 
ATOM     14  C   UNL     1       5.889   4.101  14.844  0.00  0.00    +0.000 A 
ATOM     15  C   UNL     1       6.178   4.676  16.108  0.00  0.00    +0.000 A 
ATOM     16  N   UNL     1       7.246   5.489  16.030  0.00  0.00    +0.000 NA
ATOM     17  O   UNL     1       7.666   5.434  14.710  0.00  0.00    +0.000 OA
ENDBRANCH   1  15
TORSDOF 2
ENDMDL
MODEL 2
REMARK VINA RESULT:      -7.4      1.492      1.633
REMARK  Name = 
REMARK  3 active torsions:
REMARK  status: ('A' for Active; 'I' for Inactive)
REMARK    1  A    between atoms: C_1  and  C_2
REMARK    2  A    between atoms: C_4  and  C_5
REMARK    3  A    between atoms: N_7  and  C_8
REMARK                            x       y       z     vdW  Elec       q    Type
REMARK                         _______ _______ _______ _____ _____    ______ ____
ROOT
ATOM      1  C   UNL     1       5.447   4.297  17.988  0.00  0.00    +0.000 C 
ATOM      2  O   UNL     1       6.088   4.462  19.020  0.00  0.00    +0.000 OA
ATOM      3  N   UNL     1       4.089   4.013  17.920  0.00  0.00    +0.000 N 
ATOM      4  H   UNL     1       3.726   3.954  16.967  0.00  0.00    +0.000 HD
ENDROOT
BRANCH   3   5
ATOM      5  C   UNL     1       3.203   3.805  18.967  0.00  0.00    +0.000 C 
ATOM      6  C   UNL     1       3.594   3.050  20.008  0.00  0.00    +0.000 C 
ATOM      7  C   UNL     1       2.682   2.768  21.146  0.00  0.00    +0.000 C 
ATOM      8  O   UNL     1       3.077   2.055  22.065  0.00  0.00    +0.000 OA
ATOM      9  C   UNL     1       1.271   3.305  21.099  0.00  0.00    +0.000 C 
ATOM     10  C   UNL     1       1.213   4.601  20.313  0.00  0.00    +0.000 C 
ATOM     11  C   UNL     1       1.832   4.447  18.927  0.00  0.00    +0.000 C 
ENDBRANCH   3   5
BRANCH   1  15
ATOM     12  C   UNL     1       6.664   4.114  13.058  0.00  0.00    +0.000 C 
ATOM     13  C   UNL     1       6.542   4.270  14.519  0.00  0.00    +0.000 A 
ATOM     14  C   UNL     1       5.553   4.000  15.428  0.00  0.00    +0.000 A 
ATOM     15  C   UNL     1       6.100   4.388  16.679  0.00  0.00    +0.000 A 
ATOM     16  N   UNL     1       7.344   4.875  16.525  0.00  0.00    +0.000 NA
ATOM     17  O   UNL     1       7.617   4.791  15.169  0.00  0.00    +0.000 OA
ENDBRANCH   1  15
TORSDOF 2
ENDMDL
MODEL 3
REMARK VINA RESULT:      -7.4      1.092      1.629
REMARK  Name = 
REMARK  3 active torsions:
REMARK  status: ('A' for Active; 'I' for Inactive)
REMARK    1  A    between atoms: C_1  and  C_2
REMARK    2  A    between atoms: C_4  and  C_5
REMARK    3  A    between atoms: N_7  and  C_8
REMARK                            x       y       z     vdW  Elec       q    Type
REMARK                         _______ _______ _______ _____ _____    ______ ____
ROOT
ATOM      1  C   UNL     1       5.380   4.254  17.373  0.00  0.00    +0.000 C 
ATOM      2  O   UNL     1       5.938   4.155  18.460  0.00  0.00    +0.000 OA
ATOM      3  N   UNL     1       4.015   4.120  17.153  0.00  0.00    +0.000 N 
ATOM      4  H   UNL     1       3.735   4.280  16.184  0.00  0.00    +0.000 HD
ENDROOT
BRANCH   3   5
ATOM      5  C   UNL     1       3.026   3.801  18.073  0.00  0.00    +0.000 C 
ATOM      6  C   UNL     1       2.629   4.737  18.951  0.00  0.00    +0.000 C 
ATOM      7  C   UNL     1       1.594   4.447  19.977  0.00  0.00    +0.000 C 
ATOM      8  O   UNL     1       1.278   5.329  20.771  0.00  0.00    +0.000 OA
ATOM      9  C   UNL     1       1.021   3.052  20.058  0.00  0.00    +0.000 C 
ATOM     10  C   UNL     1       1.020   2.388  18.695  0.00  0.00    +0.000 C 
ATOM     11  C   UNL     1       2.404   2.419  18.053  0.00  0.00    +0.000 C 
ENDBRANCH   3   5
BRANCH   1  15
ATOM     12  C   UNL     1       7.177   4.552  12.630  0.00  0.00    +0.000 C 
ATOM     13  C   UNL     1       6.858   4.609  14.068  0.00  0.00    +0.000 A 
ATOM     14  C   UNL     1       5.840   4.112  14.839  0.00  0.00    +0.000 A 
ATOM     15  C   UNL     1       6.152   4.532  16.158  0.00  0.00    +0.000 A 
ATOM     16  N   UNL     1       7.288   5.251  16.174  0.00  0.00    +0.000 NA
ATOM     17  O   UNL     1       7.729   5.288  14.861  0.00  0.00    +0.000 OA
ENDBRANCH   1  15
TORSDOF 2
ENDMDL
MODEL 4
REMARK VINA RESULT:      -7.3      1.492      1.712
REMARK  Name = 
REMARK  3 active torsions:
REMARK  status: ('A' for Active; 'I' for Inactive)
REMARK    1  A    between atoms: C_1  and  C_2
REMARK    2  A    between atoms: C_4  and  C_5
REMARK    3  A    between atoms: N_7  and  C_8
REMARK                            x       y       z     vdW  Elec       q    Type
REMARK                         _______ _______ _______ _____ _____    ______ ____
ROOT
ATOM      1  C   UNL     1       5.223   4.955  16.853  0.00  0.00    +0.000 C 
ATOM      2  O   UNL     1       5.347   5.868  17.663  0.00  0.00    +0.000 OA
ATOM      3  N   UNL     1       4.351   3.880  16.977  0.00  0.00    +0.000 N 
ATOM      4  H   UNL     1       4.361   3.245  16.178  0.00  0.00    +0.000 HD
ENDROOT
BRANCH   3   5
ATOM      5  C   UNL     1       3.501   3.584  18.033  0.00  0.00    +0.000 C 
ATOM      6  C   UNL     1       4.025   3.107  19.175  0.00  0.00    +0.000 C 
ATOM      7  C   UNL     1       3.164   2.745  20.331  0.00  0.00    +0.000 C 
ATOM      8  O   UNL     1       3.688   2.294  21.346  0.00  0.00    +0.000 OA
ATOM      9  C   UNL     1       1.666   2.873  20.190  0.00  0.00    +0.000 C 
ATOM     10  C   UNL     1       1.307   3.989  19.228  0.00  0.00    +0.000 C 
ATOM     11  C   UNL     1       2.013   3.823  17.885  0.00  0.00    +0.000 C 
ENDBRANCH   3   5
BRANCH   1  15
ATOM     12  C   UNL     1       7.124   4.121  12.216  0.00  0.00    +0.000 C 
ATOM     13  C   UNL     1       6.780   4.508  13.596  0.00  0.00    +0.000 A 
ATOM     14  C   UNL     1       5.725   4.237  14.428  0.00  0.00    +0.000 A 
ATOM     15  C   UNL     1       6.030   4.925  15.630  0.00  0.00    +0.000 A 
ATOM     16  N   UNL     1       7.198   5.582  15.521  0.00  0.00    +0.000 NA
ATOM     17  O   UNL     1       7.666   5.310  14.244  0.00  0.00    +0.000 OA
ENDBRANCH   1  15
TORSDOF 2
ENDMDL
MODEL 5
REMARK VINA RESULT:      -7.2      1.203      1.215
REMARK  Name = 
REMARK  3 active torsions:
REMARK  status: ('A' for Active; 'I' for Inactive)
REMARK    1  A    between atoms: C_1  and  C_2
REMARK    2  A    between atoms: C_4  and  C_5
REMARK    3  A    between atoms: N_7  and  C_8
REMARK                            x       y       z     vdW  Elec       q    Type
REMARK                         _______ _______ _______ _____ _____    ______ ____
ROOT
ATOM      1  C   UNL     1       4.811   5.002  16.633  0.00  0.00    +0.000 C 
ATOM      2  O   UNL     1       4.388   6.060  17.087  0.00  0.00    +0.000 OA
ATOM      3  N   UNL     1       4.430   3.734  17.054  0.00  0.00    +0.000 N 
ATOM      4  H   UNL     1       4.862   2.976  16.524  0.00  0.00    +0.000 HD
ENDROOT
BRANCH   3   5
ATOM      5  C   UNL     1       3.561   3.398  18.082  0.00  0.00    +0.000 C 
ATOM      6  C   UNL     1       2.335   2.943  17.774  0.00  0.00    +0.000 C 
ATOM      7  C   UNL     1       1.351   2.592  18.830  0.00  0.00    +0.000 C 
ATOM      8  O   UNL     1       0.235   2.199  18.498  0.00  0.00    +0.000 OA
ATOM      9  C   UNL     1       1.728   2.804  20.276  0.00  0.00    +0.000 C 
ATOM     10  C   UNL     1       3.223   2.641  20.474  0.00  0.00    +0.000 C 
ATOM     11  C   UNL     1       4.017   3.530  19.521  0.00  0.00    +0.000 C 
ENDBRANCH   3   5
BRANCH   1  15
ATOM     12  C   UNL     1       7.390   4.364  12.302  0.00  0.00    +0.000 C 
ATOM     13  C   UNL     1       6.850   4.672  13.639  0.00  0.00    +0.000 A 
ATOM     14  C   UNL     1       5.655   4.432  14.263  0.00  0.00    +0.000 A 
ATOM     15  C   UNL     1       5.806   4.995  15.557  0.00  0.00    +0.000 A 
ATOM     16  N   UNL     1       7.023   5.552  15.696  0.00  0.00    +0.000 NA
ATOM     17  O   UNL     1       7.674   5.339  14.491  0.00  0.00    +0.000 OA
ENDBRANCH   1  15
TORSDOF 2
ENDMDL
MODEL 6
REMARK VINA RESULT:      -6.9      1.727      2.106
REMARK  Name = 
REMARK  3 active torsions:
REMARK  status: ('A' for Active; 'I' for Inactive)
REMARK    1  A    between atoms: C_1  and  C_2
REMARK    2  A    between atoms: C_4  and  C_5
REMARK    3  A    between atoms: N_7  and  C_8
REMARK                            x       y       z     vdW  Elec       q    Type
REMARK                         _______ _______ _______ _____ _____    ______ ____
ROOT
ATOM      1  C   UNL     1       5.438   5.524  16.967  0.00  0.00    +0.000 C 
ATOM      2  O   UNL     1       6.013   6.222  17.795  0.00  0.00    +0.000 OA
ATOM      3  N   UNL     1       4.169   4.978  17.115  0.00  0.00    +0.000 N 
ATOM      4  H   UNL     1       3.844   4.461  16.297  0.00  0.00    +0.000 HD
ENDROOT
BRANCH   3   5
ATOM      5  C   UNL     1       3.326   5.054  18.215  0.00  0.00    +0.000 C 
ATOM      6  C   UNL     1       3.037   6.261  18.729  0.00  0.00    +0.000 C 
ATOM      7  C   UNL     1       2.163   6.406  19.922  0.00  0.00    +0.000 C 
ATOM      8  O   UNL     1       1.943   7.529  20.368  0.00  0.00    +0.000 OA
ATOM      9  C   UNL     1       1.636   5.160  20.593  0.00  0.00    +0.000 C 
ATOM     10  C   UNL     1       1.458   4.039  19.588  0.00  0.00    +0.000 C 
ATOM     11  C   UNL     1       2.738   3.785  18.796  0.00  0.00    +0.000 C 
ENDBRANCH   3   5
BRANCH   1  15
ATOM     12  C   UNL     1       6.663   3.693  12.388  0.00  0.00    +0.000 C 
ATOM     13  C   UNL     1       6.531   4.347  13.703  0.00  0.00    +0.000 A 
ATOM     14  C   UNL     1       5.564   4.350  14.674  0.00  0.00    +0.000 A 
ATOM     15  C   UNL     1       6.082   5.190  15.693  0.00  0.00    +0.000 A 
ATOM     16  N   UNL     1       7.288   5.674  15.346  0.00  0.00    +0.000 NA
ATOM     17  O   UNL     1       7.565   5.135  14.100  0.00  0.00    +0.000 OA
ENDBRANCH   1  15
TORSDOF 2
ENDMDL
MODEL 7
REMARK VINA RESULT:      -6.8      1.464      1.924
REMARK  Name = 
REMARK  3 active torsions:
REMARK  status: ('A' for Active; 'I' for Inactive)
REMARK    1  A    between atoms: C_1  and  C_2
REMARK    2  A    between atoms: C_4  and  C_5
REMARK    3  A    between atoms: N_7  and  C_8
REMARK                            x       y       z     vdW  Elec       q    Type
REMARK                         _______ _______ _______ _____ _____    ______ ____
ROOT
ATOM      1  C   UNL     1       4.577   5.103  16.781  0.00  0.00    +0.000 C 
ATOM      2  O   UNL     1       4.143   6.166  17.214  0.00  0.00    +0.000 OA
ATOM      3  N   UNL     1       4.160   3.840  17.181  0.00  0.00    +0.000 N 
ATOM      4  H   UNL     1       4.609   3.077  16.673  0.00  0.00    +0.000 HD
ENDROOT
BRANCH   3   5
ATOM      5  C   UNL     1       3.235   3.513  18.162  0.00  0.00    +0.000 C 
ATOM      6  C   UNL     1       3.242   4.200  19.316  0.00  0.00    +0.000 C 
ATOM      7  C   UNL     1       2.295   3.880  20.415  0.00  0.00    +0.000 C 
ATOM      8  O   UNL     1       2.353   4.523  21.460  0.00  0.00    +0.000 OA
ATOM      9  C   UNL     1       1.342   2.722  20.239  0.00  0.00    +0.000 C 
ATOM     10  C   UNL     1       0.983   2.534  18.778  0.00  0.00    +0.000 C 
ATOM     11  C   UNL     1       2.229   2.411  17.904  0.00  0.00    +0.000 C 
ENDBRANCH   3   5
BRANCH   1  15
ATOM     12  C   UNL     1       7.392   4.384  12.613  0.00  0.00    +0.000 C 
ATOM     13  C   UNL     1       6.777   4.723  13.909  0.00  0.00    +0.000 A 
ATOM     14  C   UNL     1       5.556   4.475  14.480  0.00  0.00    +0.000 A 
ATOM     15  C   UNL     1       5.627   5.085  15.758  0.00  0.00    +0.000 A 
ATOM     16  N   UNL     1       6.820   5.678  15.939  0.00  0.00    +0.000 NA
ATOM     17  O   UNL     1       7.539   5.440  14.778  0.00  0.00    +0.000 OA
ENDBRANCH   1  15
TORSDOF 2
ENDMDL
MODEL 8
REMARK VINA RESULT:      -6.7      2.186      2.965
REMARK  Name = 
REMARK  3 active torsions:
REMARK  status: ('A' for Active; 'I' for Inactive)
REMARK    1  A    between atoms: C_1  and  C_2
REMARK    2  A    between atoms: C_4  and  C_5
REMARK    3  A    between atoms: N_7  and  C_8
REMARK                            x       y       z     vdW  Elec       q    Type
REMARK                         _______ _______ _______ _____ _____    ______ ____
ROOT
ATOM      1  C   UNL     1       5.261   4.606  17.338  0.00  0.00    +0.000 C 
ATOM      2  O   UNL     1       5.176   3.709  16.506  0.00  0.00    +0.000 OA
ATOM      3  N   UNL     1       4.467   4.736  18.469  0.00  0.00    +0.000 N 
ATOM      4  H   UNL     1       4.719   5.526  19.064  0.00  0.00    +0.000 HD
ENDROOT
BRANCH   3   5
ATOM      5  C   UNL     1       3.402   3.939  18.864  0.00  0.00    +0.000 C 
ATOM      6  C   UNL     1       3.291   3.597  20.159  0.00  0.00    +0.000 C 
ATOM      7  C   UNL     1       2.189   2.724  20.638  0.00  0.00    +0.000 C 
ATOM      8  O   UNL     1       2.141   2.423  21.828  0.00  0.00    +0.000 OA
ATOM      9  C   UNL     1       1.208   2.172  19.632  0.00  0.00    +0.000 C 
ATOM     10  C   UNL     1       1.039   3.124  18.464  0.00  0.00    +0.000 C 
ATOM     11  C   UNL     1       2.382   3.490  17.838  0.00  0.00    +0.000 C 
ENDBRANCH   3   5
BRANCH   1  15
ATOM     12  C   UNL     1       8.183   8.734  17.830  0.00  0.00    +0.000 C 
ATOM     13  C   UNL     1       7.479   7.486  17.482  0.00  0.00    +0.000 A 
ATOM     14  C   UNL     1       6.440   6.790  18.041  0.00  0.00    +0.000 A 
ATOM     15  C   UNL     1       6.260   5.669  17.190  0.00  0.00    +0.000 A 
ATOM     16  N   UNL     1       7.151   5.687  16.183  0.00  0.00    +0.000 NA
ATOM     17  O   UNL     1       7.908   6.833  16.369  0.00  0.00    +0.000 OA
ENDBRANCH   1  15
TORSDOF 2
ENDMDL
MODEL 9
REMARK VINA RESULT:      -6.6      1.686      6.850
REMARK  Name = 
REMARK  3 active torsions:
REMARK  status: ('A' for Active; 'I' for Inactive)
REMARK    1  A    between atoms: C_1  and  C_2
REMARK    2  A    between atoms: C_4  and  C_5
REMARK    3  A    between atoms: N_7  and  C_8
REMARK                            x       y       z     vdW  Elec       q    Type
REMARK                         _______ _______ _______ _____ _____    ______ ____
ROOT
ATOM      1  C   UNL     1       4.715   5.066  16.520  0.00  0.00    +0.000 C 
ATOM      2  O   UNL     1       4.865   6.275  16.379  0.00  0.00    +0.000 OA
ATOM      3  N   UNL     1       5.217   4.087  15.672  0.00  0.00    +0.000 N 
ATOM      4  H   UNL     1       5.024   3.133  15.981  0.00  0.00    +0.000 HD
ENDROOT
BRANCH   3   5
ATOM      5  C   UNL     1       5.925   4.258  14.490  0.00  0.00    +0.000 C 
ATOM      6  C   UNL     1       7.050   4.992  14.507  0.00  0.00    +0.000 C 
ATOM      7  C   UNL     1       7.836   5.233  13.270  0.00  0.00    +0.000 C 
ATOM      8  O   UNL     1       8.848   5.927  13.331  0.00  0.00    +0.000 OA
ATOM      9  C   UNL     1       7.322   4.681  11.962  0.00  0.00    +0.000 C 
ATOM     10  C   UNL     1       6.535   3.404  12.186  0.00  0.00    +0.000 C 
ATOM     11  C   UNL     1       5.428   3.600  13.219  0.00  0.00    +0.000 C 
ENDBRANCH   3   5
BRANCH   1  15
ATOM     12  C   UNL     1       1.339   4.177  20.211  0.00  0.00    +0.000 C 
ATOM     13  C   UNL     1       2.435   4.225  19.227  0.00  0.00    +0.000 A 
ATOM     14  C   UNL     1       2.745   5.058  18.183  0.00  0.00    +0.000 A 
ATOM     15  C   UNL     1       3.952   4.534  17.652  0.00  0.00    +0.000 A 
ATOM     16  N   UNL     1       4.338   3.440  18.333  0.00  0.00    +0.000 NA
ATOM     17  O   UNL     1       3.385   3.258  19.324  0.00  0.00    +0.000 OA
ENDBRANCH   1  15
TORSDOF 2
ENDMDL
