MODEL 1
REMARK VINA RESULT:      -7.9      0.000      0.000
REMARK  Name = 
REMARK  4 active torsions:
REMARK  status: ('A' for Active; 'I' for Inactive)
REMARK    1  A    between atoms: N_1  and  C_2
REMARK    2  A    between atoms: C_2  and  C_3
REMARK    3  A    between atoms: C_3  and  C_4
REMARK    4  A    between atoms: C_16  and  C_17
REMARK                            x       y       z     vdW  Elec       q    Type
REMARK                         _______ _______ _______ _____ _____    ______ ____
ROOT
ATOM      1  C   UNL     1       6.673   5.072  15.849  0.00  0.00    +0.000 A 
ATOM      2  N   UNL     1       7.811   4.441  16.066  0.00  0.00    +0.000 NA
ATOM      3  N   UNL     1       7.980   4.303  17.412  0.00  0.00    +0.000 NA
ATOM      4  C   UNL     1       6.943   4.849  18.003  0.00  0.00    +0.000 A 
ATOM      5  N   UNL     1       6.094   5.404  17.072  0.00  0.00    +0.000 N 
ATOM      6  C   UNL     1       4.944   6.181  17.371  0.00  0.00    +0.000 A 
ATOM      7  C   UNL     1       4.626   7.273  16.545  0.00  0.00    +0.000 A 
ATOM      8  C   UNL     1       3.504   8.062  16.797  0.00  0.00    +0.000 A 
ATOM      9  C   UNL     1       2.716   7.805  17.908  0.00  0.00    +0.000 A 
ATOM     10 CL   UNL     1       1.311   8.751  18.200  0.00  0.00    +0.000 Cl
ATOM     11  C   UNL     1       3.053   6.775  18.783  0.00  0.00    +0.000 A 
ATOM     12  C   UNL     1       4.147   5.929  18.513  0.00  0.00    +0.000 A 
ATOM     13  C   UNL     1       4.328   4.733  19.415  0.00  0.00    +0.000 C 
ATOM     14  N   UNL     1       5.469   4.289  19.806  0.00  0.00    +0.000 NA
ATOM     15  C   UNL     1       6.706   4.965  19.456  0.00  0.00    +0.000 C 
ENDROOT
BRANCH  13  16
ATOM     16  C   UNL     1       3.103   3.981  19.882  0.00  0.00    +0.000 A 
ATOM     17  C   UNL     1       2.779   4.003  21.252  0.00  0.00    +0.000 A 
ATOM     18  C   UNL     1       1.694   3.275  21.747  0.00  0.00    +0.000 A 
ATOM     19  C   UNL     1       0.885   2.556  20.875  0.00  0.00    +0.000 A 
ATOM     20  C   UNL     1       1.162   2.561  19.508  0.00  0.00    +0.000 A 
ATOM     21  C   UNL     1       2.271   3.258  19.007  0.00  0.00    +0.000 A 
ATOM     22 CL   UNL     1       2.555   3.090  17.308  0.00  0.00    +0.000 Cl
ENDBRANCH  13  16
BRANCH   1  23
ATOM     23  C   UNL     1       6.088   5.232  14.486  0.00  0.00    +0.000 C 
BRANCH  23  24
ATOM     24  C   UNL     1       7.054   4.759  13.396  0.00  0.00    +0.000 C 
BRANCH  24  25
ATOM     25  N   UNL     1       8.166   5.700  13.249  0.00  0.00    +0.000 NA
ATOM     26  H   UNL     1       8.155   6.087  12.304  0.00  0.00    +0.000 HD
ATOM     27  H   UNL     1       9.050   5.192  13.323  0.00  0.00    +0.000 HD
ENDBRANCH  24  25
ENDBRANCH  23  24
ENDBRANCH   1  23
TORSDOF 4
ENDMDL
MODEL 2
REMARK VINA RESULT:      -6.6      1.245      1.593
REMARK  Name = 
REMARK  4 active torsions:
REMARK  status: ('A' for Active; 'I' for Inactive)
REMARK    1  A    between atoms: N_1  and  C_2
REMARK    2  A    between atoms: C_2  and  C_3
REMARK    3  A    between atoms: C_3  and  C_4
REMARK    4  A    between atoms: C_16  and  C_17
REMARK                            x       y       z     vdW  Elec       q    Type
REMARK                         _______ _______ _______ _____ _____    ______ ____
ROOT
ATOM      1  C   UNL     1       6.782   5.246  15.825  0.00  0.00    +0.000 A 
ATOM      2  N   UNL     1       7.888   4.559  16.039  0.00  0.00    +0.000 NA
ATOM      3  N   UNL     1       7.933   4.210  17.356  0.00  0.00    +0.000 NA
ATOM      4  C   UNL     1       6.854   4.686  17.933  0.00  0.00    +0.000 A 
ATOM      5  N   UNL     1       6.101   5.400  17.029  0.00  0.00    +0.000 N 
ATOM      6  C   UNL     1       4.937   6.152  17.345  0.00  0.00    +0.000 A 
ATOM      7  C   UNL     1       4.710   7.367  16.676  0.00  0.00    +0.000 A 
ATOM      8  C   UNL     1       3.579   8.137  16.949  0.00  0.00    +0.000 A 
ATOM      9  C   UNL     1       2.692   7.732  17.934  0.00  0.00    +0.000 A 
ATOM     10 CL   UNL     1       1.277   8.658  18.246  0.00  0.00    +0.000 Cl
ATOM     11  C   UNL     1       2.935   6.570  18.662  0.00  0.00    +0.000 A 
ATOM     12  C   UNL     1       4.038   5.747  18.359  0.00  0.00    +0.000 A 
ATOM     13  C   UNL     1       4.122   4.422  19.076  0.00  0.00    +0.000 C 
ATOM     14  N   UNL     1       5.218   3.892  19.491  0.00  0.00    +0.000 NA
ATOM     15  C   UNL     1       6.489   4.582  19.359  0.00  0.00    +0.000 C 
ENDROOT
BRANCH  13  16
ATOM     16  C   UNL     1       2.850   3.640  19.311  0.00  0.00    +0.000 A 
ATOM     17  C   UNL     1       2.368   2.810  18.280  0.00  0.00    +0.000 A 
ATOM     18  C   UNL     1       1.165   2.114  18.421  0.00  0.00    +0.000 A 
ATOM     19  C   UNL     1       0.452   2.193  19.612  0.00  0.00    +0.000 A 
ATOM     20  C   UNL     1       0.938   2.972  20.660  0.00  0.00    +0.000 A 
ATOM     21  C   UNL     1       2.125   3.705  20.515  0.00  0.00    +0.000 A 
ATOM     22 CL   UNL     1       2.553   4.710  21.858  0.00  0.00    +0.000 Cl
ENDBRANCH  13  16
BRANCH   1  23
ATOM     23  C   UNL     1       6.325   5.630  14.458  0.00  0.00    +0.000 C 
BRANCH  23  24
ATOM     24  C   UNL     1       6.869   4.677  13.390  0.00  0.00    +0.000 C 
BRANCH  24  25
ATOM     25  N   UNL     1       6.291   3.341  13.549  0.00  0.00    +0.000 NA
ATOM     26  H   UNL     1       6.157   3.149  14.542  0.00  0.00    +0.000 HD
ATOM     27  H   UNL     1       6.964   2.643  13.226  0.00  0.00    +0.000 HD
ENDBRANCH  24  25
ENDBRANCH  23  24
ENDBRANCH   1  23
TORSDOF 4
ENDMDL
MODEL 3
REMARK VINA RESULT:      -6.5      9.614     11.387
REMARK  Name = 
REMARK  4 active torsions:
REMARK  status: ('A' for Active; 'I' for Inactive)
REMARK    1  A    between atoms: N_1  and  C_2
REMARK    2  A    between atoms: C_2  and  C_3
REMARK    3  A    between atoms: C_3  and  C_4
REMARK    4  A    between atoms: C_16  and  C_17
REMARK                            x       y       z     vdW  Elec       q    Type
REMARK                         _______ _______ _______ _____ _____    ______ ____
ROOT
ATOM      1  C   UNL     1       5.018  15.984  19.544  0.00  0.00    +0.000 A 
ATOM      2  N   UNL     1       5.067  17.115  18.866  0.00  0.00    +0.000 NA
ATOM      3  N   UNL     1       6.337  17.606  18.934  0.00  0.00    +0.000 NA
ATOM      4  C   UNL     1       7.051  16.770  19.653  0.00  0.00    +0.000 A 
ATOM      5  N   UNL     1       6.264  15.740  20.116  0.00  0.00    +0.000 N 
ATOM      6  C   UNL     1       6.685  14.731  21.023  0.00  0.00    +0.000 A 
ATOM      7  C   UNL     1       5.778  14.262  21.988  0.00  0.00    +0.000 A 
ATOM      8  C   UNL     1       6.145  13.269  22.897  0.00  0.00    +0.000 A 
ATOM      9  C   UNL     1       7.439  12.772  22.888  0.00  0.00    +0.000 A 
ATOM     10 CL   UNL     1       7.883  11.521  23.980  0.00  0.00    +0.000 Cl
ATOM     11  C   UNL     1       8.377  13.274  21.990  0.00  0.00    +0.000 A 
ATOM     12  C   UNL     1       8.009  14.232  21.025  0.00  0.00    +0.000 A 
ATOM     13  C   UNL     1       9.040  14.584  19.980  0.00  0.00    +0.000 C 
ATOM     14  N   UNL     1       9.222  15.769  19.514  0.00  0.00    +0.000 NA
ATOM     15  C   UNL     1       8.474  16.905  20.022  0.00  0.00    +0.000 C 
ENDROOT
BRANCH  13  16
ATOM     16  C   UNL     1       9.910  13.484  19.417  0.00  0.00    +0.000 A 
ATOM     17  C   UNL     1      11.165  13.246  20.010  0.00  0.00    +0.000 A 
ATOM     18  C   UNL     1      12.035  12.284  19.490  0.00  0.00    +0.000 A 
ATOM     19  C   UNL     1      11.645  11.509  18.404  0.00  0.00    +0.000 A 
ATOM     20  C   UNL     1      10.386  11.698  17.834  0.00  0.00    +0.000 A 
ATOM     21  C   UNL     1       9.521  12.687  18.324  0.00  0.00    +0.000 A 
ATOM     22 CL   UNL     1       8.038  12.882  17.454  0.00  0.00    +0.000 Cl
ENDBRANCH  13  16
BRANCH   1  23
ATOM     23  C   UNL     1       3.826  15.087  19.527  0.00  0.00    +0.000 C 
BRANCH  23  24
ATOM     24  C   UNL     1       3.707  14.328  18.203  0.00  0.00    +0.000 C 
BRANCH  24  25
ATOM     25  N   UNL     1       3.710  15.259  17.073  0.00  0.00    +0.000 NA
ATOM     26  H   UNL     1       3.826  14.733  16.206  0.00  0.00    +0.000 HD
ATOM     27  H   UNL     1       4.533  15.862  17.136  0.00  0.00    +0.000 HD
ENDBRANCH  24  25
ENDBRANCH  23  24
ENDBRANCH   1  23
TORSDOF 4
ENDMDL
MODEL 4
REMARK VINA RESULT:      -6.5      1.217      1.291
REMARK  Name = 
REMARK  4 active torsions:
REMARK  status: ('A' for Active; 'I' for Inactive)
REMARK    1  A    between atoms: N_1  and  C_2
REMARK    2  A    between atoms: C_2  and  C_3
REMARK    3  A    between atoms: C_3  and  C_4
REMARK    4  A    between atoms: C_16  and  C_17
REMARK                            x       y       z     vdW  Elec       q    Type
REMARK                         _______ _______ _______ _____ _____    ______ ____
ROOT
ATOM      1  C   UNL     1       6.583   5.179  15.768  0.00  0.00    +0.000 A 
ATOM      2  N   UNL     1       7.741   4.569  15.930  0.00  0.00    +0.000 NA
ATOM      3  N   UNL     1       7.996   4.470  17.266  0.00  0.00    +0.000 NA
ATOM      4  C   UNL     1       6.991   5.020  17.906  0.00  0.00    +0.000 A 
ATOM      5  N   UNL     1       6.078   5.537  17.015  0.00  0.00    +0.000 N 
ATOM      6  C   UNL     1       4.937   6.309  17.365  0.00  0.00    +0.000 A 
ATOM      7  C   UNL     1       4.552   7.372  16.532  0.00  0.00    +0.000 A 
ATOM      8  C   UNL     1       3.437   8.154  16.832  0.00  0.00    +0.000 A 
ATOM      9  C   UNL     1       2.725   7.918  17.998  0.00  0.00    +0.000 A 
ATOM     10 CL   UNL     1       1.327   8.854  18.352  0.00  0.00    +0.000 Cl
ATOM     11  C   UNL     1       3.130   6.918  18.878  0.00  0.00    +0.000 A 
ATOM     12  C   UNL     1       4.217   6.078  18.562  0.00  0.00    +0.000 A 
ATOM     13  C   UNL     1       4.472   4.911  19.483  0.00  0.00    +0.000 C 
ATOM     14  N   UNL     1       5.642   4.492  19.814  0.00  0.00    +0.000 NA
ATOM     15  C   UNL     1       6.844   5.174  19.367  0.00  0.00    +0.000 C 
ENDROOT
BRANCH  13  16
ATOM     16  C   UNL     1       3.289   4.157  20.047  0.00  0.00    +0.000 A 
ATOM     17  C   UNL     1       2.055   4.825  20.161  0.00  0.00    +0.000 A 
ATOM     18  C   UNL     1       0.947   4.196  20.733  0.00  0.00    +0.000 A 
ATOM     19  C   UNL     1       1.038   2.874  21.151  0.00  0.00    +0.000 A 
ATOM     20  C   UNL     1       2.239   2.181  21.002  0.00  0.00    +0.000 A 
ATOM     21  C   UNL     1       3.368   2.815  20.464  0.00  0.00    +0.000 A 
ATOM     22 CL   UNL     1       4.816   1.868  20.437  0.00  0.00    +0.000 Cl
ENDBRANCH  13  16
BRANCH   1  23
ATOM     23  C   UNL     1       5.911   5.292  14.441  0.00  0.00    +0.000 C 
BRANCH  23  24
ATOM     24  C   UNL     1       5.418   3.934  13.938  0.00  0.00    +0.000 C 
BRANCH  24  25
ATOM     25  N   UNL     1       6.458   3.265  13.153  0.00  0.00    +0.000 NA
ATOM     26  H   UNL     1       6.087   3.033  12.232  0.00  0.00    +0.000 HD
ATOM     27  H   UNL     1       6.684   2.368  13.589  0.00  0.00    +0.000 HD
ENDBRANCH  24  25
ENDBRANCH  23  24
ENDBRANCH   1  23
TORSDOF 4
ENDMDL
MODEL 5
REMARK VINA RESULT:      -6.5      7.323     10.174
REMARK  Name = 
REMARK  4 active torsions:
REMARK  status: ('A' for Active; 'I' for Inactive)
REMARK    1  A    between atoms: N_1  and  C_2
REMARK    2  A    between atoms: C_2  and  C_3
REMARK    3  A    between atoms: C_3  and  C_4
REMARK    4  A    between atoms: C_16  and  C_17
REMARK                            x       y       z     vdW  Elec       q    Type
REMARK                         _______ _______ _______ _____ _____    ______ ____
ROOT
ATOM      1  C   UNL     1      -3.098  13.041  20.633  0.00  0.00    +0.000 A 
ATOM      2  N   UNL     1      -4.298  12.625  20.275  0.00  0.00    +0.000 NA
ATOM      3  N   UNL     1      -4.186  11.936  19.104  0.00  0.00    +0.000 NA
ATOM      4  C   UNL     1      -2.919  11.937  18.759  0.00  0.00    +0.000 A 
ATOM      5  N   UNL     1      -2.176  12.664  19.660  0.00  0.00    +0.000 N 
ATOM      6  C   UNL     1      -0.796  12.974  19.524  0.00  0.00    +0.000 A 
ATOM      7  C   UNL     1      -0.334  14.230  19.953  0.00  0.00    +0.000 A 
ATOM      8  C   UNL     1       1.013  14.576  19.843  0.00  0.00    +0.000 A 
ATOM      9  C   UNL     1       1.905  13.695  19.253  0.00  0.00    +0.000 A 
ATOM     10 CL   UNL     1       3.572  14.102  19.152  0.00  0.00    +0.000 Cl
ATOM     11  C   UNL     1       1.458  12.474  18.753  0.00  0.00    +0.000 A 
ATOM     12  C   UNL     1       0.114  12.081  18.909  0.00  0.00    +0.000 A 
ATOM     13  C   UNL     1      -0.240  10.672  18.500  0.00  0.00    +0.000 C 
ATOM     14  N   UNL     1      -1.341  10.342  17.922  0.00  0.00    +0.000 NA
ATOM     15  C   UNL     1      -2.327  11.339  17.546  0.00  0.00    +0.000 C 
ENDROOT
BRANCH  13  16
ATOM     16  C   UNL     1       0.738   9.559  18.799  0.00  0.00    +0.000 A 
ATOM     17  C   UNL     1       1.534   9.061  17.750  0.00  0.00    +0.000 A 
ATOM     18  C   UNL     1       2.409   7.992  17.957  0.00  0.00    +0.000 A 
ATOM     19  C   UNL     1       2.543   7.439  19.225  0.00  0.00    +0.000 A 
ATOM     20  C   UNL     1       1.798   7.951  20.286  0.00  0.00    +0.000 A 
ATOM     21  C   UNL     1       0.888   8.999  20.081  0.00  0.00    +0.000 A 
ATOM     22 CL   UNL     1      -0.044   9.462  21.464  0.00  0.00    +0.000 Cl
ENDBRANCH  13  16
BRANCH   1  23
ATOM     23  C   UNL     1      -2.827  13.672  21.957  0.00  0.00    +0.000 C 
BRANCH  23  24
ATOM     24  C   UNL     1      -2.805  12.636  23.084  0.00  0.00    +0.000 C 
BRANCH  24  25
ATOM     25  N   UNL     1      -4.167  12.226  23.435  0.00  0.00    +0.000 NA
ATOM     26  H   UNL     1      -4.560  12.897  24.096  0.00  0.00    +0.000 HD
ATOM     27  H   UNL     1      -4.132  11.337  23.939  0.00  0.00    +0.000 HD
ENDBRANCH  24  25
ENDBRANCH  23  24
ENDBRANCH   1  23
TORSDOF 4
ENDMDL
MODEL 6
REMARK VINA RESULT:      -6.2      7.798     10.666
REMARK  Name = 
REMARK  4 active torsions:
REMARK  status: ('A' for Active; 'I' for Inactive)
REMARK    1  A    between atoms: N_1  and  C_2
REMARK    2  A    between atoms: C_2  and  C_3
REMARK    3  A    between atoms: C_3  and  C_4
REMARK    4  A    between atoms: C_16  and  C_17
REMARK                            x       y       z     vdW  Elec       q    Type
REMARK                         _______ _______ _______ _____ _____    ______ ____
ROOT
ATOM      1  C   UNL     1      -3.320  12.937  21.640  0.00  0.00    +0.000 A 
ATOM      2  N   UNL     1      -4.485  12.685  21.075  0.00  0.00    +0.000 NA
ATOM      3  N   UNL     1      -4.266  12.287  19.790  0.00  0.00    +0.000 NA
ATOM      4  C   UNL     1      -2.970  12.298  19.583  0.00  0.00    +0.000 A 
ATOM      5  N   UNL     1      -2.308  12.749  20.702  0.00  0.00    +0.000 N 
ATOM      6  C   UNL     1      -0.912  13.004  20.783  0.00  0.00    +0.000 A 
ATOM      7  C   UNL     1      -0.462  14.095  21.545  0.00  0.00    +0.000 A 
ATOM      8  C   UNL     1       0.898  14.381  21.657  0.00  0.00    +0.000 A 
ATOM      9  C   UNL     1       1.822  13.615  20.964  0.00  0.00    +0.000 A 
ATOM     10 CL   UNL     1       3.502  13.941  21.130  0.00  0.00    +0.000 Cl
ATOM     11  C   UNL     1       1.395  12.575  20.142  0.00  0.00    +0.000 A 
ATOM     12  C   UNL     1       0.031  12.232  20.065  0.00  0.00    +0.000 A 
ATOM     13  C   UNL     1      -0.319  10.982  19.295  0.00  0.00    +0.000 C 
ATOM     14  N   UNL     1      -1.359  10.859  18.548  0.00  0.00    +0.000 NA
ATOM     15  C   UNL     1      -2.266  11.971  18.327  0.00  0.00    +0.000 C 
ENDROOT
BRANCH  13  16
ATOM     16  C   UNL     1       0.586   9.777  19.413  0.00  0.00    +0.000 A 
ATOM     17  C   UNL     1       1.335   9.383  18.288  0.00  0.00    +0.000 A 
ATOM     18  C   UNL     1       2.139   8.240  18.323  0.00  0.00    +0.000 A 
ATOM     19  C   UNL     1       2.249   7.504  19.497  0.00  0.00    +0.000 A 
ATOM     20  C   UNL     1       1.552   7.907  20.635  0.00  0.00    +0.000 A 
ATOM     21  C   UNL     1       0.712   9.030  20.599  0.00  0.00    +0.000 A 
ATOM     22 CL   UNL     1      -0.172   9.351  22.052  0.00  0.00    +0.000 Cl
ENDBRANCH  13  16
BRANCH   1  23
ATOM     23  C   UNL     1      -3.177  13.220  23.098  0.00  0.00    +0.000 C 
BRANCH  23  24
ATOM     24  C   UNL     1      -4.537  13.294  23.797  0.00  0.00    +0.000 C 
BRANCH  24  25
ATOM     25  N   UNL     1      -4.549  12.450  24.993  0.00  0.00    +0.000 NA
ATOM     26  H   UNL     1      -3.606  12.405  25.382  0.00  0.00    +0.000 HD
ATOM     27  H   UNL     1      -4.778  11.491  24.727  0.00  0.00    +0.000 HD
ENDBRANCH  24  25
ENDBRANCH  23  24
ENDBRANCH   1  23
TORSDOF 4
ENDMDL
MODEL 7
REMARK VINA RESULT:      -6.1      8.748     10.656
REMARK  Name = 
REMARK  4 active torsions:
REMARK  status: ('A' for Active; 'I' for Inactive)
REMARK    1  A    between atoms: N_1  and  C_2
REMARK    2  A    between atoms: C_2  and  C_3
REMARK    3  A    between atoms: C_3  and  C_4
REMARK    4  A    between atoms: C_16  and  C_17
REMARK                            x       y       z     vdW  Elec       q    Type
REMARK                         _______ _______ _______ _____ _____    ______ ____
ROOT
ATOM      1  C   UNL     1       0.769  11.998  19.856  0.00  0.00    +0.000 A 
ATOM      2  N   UNL     1       1.024  10.727  19.610  0.00  0.00    +0.000 NA
ATOM      3  N   UNL     1       0.639   9.991  20.692  0.00  0.00    +0.000 NA
ATOM      4  C   UNL     1       0.152  10.820  21.586  0.00  0.00    +0.000 A 
ATOM      5  N   UNL     1       0.249  12.119  21.142  0.00  0.00    +0.000 N 
ATOM      6  C   UNL     1      -0.068  13.273  21.907  0.00  0.00    +0.000 A 
ATOM      7  C   UNL     1       0.718  14.428  21.755  0.00  0.00    +0.000 A 
ATOM      8  C   UNL     1       0.442  15.586  22.482  0.00  0.00    +0.000 A 
ATOM      9  C   UNL     1      -0.587  15.587  23.410  0.00  0.00    +0.000 A 
ATOM     10 CL   UNL     1      -0.955  17.024  24.279  0.00  0.00    +0.000 Cl
ATOM     11  C   UNL     1      -1.333  14.432  23.632  0.00  0.00    +0.000 A 
ATOM     12  C   UNL     1      -1.109  13.272  22.865  0.00  0.00    +0.000 A 
ATOM     13  C   UNL     1      -2.080  12.131  23.048  0.00  0.00    +0.000 C 
ATOM     14  N   UNL     1      -1.746  10.890  23.044  0.00  0.00    +0.000 NA
ATOM     15  C   UNL     1      -0.358  10.480  22.929  0.00  0.00    +0.000 C 
ENDROOT
BRANCH  13  16
ATOM     16  C   UNL     1      -3.548  12.446  23.227  0.00  0.00    +0.000 A 
ATOM     17  C   UNL     1      -4.116  12.311  24.509  0.00  0.00    +0.000 A 
ATOM     18  C   UNL     1      -5.480  12.528  24.717  0.00  0.00    +0.000 A 
ATOM     19  C   UNL     1      -6.288  12.935  23.662  0.00  0.00    +0.000 A 
ATOM     20  C   UNL     1      -5.733  13.120  22.396  0.00  0.00    +0.000 A 
ATOM     21  C   UNL     1      -4.373  12.868  22.168  0.00  0.00    +0.000 A 
ATOM     22 CL   UNL     1      -3.845  13.037  20.528  0.00  0.00    +0.000 Cl
ENDBRANCH  13  16
BRANCH   1  23
ATOM     23  C   UNL     1       0.897  13.060  18.815  0.00  0.00    +0.000 C 
BRANCH  23  24
ATOM     24  C   UNL     1       2.342  13.210  18.335  0.00  0.00    +0.000 C 
BRANCH  24  25
ATOM     25  N   UNL     1       2.723  12.081  17.483  0.00  0.00    +0.000 NA
ATOM     26  H   UNL     1       2.640  12.356  16.504  0.00  0.00    +0.000 HD
ATOM     27  H   UNL     1       2.051  11.322  17.610  0.00  0.00    +0.000 HD
ENDBRANCH  24  25
ENDBRANCH  23  24
ENDBRANCH   1  23
TORSDOF 4
ENDMDL
MODEL 8
REMARK VINA RESULT:      -6.1      8.219     10.793
REMARK  Name = 
REMARK  4 active torsions:
REMARK  status: ('A' for Active; 'I' for Inactive)
REMARK    1  A    between atoms: N_1  and  C_2
REMARK    2  A    between atoms: C_2  and  C_3
REMARK    3  A    between atoms: C_3  and  C_4
REMARK    4  A    between atoms: C_16  and  C_17
REMARK                            x       y       z     vdW  Elec       q    Type
REMARK                         _______ _______ _______ _____ _____    ______ ____
ROOT
ATOM      1  C   UNL     1      -5.331  11.792  19.054  0.00  0.00    +0.000 A 
ATOM      2  N   UNL     1      -5.843  11.309  17.937  0.00  0.00    +0.000 NA
ATOM      3  N   UNL     1      -4.824  11.067  17.064  0.00  0.00    +0.000 NA
ATOM      4  C   UNL     1      -3.701  11.402  17.657  0.00  0.00    +0.000 A 
ATOM      5  N   UNL     1      -3.953  11.919  18.908  0.00  0.00    +0.000 N 
ATOM      6  C   UNL     1      -2.980  12.494  19.768  0.00  0.00    +0.000 A 
ATOM      7  C   UNL     1      -3.335  13.605  20.552  0.00  0.00    +0.000 A 
ATOM      8  C   UNL     1      -2.415  14.200  21.415  0.00  0.00    +0.000 A 
ATOM      9  C   UNL     1      -1.113  13.728  21.464  0.00  0.00    +0.000 A 
ATOM     10 CL   UNL     1       0.013  14.434  22.555  0.00  0.00    +0.000 Cl
ATOM     11  C   UNL     1      -0.716  12.676  20.642  0.00  0.00    +0.000 A 
ATOM     12  C   UNL     1      -1.646  12.023  19.809  0.00  0.00    +0.000 A 
ATOM     13  C   UNL     1      -1.171  10.783  19.092  0.00  0.00    +0.000 C 
ATOM     14  N   UNL     1      -1.508  10.468  17.892  0.00  0.00    +0.000 NA
ATOM     15  C   UNL     1      -2.341  11.343  17.085  0.00  0.00    +0.000 C 
ENDROOT
BRANCH  13  16
ATOM     16  C   UNL     1      -0.258   9.824  19.822  0.00  0.00    +0.000 A 
ATOM     17  C   UNL     1      -0.655   9.343  21.084  0.00  0.00    +0.000 A 
ATOM     18  C   UNL     1       0.178   8.505  21.829  0.00  0.00    +0.000 A 
ATOM     19  C   UNL     1       1.397   8.092  21.303  0.00  0.00    +0.000 A 
ATOM     20  C   UNL     1       1.785   8.520  20.034  0.00  0.00    +0.000 A 
ATOM     21  C   UNL     1       0.973   9.392  19.295  0.00  0.00    +0.000 A 
ATOM     22 CL   UNL     1       1.628   9.925  17.784  0.00  0.00    +0.000 Cl
ENDBRANCH  13  16
BRANCH   1  23
ATOM     23  C   UNL     1      -6.145  11.998  20.288  0.00  0.00    +0.000 C 
BRANCH  23  24
ATOM     24  C   UNL     1      -7.568  11.457  20.125  0.00  0.00    +0.000 C 
BRANCH  24  25
ATOM     25  N   UNL     1      -7.557   9.995  20.042  0.00  0.00    +0.000 NA
ATOM     26  H   UNL     1      -8.518   9.656  19.972  0.00  0.00    +0.000 HD
ATOM     27  H   UNL     1      -7.197   9.610  20.917  0.00  0.00    +0.000 HD
ENDBRANCH  24  25
ENDBRANCH  23  24
ENDBRANCH   1  23
TORSDOF 4
ENDMDL
MODEL 9
REMARK VINA RESULT:      -6.1      8.838     11.816
REMARK  Name = 
REMARK  4 active torsions:
REMARK  status: ('A' for Active; 'I' for Inactive)
REMARK    1  A    between atoms: N_1  and  C_2
REMARK    2  A    between atoms: C_2  and  C_3
REMARK    3  A    between atoms: C_3  and  C_4
REMARK    4  A    between atoms: C_16  and  C_17
REMARK                            x       y       z     vdW  Elec       q    Type
REMARK                         _______ _______ _______ _____ _____    ______ ____
ROOT
ATOM      1  C   UNL     1      -3.124  13.502  23.533  0.00  0.00    +0.000 A 
ATOM      2  N   UNL     1      -3.387  14.792  23.454  0.00  0.00    +0.000 NA
ATOM      3  N   UNL     1      -2.758  15.296  22.354  0.00  0.00    +0.000 NA
ATOM      4  C   UNL     1      -2.118  14.308  21.772  0.00  0.00    +0.000 A 
ATOM      5  N   UNL     1      -2.266  13.146  22.496  0.00  0.00    +0.000 N 
ATOM      6  C   UNL     1      -1.605  11.919  22.220  0.00  0.00    +0.000 A 
ATOM      7  C   UNL     1      -1.179  11.119  23.294  0.00  0.00    +0.000 A 
ATOM      8  C   UNL     1      -0.531   9.904  23.072  0.00  0.00    +0.000 A 
ATOM      9  C   UNL     1      -0.250   9.500  21.776  0.00  0.00    +0.000 A 
ATOM     10 CL   UNL     1       0.513   7.985  21.498  0.00  0.00    +0.000 Cl
ATOM     11  C   UNL     1      -0.596  10.311  20.698  0.00  0.00    +0.000 A 
ATOM     12  C   UNL     1      -1.305  11.512  20.899  0.00  0.00    +0.000 A 
ATOM     13  C   UNL     1      -1.794  12.233  19.667  0.00  0.00    +0.000 C 
ATOM     14  N   UNL     1      -1.807  13.512  19.534  0.00  0.00    +0.000 NA
ATOM     15  C   UNL     1      -1.272  14.384  20.565  0.00  0.00    +0.000 C 
ENDROOT
BRANCH  13  16
ATOM     16  C   UNL     1      -2.329  11.418  18.510  0.00  0.00    +0.000 A 
ATOM     17  C   UNL     1      -1.421  10.668  17.738  0.00  0.00    +0.000 A 
ATOM     18  C   UNL     1      -1.852   9.948  16.620  0.00  0.00    +0.000 A 
ATOM     19  C   UNL     1      -3.201   9.923  16.288  0.00  0.00    +0.000 A 
ATOM     20  C   UNL     1      -4.121  10.621  17.071  0.00  0.00    +0.000 A 
ATOM     21  C   UNL     1      -3.694  11.378  18.171  0.00  0.00    +0.000 A 
ATOM     22 CL   UNL     1      -4.928  12.277  18.986  0.00  0.00    +0.000 Cl
ENDBRANCH  13  16
BRANCH   1  23
ATOM     23  C   UNL     1      -3.799  12.602  24.513  0.00  0.00    +0.000 C 
BRANCH  23  24
ATOM     24  C   UNL     1      -5.318  12.603  24.330  0.00  0.00    +0.000 C 
BRANCH  24  25
ATOM     25  N   UNL     1      -5.667  12.532  22.910  0.00  0.00    +0.000 NA
ATOM     26  H   UNL     1      -6.125  13.401  22.632  0.00  0.00    +0.000 HD
ATOM     27  H   UNL     1      -6.367  11.801  22.770  0.00  0.00    +0.000 HD
ENDBRANCH  24  25
ENDBRANCH  23  24
ENDBRANCH   1  23
TORSDOF 4
ENDMDL
