MODEL 1
REMARK VINA RESULT:      -6.6      0.000      0.000
REMARK  Name = 
REMARK  17 active torsions:
REMARK  status: ('A' for Active; 'I' for Inactive)
REMARK    1  A    between atoms: C_1  and  C_2
REMARK    2  A    between atoms: C_2  and  C_3
REMARK    3  A    between atoms: C_3  and  C_4
REMARK    4  A    between atoms: C_4  and  C_5
REMARK    5  A    between atoms: C_5  and  C_6
REMARK    6  A    between atoms: C_6  and  C_7
REMARK    7  A    between atoms: C_7  and  C_8
REMARK    8  A    between atoms: C_8  and  C_9
REMARK    9  A    between atoms: C_9  and  C_10
REMARK   10  A    between atoms: C_10  and  C_11
REMARK   11  A    between atoms: C_11  and  C_12
REMARK   12  A    between atoms: C_12  and  C_13
REMARK   13  A    between atoms: C_13  and  C_14
REMARK   14  A    between atoms: C_14  and  N_15
REMARK   15  A    between atoms: C_16  and  C_18
REMARK   16  A    between atoms: C_19  and  O_20
REMARK   17  A    between atoms: C_22  and  C_23
REMARK                            x       y       z     vdW  Elec       q    Type
REMARK                         _______ _______ _______ _____ _____    ______ ____
ROOT
ATOM      1  C   UNL     1       4.383   2.199  20.474  0.00  0.00    +0.000 C 
ENDROOT
BRANCH   1   2
ATOM      2  N   UNL     1       4.840   2.679  19.189  0.00  0.00    +0.000 N 
ATOM      3  C   UNL     1       5.406   3.934  19.002  0.00  0.00    +0.000 C 
ATOM      4  O   UNL     1       5.561   4.748  19.909  0.00  0.00    +0.000 OA
ATOM      5  H   UNL     1       4.712   2.065  18.385  0.00  0.00    +0.000 HD
BRANCH   3   6
ATOM      6  C   UNL     1       5.807   4.275  17.593  0.00  0.00    +0.000 A 
ATOM      7  C   UNL     1       4.926   4.238  16.559  0.00  0.00    +0.000 A 
ATOM      8  C   UNL     1       5.372   4.426  15.207  0.00  0.00    +0.000 A 
ATOM      9  C   UNL     1       6.666   4.657  14.954  0.00  0.00    +0.000 A 
ATOM     10  C   UNL     1       7.277   4.770  13.595  0.00  0.00    +0.000 C 
ATOM     11  O   UNL     1       7.601   4.797  16.001  0.00  0.00    +0.000 OA
ATOM     12  C   UNL     1       7.201   4.664  17.292  0.00  0.00    +0.000 A 
ATOM     13  O   UNL     1       7.975   4.823  18.239  0.00  0.00    +0.000 OA
BRANCH   7  14
ATOM     14  O   UNL     1       3.579   3.977  16.630  0.00  0.00    +0.000 OA
ATOM     15  H   UNL     1       3.407   3.039  16.842  0.00  0.00    +0.000 HD
ENDBRANCH   7  14
ENDBRANCH   3   6
ENDBRANCH   1   2
BRANCH   1  16
ATOM     16  C   UNL     1       2.970   2.680  20.782  0.00  0.00    +0.000 C 
BRANCH  16  17
ATOM     17  C   UNL     1       2.107   2.645  19.526  0.00  0.00    +0.000 C 
BRANCH  17  18
ATOM     18  C   UNL     1       1.381   3.969  19.336  0.00  0.00    +0.000 C 
BRANCH  18  19
ATOM     19  C   UNL     1       1.604   4.871  20.538  0.00  0.00    +0.000 C 
BRANCH  19  20
ATOM     20  C   UNL     1       2.327   6.140  20.114  0.00  0.00    +0.000 C 
BRANCH  20  21
ATOM     21  C   UNL     1       2.289   6.281  18.603  0.00  0.00    +0.000 C 
BRANCH  21  22
ATOM     22  C   UNL     1       2.930   7.593  18.189  0.00  0.00    +0.000 C 
BRANCH  22  23
ATOM     23  C   UNL     1       1.899   8.481  17.516  0.00  0.00    +0.000 C 
BRANCH  23  24
ATOM     24  C   UNL     1       1.812   9.814  18.237  0.00  0.00    +0.000 C 
BRANCH  24  25
ATOM     25  C   UNL     1       0.727   9.761  19.298  0.00  0.00    +0.000 C 
BRANCH  25  26
ATOM     26  C   UNL     1      -0.574  10.318  18.742  0.00  0.00    +0.000 C 
BRANCH  26  28
ATOM     27  C   UNL     1      -1.420  12.635  19.093  0.00  0.00    +0.000 C 
ATOM     28  C   UNL     1      -1.208  11.280  19.738  0.00  0.00    +0.000 C 
ENDBRANCH  26  28
ENDBRANCH  25  26
ENDBRANCH  24  25
ENDBRANCH  23  24
ENDBRANCH  22  23
ENDBRANCH  21  22
ENDBRANCH  20  21
ENDBRANCH  19  20
ENDBRANCH  18  19
ENDBRANCH  17  18
ENDBRANCH  16  17
ENDBRANCH   1  16
TORSDOF 15
ENDMDL
MODEL 2
REMARK VINA RESULT:      -6.3      2.364      3.649
REMARK  Name = 
REMARK  17 active torsions:
REMARK  status: ('A' for Active; 'I' for Inactive)
REMARK    1  A    between atoms: C_1  and  C_2
REMARK    2  A    between atoms: C_2  and  C_3
REMARK    3  A    between atoms: C_3  and  C_4
REMARK    4  A    between atoms: C_4  and  C_5
REMARK    5  A    between atoms: C_5  and  C_6
REMARK    6  A    between atoms: C_6  and  C_7
REMARK    7  A    between atoms: C_7  and  C_8
REMARK    8  A    between atoms: C_8  and  C_9
REMARK    9  A    between atoms: C_9  and  C_10
REMARK   10  A    between atoms: C_10  and  C_11
REMARK   11  A    between atoms: C_11  and  C_12
REMARK   12  A    between atoms: C_12  and  C_13
REMARK   13  A    between atoms: C_13  and  C_14
REMARK   14  A    between atoms: C_14  and  N_15
REMARK   15  A    between atoms: C_16  and  C_18
REMARK   16  A    between atoms: C_19  and  O_20
REMARK   17  A    between atoms: C_22  and  C_23
REMARK                            x       y       z     vdW  Elec       q    Type
REMARK                         _______ _______ _______ _____ _____    ______ ____
ROOT
ATOM      1  C   UNL     1       4.813   3.087  19.180  0.00  0.00    +0.000 C 
ENDROOT
BRANCH   1   2
ATOM      2  N   UNL     1       5.567   4.314  19.047  0.00  0.00    +0.000 N 
ATOM      3  C   UNL     1       6.226   4.680  17.879  0.00  0.00    +0.000 C 
ATOM      4  O   UNL     1       6.231   3.992  16.861  0.00  0.00    +0.000 OA
ATOM      5  H   UNL     1       5.631   4.918  19.865  0.00  0.00    +0.000 HD
BRANCH   3   6
ATOM      6  C   UNL     1       6.978   5.981  17.925  0.00  0.00    +0.000 A 
ATOM      7  C   UNL     1       7.925   6.239  18.865  0.00  0.00    +0.000 A 
ATOM      8  C   UNL     1       8.519   7.542  18.971  0.00  0.00    +0.000 A 
ATOM      9  C   UNL     1       8.155   8.516  18.128  0.00  0.00    +0.000 A 
ATOM     10  C   UNL     1       8.617   9.935  18.190  0.00  0.00    +0.000 C 
ATOM     11  O   UNL     1       7.246   8.270  17.077  0.00  0.00    +0.000 OA
ATOM     12  C   UNL     1       6.697   7.036  16.928  0.00  0.00    +0.000 A 
ATOM     13  O   UNL     1       5.934   6.765  15.997  0.00  0.00    +0.000 OA
BRANCH   7  14
ATOM     14  O   UNL     1       8.388   5.377  19.829  0.00  0.00    +0.000 OA
ATOM     15  H   UNL     1       7.698   5.179  20.493  0.00  0.00    +0.000 HD
ENDBRANCH   7  14
ENDBRANCH   3   6
ENDBRANCH   1   2
BRANCH   1  16
ATOM     16  C   UNL     1       3.755   2.959  18.091  0.00  0.00    +0.000 C 
BRANCH  16  17
ATOM     17  C   UNL     1       2.697   1.936  18.490  0.00  0.00    +0.000 C 
BRANCH  17  18
ATOM     18  C   UNL     1       1.307   2.554  18.440  0.00  0.00    +0.000 C 
BRANCH  18  19
ATOM     19  C   UNL     1       0.796   2.817  19.847  0.00  0.00    +0.000 C 
BRANCH  19  20
ATOM     20  C   UNL     1       1.937   2.718  20.847  0.00  0.00    +0.000 C 
BRANCH  20  21
ATOM     21  C   UNL     1       2.102   4.036  21.582  0.00  0.00    +0.000 C 
BRANCH  21  22
ATOM     22  C   UNL     1       1.503   5.165  20.763  0.00  0.00    +0.000 C 
BRANCH  22  23
ATOM     23  C   UNL     1       2.610   5.968  20.103  0.00  0.00    +0.000 C 
BRANCH  23  24
ATOM     24  C   UNL     1       2.098   7.346  19.725  0.00  0.00    +0.000 C 
BRANCH  24  25
ATOM     25  C   UNL     1       1.347   7.959  20.895  0.00  0.00    +0.000 C 
BRANCH  25  26
ATOM     26  C   UNL     1       0.717   9.278  20.476  0.00  0.00    +0.000 C 
BRANCH  26  28
ATOM     27  C   UNL     1      -0.111   9.436  22.822  0.00  0.00    +0.000 C 
ATOM     28  C   UNL     1       0.546  10.191  21.683  0.00  0.00    +0.000 C 
ENDBRANCH  26  28
ENDBRANCH  25  26
ENDBRANCH  24  25
ENDBRANCH  23  24
ENDBRANCH  22  23
ENDBRANCH  21  22
ENDBRANCH  20  21
ENDBRANCH  19  20
ENDBRANCH  18  19
ENDBRANCH  17  18
ENDBRANCH  16  17
ENDBRANCH   1  16
TORSDOF 15
ENDMDL
MODEL 3
REMARK VINA RESULT:      -6.2      6.241      7.863
REMARK  Name = 
REMARK  17 active torsions:
REMARK  status: ('A' for Active; 'I' for Inactive)
REMARK    1  A    between atoms: C_1  and  C_2
REMARK    2  A    between atoms: C_2  and  C_3
REMARK    3  A    between atoms: C_3  and  C_4
REMARK    4  A    between atoms: C_4  and  C_5
REMARK    5  A    between atoms: C_5  and  C_6
REMARK    6  A    between atoms: C_6  and  C_7
REMARK    7  A    between atoms: C_7  and  C_8
REMARK    8  A    between atoms: C_8  and  C_9
REMARK    9  A    between atoms: C_9  and  C_10
REMARK   10  A    between atoms: C_10  and  C_11
REMARK   11  A    between atoms: C_11  and  C_12
REMARK   12  A    between atoms: C_12  and  C_13
REMARK   13  A    between atoms: C_13  and  C_14
REMARK   14  A    between atoms: C_14  and  N_15
REMARK   15  A    between atoms: C_16  and  C_18
REMARK   16  A    between atoms: C_19  and  O_20
REMARK   17  A    between atoms: C_22  and  C_23
REMARK                            x       y       z     vdW  Elec       q    Type
REMARK                         _______ _______ _______ _____ _____    ______ ____
ROOT
ATOM      1  C   UNL     1       7.988   8.602  17.494  0.00  0.00    +0.000 C 
ENDROOT
BRANCH   1   2
ATOM      2  N   UNL     1       7.188   7.459  17.872  0.00  0.00    +0.000 N 
ATOM      3  C   UNL     1       7.064   6.321  17.083  0.00  0.00    +0.000 C 
ATOM      4  O   UNL     1       7.618   6.190  15.994  0.00  0.00    +0.000 OA
ATOM      5  H   UNL     1       6.675   7.514  18.751  0.00  0.00    +0.000 HD
BRANCH   3   6
ATOM      6  C   UNL     1       6.175   5.236  17.624  0.00  0.00    +0.000 A 
ATOM      7  C   UNL     1       5.318   4.539  16.833  0.00  0.00    +0.000 A 
ATOM      8  C   UNL     1       4.380   3.613  17.404  0.00  0.00    +0.000 A 
ATOM      9  C   UNL     1       4.354   3.415  18.727  0.00  0.00    +0.000 A 
ATOM     10  C   UNL     1       3.370   2.560  19.457  0.00  0.00    +0.000 C 
ATOM     11  O   UNL     1       5.287   4.044  19.578  0.00  0.00    +0.000 OA
ATOM     12  C   UNL     1       6.211   4.895  19.062  0.00  0.00    +0.000 A 
ATOM     13  O   UNL     1       7.073   5.432  19.763  0.00  0.00    +0.000 OA
BRANCH   7  14
ATOM     14  O   UNL     1       5.180   4.644  15.470  0.00  0.00    +0.000 OA
ATOM     15  H   UNL     1       4.861   5.530  15.210  0.00  0.00    +0.000 HD
ENDBRANCH   7  14
ENDBRANCH   3   6
ENDBRANCH   1   2
BRANCH   1  16
ATOM     16  C   UNL     1       8.556   9.317  18.714  0.00  0.00    +0.000 C 
BRANCH  16  17
ATOM     17  C   UNL     1       9.115  10.681  18.324  0.00  0.00    +0.000 C 
BRANCH  17  18
ATOM     18  C   UNL     1      10.200  11.115  19.299  0.00  0.00    +0.000 C 
BRANCH  18  19
ATOM     19  C   UNL     1       9.587  11.486  20.640  0.00  0.00    +0.000 C 
BRANCH  19  20
ATOM     20  C   UNL     1      10.089  12.850  21.086  0.00  0.00    +0.000 C 
BRANCH  20  21
ATOM     21  C   UNL     1      11.294  13.259  20.257  0.00  0.00    +0.000 C 
BRANCH  21  22
ATOM     22  C   UNL     1      11.251  14.751  19.981  0.00  0.00    +0.000 C 
BRANCH  22  23
ATOM     23  C   UNL     1      11.685  15.025  18.553  0.00  0.00    +0.000 C 
BRANCH  23  24
ATOM     24  C   UNL     1      10.566  14.667  17.592  0.00  0.00    +0.000 C 
BRANCH  24  25
ATOM     25  C   UNL     1       9.263  15.298  18.054  0.00  0.00    +0.000 C 
BRANCH  25  26
ATOM     26  C   UNL     1       8.162  14.251  18.093  0.00  0.00    +0.000 C 
BRANCH  26  28
ATOM     27  C   UNL     1       5.701  14.563  17.851  0.00  0.00    +0.000 C 
ATOM     28  C   UNL     1       6.905  14.826  18.733  0.00  0.00    +0.000 C 
ENDBRANCH  26  28
ENDBRANCH  25  26
ENDBRANCH  24  25
ENDBRANCH  23  24
ENDBRANCH  22  23
ENDBRANCH  21  22
ENDBRANCH  20  21
ENDBRANCH  19  20
ENDBRANCH  18  19
ENDBRANCH  17  18
ENDBRANCH  16  17
ENDBRANCH   1  16
TORSDOF 15
ENDMDL
MODEL 4
REMARK VINA RESULT:      -6.2      2.308      3.066
REMARK  Name = 
REMARK  17 active torsions:
REMARK  status: ('A' for Active; 'I' for Inactive)
REMARK    1  A    between atoms: C_1  and  C_2
REMARK    2  A    between atoms: C_2  and  C_3
REMARK    3  A    between atoms: C_3  and  C_4
REMARK    4  A    between atoms: C_4  and  C_5
REMARK    5  A    between atoms: C_5  and  C_6
REMARK    6  A    between atoms: C_6  and  C_7
REMARK    7  A    between atoms: C_7  and  C_8
REMARK    8  A    between atoms: C_8  and  C_9
REMARK    9  A    between atoms: C_9  and  C_10
REMARK   10  A    between atoms: C_10  and  C_11
REMARK   11  A    between atoms: C_11  and  C_12
REMARK   12  A    between atoms: C_12  and  C_13
REMARK   13  A    between atoms: C_13  and  C_14
REMARK   14  A    between atoms: C_14  and  N_15
REMARK   15  A    between atoms: C_16  and  C_18
REMARK   16  A    between atoms: C_19  and  O_20
REMARK   17  A    between atoms: C_22  and  C_23
REMARK                            x       y       z     vdW  Elec       q    Type
REMARK                         _______ _______ _______ _____ _____    ______ ____
ROOT
ATOM      1  C   UNL     1       4.805   2.671  18.553  0.00  0.00    +0.000 C 
ENDROOT
BRANCH   1   2
ATOM      2  N   UNL     1       5.425   3.976  18.614  0.00  0.00    +0.000 N 
ATOM      3  C   UNL     1       6.176   4.513  17.575  0.00  0.00    +0.000 C 
ATOM      4  O   UNL     1       6.383   3.923  16.517  0.00  0.00    +0.000 OA
ATOM      5  H   UNL     1       5.319   4.507  19.478  0.00  0.00    +0.000 HD
BRANCH   3   6
ATOM      6  C   UNL     1       6.764   5.875  17.819  0.00  0.00    +0.000 A 
ATOM      7  C   UNL     1       6.397   6.964  17.094  0.00  0.00    +0.000 A 
ATOM      8  C   UNL     1       7.081   8.216  17.253  0.00  0.00    +0.000 A 
ATOM      9  C   UNL     1       8.082   8.327  18.135  0.00  0.00    +0.000 A 
ATOM     10  C   UNL     1       8.938   9.536  18.328  0.00  0.00    +0.000 C 
ATOM     11  O   UNL     1       8.436   7.251  18.976  0.00  0.00    +0.000 OA
ATOM     12  C   UNL     1       7.780   6.065  18.876  0.00  0.00    +0.000 A 
ATOM     13  O   UNL     1       8.026   5.114  19.621  0.00  0.00    +0.000 OA
BRANCH   7  14
ATOM     14  O   UNL     1       5.425   7.022  16.124  0.00  0.00    +0.000 OA
ATOM     15  H   UNL     1       4.643   6.489  16.369  0.00  0.00    +0.000 HD
ENDBRANCH   7  14
ENDBRANCH   3   6
ENDBRANCH   1   2
BRANCH   1  16
ATOM     16  C   UNL     1       3.543   2.690  17.698  0.00  0.00    +0.000 C 
BRANCH  16  17
ATOM     17  C   UNL     1       2.314   2.942  18.563  0.00  0.00    +0.000 C 
BRANCH  17  18
ATOM     18  C   UNL     1       1.695   4.294  18.237  0.00  0.00    +0.000 C 
BRANCH  18  19
ATOM     19  C   UNL     1       2.357   5.389  19.057  0.00  0.00    +0.000 C 
BRANCH  19  20
ATOM     20  C   UNL     1       2.702   6.573  18.168  0.00  0.00    +0.000 C 
BRANCH  20  21
ATOM     21  C   UNL     1       2.262   7.867  18.828  0.00  0.00    +0.000 C 
BRANCH  21  22
ATOM     22  C   UNL     1       1.843   8.873  17.771  0.00  0.00    +0.000 C 
BRANCH  22  23
ATOM     23  C   UNL     1       1.397  10.164  18.433  0.00  0.00    +0.000 C 
BRANCH  23  24
ATOM     24  C   UNL     1       0.097   9.940  19.184  0.00  0.00    +0.000 C 
BRANCH  24  25
ATOM     25  C   UNL     1       0.291  10.241  20.660  0.00  0.00    +0.000 C 
BRANCH  25  26
ATOM     26  C   UNL     1      -0.018   9.006  21.490  0.00  0.00    +0.000 C 
BRANCH  26  28
ATOM     27  C   UNL     1      -1.001  10.726  23.002  0.00  0.00    +0.000 C 
ATOM     28  C   UNL     1      -0.284   9.392  22.939  0.00  0.00    +0.000 C 
ENDBRANCH  26  28
ENDBRANCH  25  26
ENDBRANCH  24  25
ENDBRANCH  23  24
ENDBRANCH  22  23
ENDBRANCH  21  22
ENDBRANCH  20  21
ENDBRANCH  19  20
ENDBRANCH  18  19
ENDBRANCH  17  18
ENDBRANCH  16  17
ENDBRANCH   1  16
TORSDOF 15
ENDMDL
MODEL 5
REMARK VINA RESULT:      -6.2      5.770      7.840
REMARK  Name = 
REMARK  17 active torsions:
REMARK  status: ('A' for Active; 'I' for Inactive)
REMARK    1  A    between atoms: C_1  and  C_2
REMARK    2  A    between atoms: C_2  and  C_3
REMARK    3  A    between atoms: C_3  and  C_4
REMARK    4  A    between atoms: C_4  and  C_5
REMARK    5  A    between atoms: C_5  and  C_6
REMARK    6  A    between atoms: C_6  and  C_7
REMARK    7  A    between atoms: C_7  and  C_8
REMARK    8  A    between atoms: C_8  and  C_9
REMARK    9  A    between atoms: C_9  and  C_10
REMARK   10  A    between atoms: C_10  and  C_11
REMARK   11  A    between atoms: C_11  and  C_12
REMARK   12  A    between atoms: C_12  and  C_13
REMARK   13  A    between atoms: C_13  and  C_14
REMARK   14  A    between atoms: C_14  and  N_15
REMARK   15  A    between atoms: C_16  and  C_18
REMARK   16  A    between atoms: C_19  and  O_20
REMARK   17  A    between atoms: C_22  and  C_23
REMARK                            x       y       z     vdW  Elec       q    Type
REMARK                         _______ _______ _______ _____ _____    ______ ____
ROOT
ATOM      1  C   UNL     1       6.723   6.776  17.250  0.00  0.00    +0.000 C 
ENDROOT
BRANCH   1   2
ATOM      2  N   UNL     1       5.773   6.002  18.016  0.00  0.00    +0.000 N 
ATOM      3  C   UNL     1       4.406   6.255  18.016  0.00  0.00    +0.000 C 
ATOM      4  O   UNL     1       3.887   7.163  17.371  0.00  0.00    +0.000 OA
ATOM      5  H   UNL     1       6.141   5.251  18.600  0.00  0.00    +0.000 HD
BRANCH   3   6
ATOM      6  C   UNL     1       3.568   5.361  18.888  0.00  0.00    +0.000 A 
ATOM      7  C   UNL     1       2.707   5.853  19.816  0.00  0.00    +0.000 A 
ATOM      8  C   UNL     1       2.032   4.974  20.730  0.00  0.00    +0.000 A 
ATOM      9  C   UNL     1       2.234   3.653  20.663  0.00  0.00    +0.000 A 
ATOM     10  C   UNL     1       1.677   2.641  21.611  0.00  0.00    +0.000 C 
ATOM     11  O   UNL     1       3.046   3.089  19.657  0.00  0.00    +0.000 OA
ATOM     12  C   UNL     1       3.666   3.892  18.754  0.00  0.00    +0.000 A 
ATOM     13  O   UNL     1       4.348   3.438  17.831  0.00  0.00    +0.000 OA
BRANCH   7  14
ATOM     14  O   UNL     1       2.410   7.174  20.050  0.00  0.00    +0.000 OA
ATOM     15  H   UNL     1       1.453   7.347  19.957  0.00  0.00    +0.000 HD
ENDBRANCH   7  14
ENDBRANCH   3   6
ENDBRANCH   1   2
BRANCH   1  16
ATOM     16  C   UNL     1       7.847   7.313  18.128  0.00  0.00    +0.000 C 
BRANCH  16  17
ATOM     17  C   UNL     1       8.117   8.780  17.815  0.00  0.00    +0.000 C 
BRANCH  17  18
ATOM     18  C   UNL     1       8.944   9.422  18.921  0.00  0.00    +0.000 C 
BRANCH  18  19
ATOM     19  C   UNL     1       9.025  10.925  18.715  0.00  0.00    +0.000 C 
BRANCH  19  20
ATOM     20  C   UNL     1      10.186  11.266  17.795  0.00  0.00    +0.000 C 
BRANCH  20  21
ATOM     21  C   UNL     1      10.940  12.471  18.330  0.00  0.00    +0.000 C 
BRANCH  21  22
ATOM     22  C   UNL     1       9.965  13.583  18.671  0.00  0.00    +0.000 C 
BRANCH  22  23
ATOM     23  C   UNL     1      10.666  14.651  19.491  0.00  0.00    +0.000 C 
BRANCH  23  24
ATOM     24  C   UNL     1      10.535  14.338  20.970  0.00  0.00    +0.000 C 
BRANCH  24  25
ATOM     25  C   UNL     1       9.201  13.664  21.243  0.00  0.00    +0.000 C 
BRANCH  25  26
ATOM     26  C   UNL     1       9.414  12.398  22.058  0.00  0.00    +0.000 C 
BRANCH  26  28
ATOM     27  C   UNL     1       7.113  13.040  22.768  0.00  0.00    +0.000 C 
ATOM     28  C   UNL     1       8.087  11.890  22.605  0.00  0.00    +0.000 C 
ENDBRANCH  26  28
ENDBRANCH  25  26
ENDBRANCH  24  25
ENDBRANCH  23  24
ENDBRANCH  22  23
ENDBRANCH  21  22
ENDBRANCH  20  21
ENDBRANCH  19  20
ENDBRANCH  18  19
ENDBRANCH  17  18
ENDBRANCH  16  17
ENDBRANCH   1  16
TORSDOF 15
ENDMDL
MODEL 6
REMARK VINA RESULT:      -6.2      3.577      8.320
REMARK  Name = 
REMARK  17 active torsions:
REMARK  status: ('A' for Active; 'I' for Inactive)
REMARK    1  A    between atoms: C_1  and  C_2
REMARK    2  A    between atoms: C_2  and  C_3
REMARK    3  A    between atoms: C_3  and  C_4
REMARK    4  A    between atoms: C_4  and  C_5
REMARK    5  A    between atoms: C_5  and  C_6
REMARK    6  A    between atoms: C_6  and  C_7
REMARK    7  A    between atoms: C_7  and  C_8
REMARK    8  A    between atoms: C_8  and  C_9
REMARK    9  A    between atoms: C_9  and  C_10
REMARK   10  A    between atoms: C_10  and  C_11
REMARK   11  A    between atoms: C_11  and  C_12
REMARK   12  A    between atoms: C_12  and  C_13
REMARK   13  A    between atoms: C_13  and  C_14
REMARK   14  A    between atoms: C_14  and  N_15
REMARK   15  A    between atoms: C_16  and  C_18
REMARK   16  A    between atoms: C_19  and  O_20
REMARK   17  A    between atoms: C_22  and  C_23
REMARK                            x       y       z     vdW  Elec       q    Type
REMARK                         _______ _______ _______ _____ _____    ______ ____
ROOT
ATOM      1  C   UNL     1       2.650   7.142  19.182  0.00  0.00    +0.000 C 
ENDROOT
BRANCH   1   2
ATOM      2  N   UNL     1       1.898   8.163  19.877  0.00  0.00    +0.000 N 
ATOM      3  C   UNL     1       1.192   9.167  19.224  0.00  0.00    +0.000 C 
ATOM      4  O   UNL     1       1.151   9.279  18.001  0.00  0.00    +0.000 OA
ATOM      5  H   UNL     1       1.916   8.148  20.897  0.00  0.00    +0.000 HD
BRANCH   3   6
ATOM      6  C   UNL     1       0.482  10.157  20.107  0.00  0.00    +0.000 A 
ATOM      7  C   UNL     1       0.505  11.493  19.862  0.00  0.00    +0.000 A 
ATOM      8  C   UNL     1      -0.058  12.421  20.803  0.00  0.00    +0.000 A 
ATOM      9  C   UNL     1      -0.629  11.973  21.928  0.00  0.00    +0.000 A 
ATOM     10  C   UNL     1      -1.161  12.828  23.031  0.00  0.00    +0.000 C 
ATOM     11  O   UNL     1      -0.759  10.591  22.180  0.00  0.00    +0.000 OA
ATOM     12  C   UNL     1      -0.271   9.688  21.289  0.00  0.00    +0.000 A 
ATOM     13  O   UNL     1      -0.404   8.472  21.448  0.00  0.00    +0.000 OA
BRANCH   7  14
ATOM     14  O   UNL     1       1.079  12.127  18.787  0.00  0.00    +0.000 OA
ATOM     15  H   UNL     1       1.552  11.495  18.211  0.00  0.00    +0.000 HD
ENDBRANCH   7  14
ENDBRANCH   3   6
ENDBRANCH   1   2
BRANCH   1  16
ATOM     16  C   UNL     1       1.916   5.807  19.183  0.00  0.00    +0.000 C 
BRANCH  16  17
ATOM     17  C   UNL     1       1.849   5.233  20.594  0.00  0.00    +0.000 C 
BRANCH  17  18
ATOM     18  C   UNL     1       1.150   3.881  20.591  0.00  0.00    +0.000 C 
BRANCH  18  19
ATOM     19  C   UNL     1       2.092   2.799  21.093  0.00  0.00    +0.000 C 
BRANCH  19  20
ATOM     20  C   UNL     1       3.170   2.522  20.059  0.00  0.00    +0.000 C 
BRANCH  20  21
ATOM     21  C   UNL     1       2.557   1.889  18.822  0.00  0.00    +0.000 C 
BRANCH  21  22
ATOM     22  C   UNL     1       2.946   2.681  17.587  0.00  0.00    +0.000 C 
BRANCH  22  23
ATOM     23  C   UNL     1       4.250   3.417  17.835  0.00  0.00    +0.000 C 
BRANCH  23  24
ATOM     24  C   UNL     1       4.559   4.335  16.666  0.00  0.00    +0.000 C 
BRANCH  24  25
ATOM     25  C   UNL     1       5.810   3.858  15.948  0.00  0.00    +0.000 C 
BRANCH  25  26
ATOM     26  C   UNL     1       6.947   4.843  16.172  0.00  0.00    +0.000 C 
BRANCH  26  28
ATOM     27  C   UNL     1       7.564   5.888  18.349  0.00  0.00    +0.000 C 
ATOM     28  C   UNL     1       7.590   4.610  17.533  0.00  0.00    +0.000 C 
ENDBRANCH  26  28
ENDBRANCH  25  26
ENDBRANCH  24  25
ENDBRANCH  23  24
ENDBRANCH  22  23
ENDBRANCH  21  22
ENDBRANCH  20  21
ENDBRANCH  19  20
ENDBRANCH  18  19
ENDBRANCH  17  18
ENDBRANCH  16  17
ENDBRANCH   1  16
TORSDOF 15
ENDMDL
MODEL 7
REMARK VINA RESULT:      -6.1      5.401      7.409
REMARK  Name = 
REMARK  17 active torsions:
REMARK  status: ('A' for Active; 'I' for Inactive)
REMARK    1  A    between atoms: C_1  and  C_2
REMARK    2  A    between atoms: C_2  and  C_3
REMARK    3  A    between atoms: C_3  and  C_4
REMARK    4  A    between atoms: C_4  and  C_5
REMARK    5  A    between atoms: C_5  and  C_6
REMARK    6  A    between atoms: C_6  and  C_7
REMARK    7  A    between atoms: C_7  and  C_8
REMARK    8  A    between atoms: C_8  and  C_9
REMARK    9  A    between atoms: C_9  and  C_10
REMARK   10  A    between atoms: C_10  and  C_11
REMARK   11  A    between atoms: C_11  and  C_12
REMARK   12  A    between atoms: C_12  and  C_13
REMARK   13  A    between atoms: C_13  and  C_14
REMARK   14  A    between atoms: C_14  and  N_15
REMARK   15  A    between atoms: C_16  and  C_18
REMARK   16  A    between atoms: C_19  and  O_20
REMARK   17  A    between atoms: C_22  and  C_23
REMARK                            x       y       z     vdW  Elec       q    Type
REMARK                         _______ _______ _______ _____ _____    ______ ____
ROOT
ATOM      1  C   UNL     1       5.666   6.825  16.998  0.00  0.00    +0.000 C 
ENDROOT
BRANCH   1   2
ATOM      2  N   UNL     1       4.869   5.984  17.864  0.00  0.00    +0.000 N 
ATOM      3  C   UNL     1       4.195   4.853  17.419  0.00  0.00    +0.000 C 
ATOM      4  O   UNL     1       4.211   4.473  16.251  0.00  0.00    +0.000 OA
ATOM      5  H   UNL     1       4.788   6.260  18.842  0.00  0.00    +0.000 HD
BRANCH   3   6
ATOM      6  C   UNL     1       3.398   4.108  18.454  0.00  0.00    +0.000 A 
ATOM      7  C   UNL     1       2.048   3.982  18.378  0.00  0.00    +0.000 A 
ATOM      8  C   UNL     1       1.304   3.392  19.456  0.00  0.00    +0.000 A 
ATOM      9  C   UNL     1       1.941   2.945  20.545  0.00  0.00    +0.000 A 
ATOM     10  C   UNL     1       1.284   2.404  21.773  0.00  0.00    +0.000 C 
ATOM     11  O   UNL     1       3.348   2.969  20.629  0.00  0.00    +0.000 OA
ATOM     12  C   UNL     1       4.082   3.485  19.608  0.00  0.00    +0.000 A 
ATOM     13  O   UNL     1       5.315   3.485  19.620  0.00  0.00    +0.000 OA
BRANCH   7  14
ATOM     14  O   UNL     1       1.233   4.417  17.361  0.00  0.00    +0.000 OA
ATOM     15  H   UNL     1       0.487   3.804  17.214  0.00  0.00    +0.000 HD
ENDBRANCH   7  14
ENDBRANCH   3   6
ENDBRANCH   1   2
BRANCH   1  16
ATOM     16  C   UNL     1       7.138   6.433  17.035  0.00  0.00    +0.000 C 
BRANCH  16  17
ATOM     17  C   UNL     1       7.868   7.199  18.132  0.00  0.00    +0.000 C 
BRANCH  17  18
ATOM     18  C   UNL     1       8.008   8.668  17.758  0.00  0.00    +0.000 C 
BRANCH  18  19
ATOM     19  C   UNL     1       8.791   9.413  18.827  0.00  0.00    +0.000 C 
BRANCH  19  20
ATOM     20  C   UNL     1       9.504  10.608  18.216  0.00  0.00    +0.000 C 
BRANCH  20  21
ATOM     21  C   UNL     1      10.198  11.413  19.301  0.00  0.00    +0.000 C 
BRANCH  21  22
ATOM     22  C   UNL     1       9.308  11.505  20.527  0.00  0.00    +0.000 C 
BRANCH  22  23
ATOM     23  C   UNL     1       9.853  12.549  21.484  0.00  0.00    +0.000 C 
BRANCH  23  24
ATOM     24  C   UNL     1       8.819  13.637  21.709  0.00  0.00    +0.000 C 
BRANCH  24  25
ATOM     25  C   UNL     1       8.352  13.619  23.154  0.00  0.00    +0.000 C 
BRANCH  25  26
ATOM     26  C   UNL     1       8.494  12.219  23.731  0.00  0.00    +0.000 C 
BRANCH  26  28
ATOM     27  C   UNL     1       6.714  11.572  25.350  0.00  0.00    +0.000 C 
ATOM     28  C   UNL     1       8.084  12.204  25.197  0.00  0.00    +0.000 C 
ENDBRANCH  26  28
ENDBRANCH  25  26
ENDBRANCH  24  25
ENDBRANCH  23  24
ENDBRANCH  22  23
ENDBRANCH  21  22
ENDBRANCH  20  21
ENDBRANCH  19  20
ENDBRANCH  18  19
ENDBRANCH  17  18
ENDBRANCH  16  17
ENDBRANCH   1  16
TORSDOF 15
ENDMDL
MODEL 8
REMARK VINA RESULT:      -6.1      5.536      7.586
REMARK  Name = 
REMARK  17 active torsions:
REMARK  status: ('A' for Active; 'I' for Inactive)
REMARK    1  A    between atoms: C_1  and  C_2
REMARK    2  A    between atoms: C_2  and  C_3
REMARK    3  A    between atoms: C_3  and  C_4
REMARK    4  A    between atoms: C_4  and  C_5
REMARK    5  A    between atoms: C_5  and  C_6
REMARK    6  A    between atoms: C_6  and  C_7
REMARK    7  A    between atoms: C_7  and  C_8
REMARK    8  A    between atoms: C_8  and  C_9
REMARK    9  A    between atoms: C_9  and  C_10
REMARK   10  A    between atoms: C_10  and  C_11
REMARK   11  A    between atoms: C_11  and  C_12
REMARK   12  A    between atoms: C_12  and  C_13
REMARK   13  A    between atoms: C_13  and  C_14
REMARK   14  A    between atoms: C_14  and  N_15
REMARK   15  A    between atoms: C_16  and  C_18
REMARK   16  A    between atoms: C_19  and  O_20
REMARK   17  A    between atoms: C_22  and  C_23
REMARK                            x       y       z     vdW  Elec       q    Type
REMARK                         _______ _______ _______ _____ _____    ______ ____
ROOT
ATOM      1  C   UNL     1       7.460   4.729  17.065  0.00  0.00    +0.000 C 
ENDROOT
BRANCH   1   2
ATOM      2  N   UNL     1       6.168   4.369  17.604  0.00  0.00    +0.000 N 
ATOM      3  C   UNL     1       5.837   4.508  18.947  0.00  0.00    +0.000 C 
ATOM      4  O   UNL     1       6.615   4.943  19.794  0.00  0.00    +0.000 OA
ATOM      5  H   UNL     1       5.483   3.972  16.961  0.00  0.00    +0.000 HD
BRANCH   3   6
ATOM      6  C   UNL     1       4.453   4.066  19.337  0.00  0.00    +0.000 A 
ATOM      7  C   UNL     1       4.200   2.825  19.828  0.00  0.00    +0.000 A 
ATOM      8  C   UNL     1       2.851   2.385  20.051  0.00  0.00    +0.000 A 
ATOM      9  C   UNL     1       1.826   3.205  19.792  0.00  0.00    +0.000 A 
ATOM     10  C   UNL     1       0.380   2.843  19.884  0.00  0.00    +0.000 C 
ATOM     11  O   UNL     1       2.044   4.534  19.370  0.00  0.00    +0.000 OA
ATOM     12  C   UNL     1       3.310   4.991  19.188  0.00  0.00    +0.000 A 
ATOM     13  O   UNL     1       3.547   6.158  18.864  0.00  0.00    +0.000 OA
BRANCH   7  14
ATOM     14  O   UNL     1       5.120   1.845  20.112  0.00  0.00    +0.000 OA
ATOM     15  H   UNL     1       5.192   1.200  19.382  0.00  0.00    +0.000 HD
ENDBRANCH   7  14
ENDBRANCH   3   6
ENDBRANCH   1   2
BRANCH   1  16
ATOM     16  C   UNL     1       7.405   6.053  16.313  0.00  0.00    +0.000 C 
BRANCH  16  17
ATOM     17  C   UNL     1       6.907   7.167  17.227  0.00  0.00    +0.000 C 
BRANCH  17  18
ATOM     18  C   UNL     1       8.045   7.715  18.076  0.00  0.00    +0.000 C 
BRANCH  18  19
ATOM     19  C   UNL     1       8.170   9.218  17.888  0.00  0.00    +0.000 C 
BRANCH  19  20
ATOM     20  C   UNL     1       8.996   9.820  19.012  0.00  0.00    +0.000 C 
BRANCH  20  21
ATOM     21  C   UNL     1       9.342  11.263  18.691  0.00  0.00    +0.000 C 
BRANCH  21  22
ATOM     22  C   UNL     1      10.465  11.312  17.670  0.00  0.00    +0.000 C 
BRANCH  22  23
ATOM     23  C   UNL     1      11.001  12.728  17.559  0.00  0.00    +0.000 C 
BRANCH  23  24
ATOM     24  C   UNL     1       9.979  13.713  18.098  0.00  0.00    +0.000 C 
BRANCH  24  25
ATOM     25  C   UNL     1      10.655  14.705  19.028  0.00  0.00    +0.000 C 
BRANCH  25  26
ATOM     26  C   UNL     1      11.152  13.995  20.277  0.00  0.00    +0.000 C 
BRANCH  26  28
ATOM     27  C   UNL     1       9.496  15.545  21.309  0.00  0.00    +0.000 C 
ATOM     28  C   UNL     1      10.173  14.193  21.426  0.00  0.00    +0.000 C 
ENDBRANCH  26  28
ENDBRANCH  25  26
ENDBRANCH  24  25
ENDBRANCH  23  24
ENDBRANCH  22  23
ENDBRANCH  21  22
ENDBRANCH  20  21
ENDBRANCH  19  20
ENDBRANCH  18  19
ENDBRANCH  17  18
ENDBRANCH  16  17
ENDBRANCH   1  16
TORSDOF 15
ENDMDL
MODEL 9
REMARK VINA RESULT:      -6.0      3.914      8.543
REMARK  Name = 
REMARK  17 active torsions:
REMARK  status: ('A' for Active; 'I' for Inactive)
REMARK    1  A    between atoms: C_1  and  C_2
REMARK    2  A    between atoms: C_2  and  C_3
REMARK    3  A    between atoms: C_3  and  C_4
REMARK    4  A    between atoms: C_4  and  C_5
REMARK    5  A    between atoms: C_5  and  C_6
REMARK    6  A    between atoms: C_6  and  C_7
REMARK    7  A    between atoms: C_7  and  C_8
REMARK    8  A    between atoms: C_8  and  C_9
REMARK    9  A    between atoms: C_9  and  C_10
REMARK   10  A    between atoms: C_10  and  C_11
REMARK   11  A    between atoms: C_11  and  C_12
REMARK   12  A    between atoms: C_12  and  C_13
REMARK   13  A    between atoms: C_13  and  C_14
REMARK   14  A    between atoms: C_14  and  N_15
REMARK   15  A    between atoms: C_16  and  C_18
REMARK   16  A    between atoms: C_19  and  O_20
REMARK   17  A    between atoms: C_22  and  C_23
REMARK                            x       y       z     vdW  Elec       q    Type
REMARK                         _______ _______ _______ _____ _____    ______ ____
ROOT
ATOM      1  C   UNL     1       2.418   8.380  17.943  0.00  0.00    +0.000 C 
ENDROOT
BRANCH   1   2
ATOM      2  N   UNL     1       1.851   9.147  19.030  0.00  0.00    +0.000 N 
ATOM      3  C   UNL     1       0.640   9.824  18.934  0.00  0.00    +0.000 C 
ATOM      4  O   UNL     1      -0.050   9.834  17.918  0.00  0.00    +0.000 OA
ATOM      5  H   UNL     1       2.388   9.206  19.894  0.00  0.00    +0.000 HD
BRANCH   3   6
ATOM      6  C   UNL     1       0.212  10.587  20.157  0.00  0.00    +0.000 A 
ATOM      7  C   UNL     1      -0.228   9.967  21.282  0.00  0.00    +0.000 A 
ATOM      8  C   UNL     1      -0.766  10.726  22.377  0.00  0.00    +0.000 A 
ATOM      9  C   UNL     1      -0.823  12.061  22.303  0.00  0.00    +0.000 A 
ATOM     10  C   UNL     1      -1.446  12.961  23.321  0.00  0.00    +0.000 C 
ATOM     11  O   UNL     1      -0.293  12.754  21.195  0.00  0.00    +0.000 OA
ATOM     12  C   UNL     1       0.258  12.065  20.162  0.00  0.00    +0.000 A 
ATOM     13  O   UNL     1       0.774  12.632  19.195  0.00  0.00    +0.000 OA
BRANCH   7  14
ATOM     14  O   UNL     1      -0.279   8.614  21.514  0.00  0.00    +0.000 OA
ATOM     15  H   UNL     1      -0.704   8.140  20.772  0.00  0.00    +0.000 HD
ENDBRANCH   7  14
ENDBRANCH   3   6
ENDBRANCH   1   2
BRANCH   1  16
ATOM     16  C   UNL     1       2.286   6.881  18.186  0.00  0.00    +0.000 C 
BRANCH  16  17
ATOM     17  C   UNL     1       2.647   6.539  19.627  0.00  0.00    +0.000 C 
BRANCH  17  18
ATOM     18  C   UNL     1       1.639   5.563  20.216  0.00  0.00    +0.000 C 
BRANCH  18  19
ATOM     19  C   UNL     1       2.339   4.560  21.119  0.00  0.00    +0.000 C 
BRANCH  19  20
ATOM     20  C   UNL     1       1.489   3.309  21.271  0.00  0.00    +0.000 C 
BRANCH  20  21
ATOM     21  C   UNL     1       1.173   2.724  19.905  0.00  0.00    +0.000 C 
BRANCH  21  22
ATOM     22  C   UNL     1       2.426   2.120  19.298  0.00  0.00    +0.000 C 
BRANCH  22  23
ATOM     23  C   UNL     1       2.312   2.109  17.784  0.00  0.00    +0.000 C 
BRANCH  23  24
ATOM     24  C   UNL     1       2.670   3.475  17.227  0.00  0.00    +0.000 C 
BRANCH  24  25
ATOM     25  C   UNL     1       4.117   3.805  17.551  0.00  0.00    +0.000 C 
BRANCH  25  26
ATOM     26  C   UNL     1       4.933   3.889  16.272  0.00  0.00    +0.000 C 
BRANCH  26  28
ATOM     27  C   UNL     1       6.982   5.041  15.445  0.00  0.00    +0.000 C 
ATOM     28  C   UNL     1       5.682   5.213  16.205  0.00  0.00    +0.000 C 
ENDBRANCH  26  28
ENDBRANCH  25  26
ENDBRANCH  24  25
ENDBRANCH  23  24
ENDBRANCH  22  23
ENDBRANCH  21  22
ENDBRANCH  20  21
ENDBRANCH  19  20
ENDBRANCH  18  19
ENDBRANCH  17  18
ENDBRANCH  16  17
ENDBRANCH   1  16
TORSDOF 15
ENDMDL
