MODEL 1
REMARK VINA RESULT:      -7.5      0.000      0.000
REMARK  Name = 
REMARK  6 active torsions:
REMARK  status: ('A' for Active; 'I' for Inactive)
REMARK    1  A    between atoms: C_1  and  C_2
REMARK    2  A    between atoms: C_3  and  O_4
REMARK    3  A    between atoms: N_10  and  C_11
REMARK    4  A    between atoms: C_11  and  C_12
REMARK    5  A    between atoms: C_11  and  C_15
REMARK    6  A    between atoms: C_12  and  O_14
REMARK                            x       y       z     vdW  Elec       q    Type
REMARK                         _______ _______ _______ _____ _____    ______ ____
ROOT
ATOM      1  C   UNL     1       3.552   4.890  17.486  0.00  0.00    +0.000 C 
ENDROOT
BRANCH   1  10
ATOM      2  C   UNL     1       7.955   7.147  18.345  0.00  0.00    +0.000 C 
ATOM      3  C   UNL     1       7.236   6.339  17.266  0.00  0.00    +0.000 C 
ATOM      4  C   UNL     1       7.764   4.901  17.184  0.00  0.00    +0.000 C 
ATOM      5  C   UNL     1       6.994   4.123  16.112  0.00  0.00    +0.000 C 
ATOM      6  C   UNL     1       5.496   4.492  16.078  0.00  0.00    +0.000 C 
ATOM      7  C   UNL     1       5.193   5.677  15.126  0.00  0.00    +0.000 C 
ATOM      8  C   UNL     1       5.139   6.911  16.031  0.00  0.00    +0.000 C 
ATOM      9  C   UNL     1       5.651   6.377  17.373  0.00  0.00    +0.000 C 
ATOM     10  N   UNL     1       5.069   4.989  17.433  0.00  0.00    +0.000 NA
BRANCH   4  11
ATOM     11  O   UNL     1       7.626   4.248  18.447  0.00  0.00    +0.000 OA
ATOM     12  H   UNL     1       8.250   3.495  18.418  0.00  0.00    +0.000 HD
ENDBRANCH   4  11
ENDBRANCH   1  10
BRANCH   1  13
ATOM     13  C   UNL     1       2.773   5.472  18.661  0.00  0.00    +0.000 A 
ATOM     14  C   UNL     1       2.627   4.615  19.781  0.00  0.00    +0.000 A 
ATOM     15  C   UNL     1       2.079   5.052  20.984  0.00  0.00    +0.000 A 
ATOM     16  C   UNL     1       1.673   6.373  21.102  0.00  0.00    +0.000 A 
ATOM     17  C   UNL     1       1.802   7.246  20.020  0.00  0.00    +0.000 A 
ATOM     18 CL   UNL     1       1.295   8.881  20.282  0.00  0.00    +0.000 Cl
ATOM     19  C   UNL     1       2.354   6.808  18.796  0.00  0.00    +0.000 A 
ATOM     20 CL   UNL     1       2.547   7.926  17.486  0.00  0.00    +0.000 Cl
ENDBRANCH   1  13
BRANCH   1  21
ATOM     21  C   UNL     1       3.108   3.408  17.263  0.00  0.00    +0.000 C 
ATOM     22  O   UNL     1       2.046   3.107  16.736  0.00  0.00    +0.000 OA
BRANCH  21  23
ATOM     23  O   UNL     1       4.004   2.493  17.698  0.00  0.00    +0.000 OA
ATOM     24  H   UNL     1       3.663   1.587  17.563  0.00  0.00    +0.000 HD
ENDBRANCH  21  23
ENDBRANCH   1  21
TORSDOF 5
ENDMDL
MODEL 2
REMARK VINA RESULT:      -7.3      0.931      1.200
REMARK  Name = 
REMARK  6 active torsions:
REMARK  status: ('A' for Active; 'I' for Inactive)
REMARK    1  A    between atoms: C_1  and  C_2
REMARK    2  A    between atoms: C_3  and  O_4
REMARK    3  A    between atoms: N_10  and  C_11
REMARK    4  A    between atoms: C_11  and  C_12
REMARK    5  A    between atoms: C_11  and  C_15
REMARK    6  A    between atoms: C_12  and  O_14
REMARK                            x       y       z     vdW  Elec       q    Type
REMARK                         _______ _______ _______ _____ _____    ______ ____
ROOT
ATOM      1  C   UNL     1       3.509   5.485  17.866  0.00  0.00    +0.000 C 
ENDROOT
BRANCH   1  10
ATOM      2  C   UNL     1       7.742   8.186  17.789  0.00  0.00    +0.000 C 
ATOM      3  C   UNL     1       7.168   6.878  17.243  0.00  0.00    +0.000 C 
ATOM      4  C   UNL     1       7.726   5.658  17.986  0.00  0.00    +0.000 C 
ATOM      5  C   UNL     1       7.100   4.376  17.427  0.00  0.00    +0.000 C 
ATOM      6  C   UNL     1       5.610   4.556  17.067  0.00  0.00    +0.000 C 
ATOM      7  C   UNL     1       5.401   5.037  15.608  0.00  0.00    +0.000 C 
ATOM      8  C   UNL     1       5.221   6.554  15.710  0.00  0.00    +0.000 C 
ATOM      9  C   UNL     1       5.582   6.846  17.170  0.00  0.00    +0.000 C 
ATOM     10  N   UNL     1       5.019   5.656  17.905  0.00  0.00    +0.000 NA
BRANCH   4  11
ATOM     11  O   UNL     1       7.453   5.758  19.384  0.00  0.00    +0.000 OA
ATOM     12  H   UNL     1       6.895   4.982  19.595  0.00  0.00    +0.000 HD
ENDBRANCH   4  11
ENDBRANCH   1  10
BRANCH   1  13
ATOM     13  C   UNL     1       2.611   6.246  18.836  0.00  0.00    +0.000 A 
ATOM     14  C   UNL     1       2.267   5.551  20.022  0.00  0.00    +0.000 A 
ATOM     15  C   UNL     1       1.586   6.164  21.071  0.00  0.00    +0.000 A 
ATOM     16  C   UNL     1       1.242   7.502  20.964  0.00  0.00    +0.000 A 
ATOM     17  C   UNL     1       1.565   8.219  19.810  0.00  0.00    +0.000 A 
ATOM     18 CL   UNL     1       1.119   9.893  19.790  0.00  0.00    +0.000 Cl
ATOM     19  C   UNL     1       2.252   7.603  18.742  0.00  0.00    +0.000 A 
ATOM     20 CL   UNL     1       2.684   8.530  17.342  0.00  0.00    +0.000 Cl
ENDBRANCH   1  13
BRANCH   1  21
ATOM     21  C   UNL     1       3.146   3.966  17.919  0.00  0.00    +0.000 C 
ATOM     22  O   UNL     1       3.718   3.173  18.655  0.00  0.00    +0.000 OA
BRANCH  21  23
ATOM     23  O   UNL     1       2.140   3.610  17.088  0.00  0.00    +0.000 OA
ATOM     24  H   UNL     1       2.191   4.114  16.251  0.00  0.00    +0.000 HD
ENDBRANCH  21  23
ENDBRANCH   1  21
TORSDOF 5
ENDMDL
MODEL 3
REMARK VINA RESULT:      -7.2      1.457      2.179
REMARK  Name = 
REMARK  6 active torsions:
REMARK  status: ('A' for Active; 'I' for Inactive)
REMARK    1  A    between atoms: C_1  and  C_2
REMARK    2  A    between atoms: C_3  and  O_4
REMARK    3  A    between atoms: N_10  and  C_11
REMARK    4  A    between atoms: C_11  and  C_12
REMARK    5  A    between atoms: C_11  and  C_15
REMARK    6  A    between atoms: C_12  and  O_14
REMARK                            x       y       z     vdW  Elec       q    Type
REMARK                         _______ _______ _______ _____ _____    ______ ____
ROOT
ATOM      1  C   UNL     1       3.281   5.905  17.648  0.00  0.00    +0.000 C 
ENDROOT
BRANCH   1  10
ATOM      2  C   UNL     1       8.057   7.327  18.276  0.00  0.00    +0.000 C 
ATOM      3  C   UNL     1       7.211   6.379  17.426  0.00  0.00    +0.000 C 
ATOM      4  C   UNL     1       7.381   4.918  17.861  0.00  0.00    +0.000 C 
ATOM      5  C   UNL     1       6.493   4.011  17.003  0.00  0.00    +0.000 C 
ATOM      6  C   UNL     1       5.130   4.658  16.677  0.00  0.00    +0.000 C 
ATOM      7  C   UNL     1       5.162   5.496  15.373  0.00  0.00    +0.000 C 
ATOM      8  C   UNL     1       5.368   6.942  15.834  0.00  0.00    +0.000 C 
ATOM      9  C   UNL     1       5.679   6.786  17.326  0.00  0.00    +0.000 C 
ATOM     10  N   UNL     1       4.778   5.655  17.747  0.00  0.00    +0.000 NA
BRANCH   4  11
ATOM     11  O   UNL     1       7.037   4.766  19.239  0.00  0.00    +0.000 OA
ATOM     12  H   UNL     1       7.110   5.663  19.624  0.00  0.00    +0.000 HD
ENDBRANCH   4  11
ENDBRANCH   1  10
BRANCH   1  13
ATOM     13  C   UNL     1       2.639   7.090  18.361  0.00  0.00    +0.000 A 
ATOM     14  C   UNL     1       2.286   8.184  17.531  0.00  0.00    +0.000 A 
ATOM     15  C   UNL     1       1.555   9.270  18.004  0.00  0.00    +0.000 A 
ATOM     16  C   UNL     1       1.143   9.284  19.328  0.00  0.00    +0.000 A 
ATOM     17  C   UNL     1       1.472   8.224  20.175  0.00  0.00    +0.000 A 
ATOM     18 CL   UNL     1       0.882   8.322  21.800  0.00  0.00    +0.000 Cl
ATOM     19  C   UNL     1       2.216   7.120  19.702  0.00  0.00    +0.000 A 
ATOM     20 CL   UNL     1       2.567   5.796  20.764  0.00  0.00    +0.000 Cl
ENDBRANCH   1  13
BRANCH   1  21
ATOM     21  C   UNL     1       2.500   4.603  18.017  0.00  0.00    +0.000 C 
ATOM     22  O   UNL     1       2.958   3.743  18.757  0.00  0.00    +0.000 OA
BRANCH  21  23
ATOM     23  O   UNL     1       1.274   4.517  17.453  0.00  0.00    +0.000 OA
ATOM     24  H   UNL     1       0.599   4.923  18.033  0.00  0.00    +0.000 HD
ENDBRANCH  21  23
ENDBRANCH   1  21
TORSDOF 5
ENDMDL
MODEL 4
REMARK VINA RESULT:      -6.7      2.806      3.763
REMARK  Name = 
REMARK  6 active torsions:
REMARK  status: ('A' for Active; 'I' for Inactive)
REMARK    1  A    between atoms: C_1  and  C_2
REMARK    2  A    between atoms: C_3  and  O_4
REMARK    3  A    between atoms: N_10  and  C_11
REMARK    4  A    between atoms: C_11  and  C_12
REMARK    5  A    between atoms: C_11  and  C_15
REMARK    6  A    between atoms: C_12  and  O_14
REMARK                            x       y       z     vdW  Elec       q    Type
REMARK                         _______ _______ _______ _____ _____    ______ ____
ROOT
ATOM      1  C   UNL     1       3.655   5.930  19.235  0.00  0.00    +0.000 C 
ENDROOT
BRANCH   1  10
ATOM      2  C   UNL     1       5.813   3.640  15.321  0.00  0.00    +0.000 C 
ATOM      3  C   UNL     1       6.161   4.578  16.477  0.00  0.00    +0.000 C 
ATOM      4  C   UNL     1       6.365   6.021  15.998  0.00  0.00    +0.000 C 
ATOM      5  C   UNL     1       6.681   6.927  17.192  0.00  0.00    +0.000 C 
ATOM      6  C   UNL     1       5.874   6.544  18.452  0.00  0.00    +0.000 C 
ATOM      7  C   UNL     1       6.601   5.496  19.332  0.00  0.00    +0.000 C 
ATOM      8  C   UNL     1       5.991   4.149  18.934  0.00  0.00    +0.000 C 
ATOM      9  C   UNL     1       5.152   4.503  17.701  0.00  0.00    +0.000 C 
ATOM     10  N   UNL     1       4.598   5.861  18.044  0.00  0.00    +0.000 NA
BRANCH   4  11
ATOM     11  O   UNL     1       5.194   6.493  15.330  0.00  0.00    +0.000 OA
ATOM     12  H   UNL     1       5.521   7.087  14.625  0.00  0.00    +0.000 HD
ENDBRANCH   4  11
ENDBRANCH   1  10
BRANCH   1  13
ATOM     13  C   UNL     1       2.897   4.692  19.703  0.00  0.00    +0.000 A 
ATOM     14  C   UNL     1       2.921   4.454  21.100  0.00  0.00    +0.000 A 
ATOM     15  C   UNL     1       2.153   3.457  21.698  0.00  0.00    +0.000 A 
ATOM     16  C   UNL     1       1.325   2.676  20.906  0.00  0.00    +0.000 A 
ATOM     17  C   UNL     1       1.276   2.882  19.526  0.00  0.00    +0.000 A 
ATOM     18 CL   UNL     1       0.185   1.875  18.633  0.00  0.00    +0.000 Cl
ATOM     19  C   UNL     1       2.054   3.889  18.914  0.00  0.00    +0.000 A 
ATOM     20 CL   UNL     1       1.936   4.154  17.205  0.00  0.00    +0.000 Cl
ENDBRANCH   1  13
BRANCH   1  21
ATOM     21  C   UNL     1       2.643   7.105  19.044  0.00  0.00    +0.000 C 
ATOM     22  O   UNL     1       2.296   7.508  17.942  0.00  0.00    +0.000 OA
BRANCH  21  23
ATOM     23  O   UNL     1       2.182   7.629  20.202  0.00  0.00    +0.000 OA
ATOM     24  H   UNL     1       2.794   7.431  20.938  0.00  0.00    +0.000 HD
ENDBRANCH  21  23
ENDBRANCH   1  21
TORSDOF 5
ENDMDL
MODEL 5
REMARK VINA RESULT:      -6.5      2.846      3.835
REMARK  Name = 
REMARK  6 active torsions:
REMARK  status: ('A' for Active; 'I' for Inactive)
REMARK    1  A    between atoms: C_1  and  C_2
REMARK    2  A    between atoms: C_3  and  O_4
REMARK    3  A    between atoms: N_10  and  C_11
REMARK    4  A    between atoms: C_11  and  C_12
REMARK    5  A    between atoms: C_11  and  C_15
REMARK    6  A    between atoms: C_12  and  O_14
REMARK                            x       y       z     vdW  Elec       q    Type
REMARK                         _______ _______ _______ _____ _____    ______ ____
ROOT
ATOM      1  C   UNL     1       3.414   6.150  18.634  0.00  0.00    +0.000 C 
ENDROOT
BRANCH   1  10
ATOM      2  C   UNL     1       5.938   3.587  15.129  0.00  0.00    +0.000 C 
ATOM      3  C   UNL     1       6.186   4.486  16.341  0.00  0.00    +0.000 C 
ATOM      4  C   UNL     1       6.641   5.890  15.924  0.00  0.00    +0.000 C 
ATOM      5  C   UNL     1       6.848   6.762  17.167  0.00  0.00    +0.000 C 
ATOM      6  C   UNL     1       5.793   6.489  18.260  0.00  0.00    +0.000 C 
ATOM      7  C   UNL     1       6.225   5.368  19.240  0.00  0.00    +0.000 C 
ATOM      8  C   UNL     1       5.538   4.100  18.724  0.00  0.00    +0.000 C 
ATOM      9  C   UNL     1       4.976   4.542  17.368  0.00  0.00    +0.000 C 
ATOM     10  N   UNL     1       4.536   5.960  17.626  0.00  0.00    +0.000 NA
BRANCH   4  11
ATOM     11  O   UNL     1       5.670   6.494  15.067  0.00  0.00    +0.000 OA
ATOM     12  H   UNL     1       5.229   7.174  15.615  0.00  0.00    +0.000 HD
ENDBRANCH   4  11
ENDBRANCH   1  10
BRANCH   1  13
ATOM     13  C   UNL     1       2.403   5.038  18.895  0.00  0.00    +0.000 A 
ATOM     14  C   UNL     1       1.836   4.445  17.739  0.00  0.00    +0.000 A 
ATOM     15  C   UNL     1       1.018   3.320  17.806  0.00  0.00    +0.000 A 
ATOM     16  C   UNL     1       0.756   2.747  19.041  0.00  0.00    +0.000 A 
ATOM     17  C   UNL     1       1.298   3.303  20.202  0.00  0.00    +0.000 A 
ATOM     18 CL   UNL     1       0.937   2.492  21.689  0.00  0.00    +0.000 Cl
ATOM     19  C   UNL     1       2.125   4.446  20.140  0.00  0.00    +0.000 A 
ATOM     20 CL   UNL     1       2.824   5.086  21.592  0.00  0.00    +0.000 Cl
ENDBRANCH   1  13
BRANCH   1  21
ATOM     21  C   UNL     1       2.647   7.477  18.331  0.00  0.00    +0.000 C 
ATOM     22  O   UNL     1       2.702   8.041  17.247  0.00  0.00    +0.000 OA
BRANCH  21  23
ATOM     23  O   UNL     1       1.912   7.939  19.368  0.00  0.00    +0.000 OA
ATOM     24  H   UNL     1       0.961   7.774  19.216  0.00  0.00    +0.000 HD
ENDBRANCH  21  23
ENDBRANCH   1  21
TORSDOF 5
ENDMDL
MODEL 6
REMARK VINA RESULT:      -6.5      2.189      5.058
REMARK  Name = 
REMARK  6 active torsions:
REMARK  status: ('A' for Active; 'I' for Inactive)
REMARK    1  A    between atoms: C_1  and  C_2
REMARK    2  A    between atoms: C_3  and  O_4
REMARK    3  A    between atoms: N_10  and  C_11
REMARK    4  A    between atoms: C_11  and  C_12
REMARK    5  A    between atoms: C_11  and  C_15
REMARK    6  A    between atoms: C_12  and  O_14
REMARK                            x       y       z     vdW  Elec       q    Type
REMARK                         _______ _______ _______ _____ _____    ______ ____
ROOT
ATOM      1  C   UNL     1       5.365   3.953  17.459  0.00  0.00    +0.000 C 
ENDROOT
BRANCH   1  10
ATOM      2  C   UNL     1       1.408   5.118  20.324  0.00  0.00    +0.000 C 
ATOM      3  C   UNL     1       2.067   3.910  19.659  0.00  0.00    +0.000 C 
ATOM      4  C   UNL     1       1.286   3.442  18.424  0.00  0.00    +0.000 C 
ATOM      5  C   UNL     1       2.000   2.252  17.776  0.00  0.00    +0.000 C 
ATOM      6  C   UNL     1       3.536   2.390  17.820  0.00  0.00    +0.000 C 
ATOM      7  C   UNL     1       4.155   1.784  19.105  0.00  0.00    +0.000 C 
ATOM      8  C   UNL     1       4.350   2.971  20.052  0.00  0.00    +0.000 C 
ATOM      9  C   UNL     1       3.610   4.106  19.337  0.00  0.00    +0.000 C 
ATOM     10  N   UNL     1       3.908   3.847  17.883  0.00  0.00    +0.000 NA
BRANCH   4  11
ATOM     11  O   UNL     1       1.166   4.507  17.479  0.00  0.00    +0.000 OA
ATOM     12  H   UNL     1       1.494   5.302  17.944  0.00  0.00    +0.000 HD
ENDBRANCH   4  11
ENDBRANCH   1  10
BRANCH   1  13
ATOM     13  C   UNL     1       6.238   5.104  17.948  0.00  0.00    +0.000 A 
ATOM     14  C   UNL     1       7.301   4.739  18.812  0.00  0.00    +0.000 A 
ATOM     15  C   UNL     1       8.275   5.648  19.218  0.00  0.00    +0.000 A 
ATOM     16  C   UNL     1       8.215   6.954  18.755  0.00  0.00    +0.000 A 
ATOM     17  C   UNL     1       7.183   7.349  17.903  0.00  0.00    +0.000 A 
ATOM     18 CL   UNL     1       7.220   8.992  17.355  0.00  0.00    +0.000 Cl
ATOM     19  C   UNL     1       6.191   6.432  17.490  0.00  0.00    +0.000 A 
ATOM     20 CL   UNL     1       4.950   6.940  16.391  0.00  0.00    +0.000 Cl
ENDBRANCH   1  13
BRANCH   1  21
ATOM     21  C   UNL     1       5.473   3.857  15.903  0.00  0.00    +0.000 C 
ATOM     22  O   UNL     1       4.590   4.251  15.152  0.00  0.00    +0.000 OA
BRANCH  21  23
ATOM     23  O   UNL     1       6.627   3.309  15.463  0.00  0.00    +0.000 OA
ATOM     24  H   UNL     1       6.757   3.497  14.512  0.00  0.00    +0.000 HD
ENDBRANCH  21  23
ENDBRANCH   1  21
TORSDOF 5
ENDMDL
MODEL 7
REMARK VINA RESULT:      -6.5      2.986      5.573
REMARK  Name = 
REMARK  6 active torsions:
REMARK  status: ('A' for Active; 'I' for Inactive)
REMARK    1  A    between atoms: C_1  and  C_2
REMARK    2  A    between atoms: C_3  and  O_4
REMARK    3  A    between atoms: N_10  and  C_11
REMARK    4  A    between atoms: C_11  and  C_12
REMARK    5  A    between atoms: C_11  and  C_15
REMARK    6  A    between atoms: C_12  and  O_14
REMARK                            x       y       z     vdW  Elec       q    Type
REMARK                         _______ _______ _______ _____ _____    ______ ____
ROOT
ATOM      1  C   UNL     1       3.400   5.360  18.432  0.00  0.00    +0.000 C 
ENDROOT
BRANCH   1  10
ATOM      2  C   UNL     1       4.071   1.464  21.529  0.00  0.00    +0.000 C 
ATOM      3  C   UNL     1       3.047   2.021  20.541  0.00  0.00    +0.000 C 
ATOM      4  C   UNL     1       1.840   2.638  21.259  0.00  0.00    +0.000 C 
ATOM      5  C   UNL     1       0.858   3.210  20.231  0.00  0.00    +0.000 C 
ATOM      6  C   UNL     1       1.575   3.868  19.034  0.00  0.00    +0.000 C 
ATOM      7  C   UNL     1       1.860   2.869  17.884  0.00  0.00    +0.000 C 
ATOM      8  C   UNL     1       3.312   2.428  18.089  0.00  0.00    +0.000 C 
ATOM      9  C   UNL     1       3.658   3.014  19.462  0.00  0.00    +0.000 C 
ATOM     10  N   UNL     1       2.939   4.338  19.460  0.00  0.00    +0.000 NA
BRANCH   4  11
ATOM     11  O   UNL     1       2.266   3.673  22.147  0.00  0.00    +0.000 OA
ATOM     12  H   UNL     1       2.688   4.346  21.577  0.00  0.00    +0.000 HD
ENDBRANCH   4  11
ENDBRANCH   1  10
BRANCH   1  13
ATOM     13  C   UNL     1       4.876   5.493  18.072  0.00  0.00    +0.000 A 
ATOM     14  C   UNL     1       5.748   5.762  19.157  0.00  0.00    +0.000 A 
ATOM     15  C   UNL     1       7.133   5.757  19.016  0.00  0.00    +0.000 A 
ATOM     16  C   UNL     1       7.686   5.468  17.778  0.00  0.00    +0.000 A 
ATOM     17  C   UNL     1       6.858   5.198  16.686  0.00  0.00    +0.000 A 
ATOM     18 CL   UNL     1       7.649   4.816  15.193  0.00  0.00    +0.000 Cl
ATOM     19  C   UNL     1       5.452   5.204  16.822  0.00  0.00    +0.000 A 
ATOM     20 CL   UNL     1       4.451   4.816  15.461  0.00  0.00    +0.000 Cl
ENDBRANCH   1  13
BRANCH   1  21
ATOM     21  C   UNL     1       2.835   6.771  18.796  0.00  0.00    +0.000 C 
ATOM     22  O   UNL     1       2.650   7.646  17.961  0.00  0.00    +0.000 OA
BRANCH  21  23
ATOM     23  O   UNL     1       2.561   6.933  20.110  0.00  0.00    +0.000 OA
ATOM     24  H   UNL     1       1.627   6.711  20.297  0.00  0.00    +0.000 HD
ENDBRANCH  21  23
ENDBRANCH   1  21
TORSDOF 5
ENDMDL
MODEL 8
REMARK VINA RESULT:      -6.2      8.258     10.419
REMARK  Name = 
REMARK  6 active torsions:
REMARK  status: ('A' for Active; 'I' for Inactive)
REMARK    1  A    between atoms: C_1  and  C_2
REMARK    2  A    between atoms: C_3  and  O_4
REMARK    3  A    between atoms: N_10  and  C_11
REMARK    4  A    between atoms: C_11  and  C_12
REMARK    5  A    between atoms: C_11  and  C_15
REMARK    6  A    between atoms: C_12  and  O_14
REMARK                            x       y       z     vdW  Elec       q    Type
REMARK                         _______ _______ _______ _____ _____    ______ ____
ROOT
ATOM      1  C   UNL     1       9.119  15.137  18.875  0.00  0.00    +0.000 C 
ENDROOT
BRANCH   1  10
ATOM      2  C   UNL     1       9.142  10.115  18.857  0.00  0.00    +0.000 C 
ATOM      3  C   UNL     1       9.926  11.296  19.429  0.00  0.00    +0.000 C 
ATOM      4  C   UNL     1      11.259  11.501  18.697  0.00  0.00    +0.000 C 
ATOM      5  C   UNL     1      11.994  12.711  19.283  0.00  0.00    +0.000 C 
ATOM      6  C   UNL     1      11.033  13.859  19.660  0.00  0.00    +0.000 C 
ATOM      7  C   UNL     1      10.508  13.747  21.114  0.00  0.00    +0.000 C 
ATOM      8  C   UNL     1       9.136  13.078  20.992  0.00  0.00    +0.000 C 
ATOM      9  C   UNL     1       9.094  12.645  19.523  0.00  0.00    +0.000 C 
ATOM     10  N   UNL     1       9.793  13.775  18.813  0.00  0.00    +0.000 NA
BRANCH   4  11
ATOM     11  O   UNL     1      11.034  11.703  17.301  0.00  0.00    +0.000 OA
ATOM     12  H   UNL     1      11.664  12.403  17.037  0.00  0.00    +0.000 HD
ENDBRANCH   4  11
ENDBRANCH   1  10
BRANCH   1  13
ATOM     13  C   UNL     1       7.598  15.254  18.900  0.00  0.00    +0.000 A 
ATOM     14  C   UNL     1       6.925  14.697  17.784  0.00  0.00    +0.000 A 
ATOM     15  C   UNL     1       5.537  14.587  17.733  0.00  0.00    +0.000 A 
ATOM     16  C   UNL     1       4.784  15.023  18.812  0.00  0.00    +0.000 A 
ATOM     17  C   UNL     1       5.413  15.577  19.928  0.00  0.00    +0.000 A 
ATOM     18 CL   UNL     1       4.384  16.060  21.235  0.00  0.00    +0.000 Cl
ATOM     19  C   UNL     1       6.819  15.694  19.985  0.00  0.00    +0.000 A 
ATOM     20 CL   UNL     1       7.576  16.341  21.405  0.00  0.00    +0.000 Cl
ENDBRANCH   1  13
BRANCH   1  21
ATOM     21  C   UNL     1       9.683  16.061  17.748  0.00  0.00    +0.000 C 
ATOM     22  O   UNL     1       9.619  17.282  17.798  0.00  0.00    +0.000 OA
BRANCH  21  23
ATOM     23  O   UNL     1      10.254  15.392  16.721  0.00  0.00    +0.000 OA
ATOM     24  H   UNL     1      11.197  15.635  16.633  0.00  0.00    +0.000 HD
ENDBRANCH  21  23
ENDBRANCH   1  21
TORSDOF 5
ENDMDL
MODEL 9
REMARK VINA RESULT:      -6.2      1.962      2.218
REMARK  Name = 
REMARK  6 active torsions:
REMARK  status: ('A' for Active; 'I' for Inactive)
REMARK    1  A    between atoms: C_1  and  C_2
REMARK    2  A    between atoms: C_3  and  O_4
REMARK    3  A    between atoms: N_10  and  C_11
REMARK    4  A    between atoms: C_11  and  C_12
REMARK    5  A    between atoms: C_11  and  C_15
REMARK    6  A    between atoms: C_12  and  O_14
REMARK                            x       y       z     vdW  Elec       q    Type
REMARK                         _______ _______ _______ _____ _____    ______ ____
ROOT
ATOM      1  C   UNL     1       3.749   4.618  17.549  0.00  0.00    +0.000 C 
ENDROOT
BRANCH   1  10
ATOM      2  C   UNL     1       8.151   6.742  18.701  0.00  0.00    +0.000 C 
ATOM      3  C   UNL     1       7.333   6.309  17.484  0.00  0.00    +0.000 C 
ATOM      4  C   UNL     1       7.892   5.030  16.849  0.00  0.00    +0.000 C 
ATOM      5  C   UNL     1       7.025   4.619  15.655  0.00  0.00    +0.000 C 
ATOM      6  C   UNL     1       5.522   4.870  15.903  0.00  0.00    +0.000 C 
ATOM      7  C   UNL     1       5.072   6.288  15.466  0.00  0.00    +0.000 C 
ATOM      8  C   UNL     1       5.088   7.124  16.748  0.00  0.00    +0.000 C 
ATOM      9  C   UNL     1       5.773   6.196  17.756  0.00  0.00    +0.000 C 
ATOM     10  N   UNL     1       5.244   4.835  17.382  0.00  0.00    +0.000 NA
BRANCH   4  11
ATOM     11  O   UNL     1       7.926   3.972  17.808  0.00  0.00    +0.000 OA
ATOM     12  H   UNL     1       8.226   3.184  17.312  0.00  0.00    +0.000 HD
ENDBRANCH   4  11
ENDBRANCH   1  10
BRANCH   1  13
ATOM     13  C   UNL     1       3.074   4.838  18.899  0.00  0.00    +0.000 A 
ATOM     14  C   UNL     1       2.407   6.079  19.052  0.00  0.00    +0.000 A 
ATOM     15  C   UNL     1       1.617   6.366  20.162  0.00  0.00    +0.000 A 
ATOM     16  C   UNL     1       1.462   5.404  21.149  0.00  0.00    +0.000 A 
ATOM     17  C   UNL     1       2.103   4.169  21.031  0.00  0.00    +0.000 A 
ATOM     18 CL   UNL     1       1.817   3.026  22.300  0.00  0.00    +0.000 Cl
ATOM     19  C   UNL     1       2.908   3.874  19.909  0.00  0.00    +0.000 A 
ATOM     20 CL   UNL     1       3.652   2.315  19.766  0.00  0.00    +0.000 Cl
ENDBRANCH   1  13
BRANCH   1  21
ATOM     21  C   UNL     1       3.354   3.207  17.005  0.00  0.00    +0.000 C 
ATOM     22  O   UNL     1       2.221   2.934  16.632  0.00  0.00    +0.000 OA
BRANCH  21  23
ATOM     23  O   UNL     1       4.375   2.321  16.977  0.00  0.00    +0.000 OA
ATOM     24  H   UNL     1       5.228   2.774  17.126  0.00  0.00    +0.000 HD
ENDBRANCH  21  23
ENDBRANCH   1  21
TORSDOF 5
ENDMDL
