MODEL 1
REMARK VINA RESULT:      -8.2      0.000      0.000
REMARK  Name = 
REMARK  3 active torsions:
REMARK  status: ('A' for Active; 'I' for Inactive)
REMARK    1  A    between atoms: C_1  and  C_2
REMARK    2  A    between atoms: C_5  and  C_6
REMARK    3  A    between atoms: N_8  and  C_9
REMARK                            x       y       z     vdW  Elec       q    Type
REMARK                         _______ _______ _______ _____ _____    ______ ____
ROOT
ATOM      1  C   UNL     1       1.591   8.743  19.014  0.00  0.00    +0.000 A 
ATOM      2  C   UNL     1       0.772   9.713  18.431  0.00  0.00    +0.000 A 
ATOM      3  C   UNL     1      -0.063  10.523  19.210  0.00  0.00    +0.000 A 
ATOM      4  C   UNL     1      -0.121  10.402  20.586  0.00  0.00    +0.000 A 
ATOM      5  N   UNL     1      -0.931  11.208  21.286  0.00  0.00    +0.000 NA
ATOM      6  C   UNL     1      -0.966  11.052  22.611  0.00  0.00    +0.000 A 
ATOM      7  N   UNL     1      -1.851  11.836  23.318  0.00  0.00    +0.000 N 
ATOM      8  N   UNL     1      -0.211  10.191  23.296  0.00  0.00    +0.000 NA
ATOM      9  C   UNL     1       0.590   9.386  22.562  0.00  0.00    +0.000 A 
ATOM     10  C   UNL     1       0.680   9.425  21.180  0.00  0.00    +0.000 A 
ATOM     11  C   UNL     1       1.517   8.576  20.398  0.00  0.00    +0.000 A 
ATOM     12  H   UNL     1      -2.107  12.660  22.793  0.00  0.00    +0.000 HD
ATOM     13  H   UNL     1      -1.569  11.945  24.279  0.00  0.00    +0.000 HD
ENDROOT
BRANCH   1  16
ATOM     14  C   UNL     1       2.793   6.619  18.550  0.00  0.00    +0.000 C 
ATOM     15  O   UNL     1       2.306   5.965  19.468  0.00  0.00    +0.000 OA
ATOM     16  N   UNL     1       2.497   7.946  18.260  0.00  0.00    +0.000 N 
ATOM     17  H   UNL     1       2.796   8.308  17.363  0.00  0.00    +0.000 HD
BRANCH  14  22
ATOM     18  C   UNL     1       6.300   4.051  14.697  0.00  0.00    +0.000 C 
ATOM     19  C   UNL     1       5.401   4.692  15.716  0.00  0.00    +0.000 A 
ATOM     20  C   UNL     1       5.403   6.077  15.889  0.00  0.00    +0.000 A 
ATOM     21  C   UNL     1       4.558   6.666  16.830  0.00  0.00    +0.000 A 
ATOM     22  C   UNL     1       3.702   5.888  17.622  0.00  0.00    +0.000 A 
ATOM     23  C   UNL     1       3.690   4.500  17.454  0.00  0.00    +0.000 A 
ATOM     24  C   UNL     1       4.539   3.909  16.503  0.00  0.00    +0.000 A 
ENDBRANCH  14  22
ENDBRANCH   1  16
TORSDOF 2
ENDMDL
MODEL 2
REMARK VINA RESULT:      -8.1      6.152      8.957
REMARK  Name = 
REMARK  3 active torsions:
REMARK  status: ('A' for Active; 'I' for Inactive)
REMARK    1  A    between atoms: C_1  and  C_2
REMARK    2  A    between atoms: C_5  and  C_6
REMARK    3  A    between atoms: N_8  and  C_9
REMARK                            x       y       z     vdW  Elec       q    Type
REMARK                         _______ _______ _______ _____ _____    ______ ____
ROOT
ATOM      1  C   UNL     1       7.653   8.005  17.849  0.00  0.00    +0.000 A 
ATOM      2  C   UNL     1       8.268   7.052  18.666  0.00  0.00    +0.000 A 
ATOM      3  C   UNL     1       7.699   5.788  18.863  0.00  0.00    +0.000 A 
ATOM      4  C   UNL     1       6.506   5.422  18.267  0.00  0.00    +0.000 A 
ATOM      5  N   UNL     1       6.009   4.197  18.482  0.00  0.00    +0.000 NA
ATOM      6  C   UNL     1       4.851   3.887  17.897  0.00  0.00    +0.000 A 
ATOM      7  N   UNL     1       4.311   2.651  18.177  0.00  0.00    +0.000 N 
ATOM      8  N   UNL     1       4.180   4.688  17.067  0.00  0.00    +0.000 NA
ATOM      9  C   UNL     1       4.701   5.920  16.876  0.00  0.00    +0.000 A 
ATOM     10  C   UNL     1       5.872   6.371  17.462  0.00  0.00    +0.000 A 
ATOM     11  C   UNL     1       6.427   7.671  17.271  0.00  0.00    +0.000 A 
ATOM     12  H   UNL     1       5.019   2.011  18.507  0.00  0.00    +0.000 HD
ATOM     13  H   UNL     1       3.684   2.344  17.449  0.00  0.00    +0.000 HD
ENDROOT
BRANCH   1  16
ATOM     14  C   UNL     1       8.874  10.058  18.530  0.00  0.00    +0.000 C 
ATOM     15  O   UNL     1       9.038   9.754  19.708  0.00  0.00    +0.000 OA
ATOM     16  N   UNL     1       8.233   9.275  17.577  0.00  0.00    +0.000 N 
ATOM     17  H   UNL     1       8.346   9.533  16.604  0.00  0.00    +0.000 HD
BRANCH  14  22
ATOM     18  C   UNL     1      11.616  14.942  16.992  0.00  0.00    +0.000 C 
ATOM     19  C   UNL     1      10.884  13.685  17.366  0.00  0.00    +0.000 A 
ATOM     20  C   UNL     1      11.588  12.506  17.621  0.00  0.00    +0.000 A 
ATOM     21  C   UNL     1      10.903  11.345  17.977  0.00  0.00    +0.000 A 
ATOM     22  C   UNL     1       9.504  11.331  18.078  0.00  0.00    +0.000 A 
ATOM     23  C   UNL     1       8.791  12.507  17.830  0.00  0.00    +0.000 A 
ATOM     24  C   UNL     1       9.483  13.677  17.474  0.00  0.00    +0.000 A 
ENDBRANCH  14  22
ENDBRANCH   1  16
TORSDOF 2
ENDMDL
MODEL 3
REMARK VINA RESULT:      -8.0      6.245      9.048
REMARK  Name = 
REMARK  3 active torsions:
REMARK  status: ('A' for Active; 'I' for Inactive)
REMARK    1  A    between atoms: C_1  and  C_2
REMARK    2  A    between atoms: C_5  and  C_6
REMARK    3  A    between atoms: N_8  and  C_9
REMARK                            x       y       z     vdW  Elec       q    Type
REMARK                         _______ _______ _______ _____ _____    ______ ____
ROOT
ATOM      1  C   UNL     1       7.820   8.132  17.916  0.00  0.00    +0.000 A 
ATOM      2  C   UNL     1       8.366   7.185  18.787  0.00  0.00    +0.000 A 
ATOM      3  C   UNL     1       7.774   5.927  18.956  0.00  0.00    +0.000 A 
ATOM      4  C   UNL     1       6.626   5.562  18.276  0.00  0.00    +0.000 A 
ATOM      5  N   UNL     1       6.106   4.342  18.467  0.00  0.00    +0.000 NA
ATOM      6  C   UNL     1       4.992   4.033  17.800  0.00  0.00    +0.000 A 
ATOM      7  N   UNL     1       4.423   2.805  18.053  0.00  0.00    +0.000 N 
ATOM      8  N   UNL     1       4.391   4.828  16.913  0.00  0.00    +0.000 NA
ATOM      9  C   UNL     1       4.935   6.054  16.748  0.00  0.00    +0.000 A 
ATOM     10  C   UNL     1       6.062   6.505  17.415  0.00  0.00    +0.000 A 
ATOM     11  C   UNL     1       6.639   7.798  17.251  0.00  0.00    +0.000 A 
ATOM     12  H   UNL     1       5.100   2.164  18.443  0.00  0.00    +0.000 HD
ATOM     13  H   UNL     1       3.851   2.492  17.284  0.00  0.00    +0.000 HD
ENDROOT
BRANCH   1  16
ATOM     14  C   UNL     1       8.988  10.192  18.664  0.00  0.00    +0.000 C 
ATOM     15  O   UNL     1       9.046   9.909  19.858  0.00  0.00    +0.000 OA
ATOM     16  N   UNL     1       8.429   9.394  17.673  0.00  0.00    +0.000 N 
ATOM     17  H   UNL     1       8.628   9.634  16.710  0.00  0.00    +0.000 HD
BRANCH  14  22
ATOM     18  C   UNL     1      11.289  15.225  16.901  0.00  0.00    +0.000 C 
ATOM     19  C   UNL     1      10.722  13.917  17.373  0.00  0.00    +0.000 A 
ATOM     20  C   UNL     1       9.411  13.844  17.849  0.00  0.00    +0.000 A 
ATOM     21  C   UNL     1       8.888  12.624  18.276  0.00  0.00    +0.000 A 
ATOM     22  C   UNL     1       9.662  11.455  18.248  0.00  0.00    +0.000 A 
ATOM     23  C   UNL     1      10.974  11.516  17.770  0.00  0.00    +0.000 A 
ATOM     24  C   UNL     1      11.498  12.746  17.336  0.00  0.00    +0.000 A 
ENDBRANCH  14  22
ENDBRANCH   1  16
TORSDOF 2
ENDMDL
MODEL 4
REMARK VINA RESULT:      -8.0      0.218      1.073
REMARK  Name = 
REMARK  3 active torsions:
REMARK  status: ('A' for Active; 'I' for Inactive)
REMARK    1  A    between atoms: C_1  and  C_2
REMARK    2  A    between atoms: C_5  and  C_6
REMARK    3  A    between atoms: N_8  and  C_9
REMARK                            x       y       z     vdW  Elec       q    Type
REMARK                         _______ _______ _______ _____ _____    ______ ____
ROOT
ATOM      1  C   UNL     1       1.471   8.903  19.043  0.00  0.00    +0.000 A 
ATOM      2  C   UNL     1       0.621   9.858  18.479  0.00  0.00    +0.000 A 
ATOM      3  C   UNL     1      -0.227  10.636  19.277  0.00  0.00    +0.000 A 
ATOM      4  C   UNL     1      -0.269  10.497  20.652  0.00  0.00    +0.000 A 
ATOM      5  N   UNL     1      -1.092  11.273  21.370  0.00  0.00    +0.000 NA
ATOM      6  C   UNL     1      -1.110  11.101  22.692  0.00  0.00    +0.000 A 
ATOM      7  N   UNL     1      -2.008  11.852  23.417  0.00  0.00    +0.000 N 
ATOM      8  N   UNL     1      -0.326  10.251  23.359  0.00  0.00    +0.000 NA
ATOM      9  C   UNL     1       0.488   9.477  22.608  0.00  0.00    +0.000 A 
ATOM     10  C   UNL     1       0.563   9.534  21.226  0.00  0.00    +0.000 A 
ATOM     11  C   UNL     1       1.415   8.717  20.425  0.00  0.00    +0.000 A 
ATOM     12  H   UNL     1      -2.290  12.675  22.905  0.00  0.00    +0.000 HD
ATOM     13  H   UNL     1      -1.719  11.957  24.377  0.00  0.00    +0.000 HD
ENDROOT
BRANCH   1  16
ATOM     14  C   UNL     1       2.694   6.806  18.517  0.00  0.00    +0.000 C 
ATOM     15  O   UNL     1       2.204   6.117  19.408  0.00  0.00    +0.000 OA
ATOM     16  N   UNL     1       2.389   8.140  18.270  0.00  0.00    +0.000 N 
ATOM     17  H   UNL     1       2.693   8.534  17.389  0.00  0.00    +0.000 HD
BRANCH  14  22
ATOM     18  C   UNL     1       6.304   3.825  15.080  0.00  0.00    +0.000 C 
ATOM     19  C   UNL     1       5.366   4.618  15.944  0.00  0.00    +0.000 A 
ATOM     20  C   UNL     1       4.387   3.974  16.703  0.00  0.00    +0.000 A 
ATOM     21  C   UNL     1       3.526   4.715  17.511  0.00  0.00    +0.000 A 
ATOM     22  C   UNL     1       3.616   6.113  17.574  0.00  0.00    +0.000 A 
ATOM     23  C   UNL     1       4.596   6.768  16.821  0.00  0.00    +0.000 A 
ATOM     24  C   UNL     1       5.465   6.018  16.010  0.00  0.00    +0.000 A 
ENDBRANCH  14  22
ENDBRANCH   1  16
TORSDOF 2
ENDMDL
MODEL 5
REMARK VINA RESULT:      -8.0      2.445      8.458
REMARK  Name = 
REMARK  3 active torsions:
REMARK  status: ('A' for Active; 'I' for Inactive)
REMARK    1  A    between atoms: C_1  and  C_2
REMARK    2  A    between atoms: C_5  and  C_6
REMARK    3  A    between atoms: N_8  and  C_9
REMARK                            x       y       z     vdW  Elec       q    Type
REMARK                         _______ _______ _______ _____ _____    ______ ____
ROOT
ATOM      1  C   UNL     1       2.711   6.765  18.654  0.00  0.00    +0.000 A 
ATOM      2  C   UNL     1       2.407   5.402  18.651  0.00  0.00    +0.000 A 
ATOM      3  C   UNL     1       3.112   4.502  17.842  0.00  0.00    +0.000 A 
ATOM      4  C   UNL     1       4.136   4.916  17.009  0.00  0.00    +0.000 A 
ATOM      5  N   UNL     1       4.784   4.013  16.262  0.00  0.00    +0.000 NA
ATOM      6  C   UNL     1       5.758   4.454  15.464  0.00  0.00    +0.000 A 
ATOM      7  N   UNL     1       6.374   3.532  14.647  0.00  0.00    +0.000 N 
ATOM      8  N   UNL     1       6.172   5.721  15.397  0.00  0.00    +0.000 NA
ATOM      9  C   UNL     1       5.493   6.610  16.156  0.00  0.00    +0.000 A 
ATOM     10  C   UNL     1       4.438   6.279  16.990  0.00  0.00    +0.000 A 
ATOM     11  C   UNL     1       3.713   7.210  17.790  0.00  0.00    +0.000 A 
ATOM     12  H   UNL     1       6.253   2.594  15.001  0.00  0.00    +0.000 HD
ATOM     13  H   UNL     1       7.299   3.830  14.378  0.00  0.00    +0.000 HD
ENDROOT
BRANCH   1  16
ATOM     14  C   UNL     1       1.382   8.825  19.057  0.00  0.00    +0.000 C 
ATOM     15  O   UNL     1       1.246   9.151  17.881  0.00  0.00    +0.000 OA
ATOM     16  N   UNL     1       2.058   7.697  19.508  0.00  0.00    +0.000 N 
ATOM     17  H   UNL     1       1.922   7.424  20.474  0.00  0.00    +0.000 HD
BRANCH  14  22
ATOM     18  C   UNL     1      -1.475  11.794  23.150  0.00  0.00    +0.000 C 
ATOM     19  C   UNL     1      -0.723  11.055  22.081  0.00  0.00    +0.000 A 
ATOM     20  C   UNL     1      -0.075   9.853  22.374  0.00  0.00    +0.000 A 
ATOM     21  C   UNL     1       0.613   9.166  21.374  0.00  0.00    +0.000 A 
ATOM     22  C   UNL     1       0.678   9.667  20.065  0.00  0.00    +0.000 A 
ATOM     23  C   UNL     1       0.030  10.867  19.761  0.00  0.00    +0.000 A 
ATOM     24  C   UNL     1      -0.666  11.556  20.769  0.00  0.00    +0.000 A 
ENDBRANCH  14  22
ENDBRANCH   1  16
TORSDOF 2
ENDMDL
MODEL 6
REMARK VINA RESULT:      -8.0      3.031      8.356
REMARK  Name = 
REMARK  3 active torsions:
REMARK  status: ('A' for Active; 'I' for Inactive)
REMARK    1  A    between atoms: C_1  and  C_2
REMARK    2  A    between atoms: C_5  and  C_6
REMARK    3  A    between atoms: N_8  and  C_9
REMARK                            x       y       z     vdW  Elec       q    Type
REMARK                         _______ _______ _______ _____ _____    ______ ____
ROOT
ATOM      1  C   UNL     1       2.113   6.474  20.347  0.00  0.00    +0.000 A 
ATOM      2  C   UNL     1       3.180   6.593  19.453  0.00  0.00    +0.000 A 
ATOM      3  C   UNL     1       3.723   5.470  18.816  0.00  0.00    +0.000 A 
ATOM      4  C   UNL     1       3.237   4.195  19.042  0.00  0.00    +0.000 A 
ATOM      5  N   UNL     1       3.787   3.156  18.400  0.00  0.00    +0.000 NA
ATOM      6  C   UNL     1       3.296   1.941  18.654  0.00  0.00    +0.000 A 
ATOM      7  N   UNL     1       3.910   0.870  18.045  0.00  0.00    +0.000 N 
ATOM      8  N   UNL     1       2.259   1.692  19.456  0.00  0.00    +0.000 NA
ATOM      9  C   UNL     1       1.730   2.760  20.095  0.00  0.00    +0.000 A 
ATOM     10  C   UNL     1       2.182   4.061  19.947  0.00  0.00    +0.000 A 
ATOM     11  C   UNL     1       1.634   5.191  20.621  0.00  0.00    +0.000 A 
ATOM     12  H   UNL     1       4.424   1.162  17.226  0.00  0.00    +0.000 HD
ATOM     13  H   UNL     1       3.292   0.078  17.969  0.00  0.00    +0.000 HD
ENDROOT
BRANCH   1  16
ATOM     14  C   UNL     1       1.172   8.772  20.293  0.00  0.00    +0.000 C 
ATOM     15  O   UNL     1       1.355   8.983  19.097  0.00  0.00    +0.000 OA
ATOM     16  N   UNL     1       1.497   7.598  20.963  0.00  0.00    +0.000 N 
ATOM     17  H   UNL     1       1.108   7.464  21.889  0.00  0.00    +0.000 HD
BRANCH  14  22
ATOM     18  C   UNL     1      -1.854  12.655  23.374  0.00  0.00    +0.000 C 
ATOM     19  C   UNL     1      -1.049  11.675  22.571  0.00  0.00    +0.000 A 
ATOM     20  C   UNL     1      -0.860  10.370  23.031  0.00  0.00    +0.000 A 
ATOM     21  C   UNL     1      -0.119   9.461  22.276  0.00  0.00    +0.000 A 
ATOM     22  C   UNL     1       0.456   9.835  21.053  0.00  0.00    +0.000 A 
ATOM     23  C   UNL     1       0.269  11.138  20.581  0.00  0.00    +0.000 A 
ATOM     24  C   UNL     1      -0.481  12.051  21.342  0.00  0.00    +0.000 A 
ENDBRANCH  14  22
ENDBRANCH   1  16
TORSDOF 2
ENDMDL
MODEL 7
REMARK VINA RESULT:      -7.9      2.460      8.435
REMARK  Name = 
REMARK  3 active torsions:
REMARK  status: ('A' for Active; 'I' for Inactive)
REMARK    1  A    between atoms: C_1  and  C_2
REMARK    2  A    between atoms: C_5  and  C_6
REMARK    3  A    between atoms: N_8  and  C_9
REMARK                            x       y       z     vdW  Elec       q    Type
REMARK                         _______ _______ _______ _____ _____    ______ ____
ROOT
ATOM      1  C   UNL     1       2.740   6.496  18.695  0.00  0.00    +0.000 A 
ATOM      2  C   UNL     1       2.502   5.120  18.650  0.00  0.00    +0.000 A 
ATOM      3  C   UNL     1       3.226   4.286  17.788  0.00  0.00    +0.000 A 
ATOM      4  C   UNL     1       4.203   4.780  16.943  0.00  0.00    +0.000 A 
ATOM      5  N   UNL     1       4.872   3.937  16.144  0.00  0.00    +0.000 NA
ATOM      6  C   UNL     1       5.799   4.454  15.336  0.00  0.00    +0.000 A 
ATOM      7  N   UNL     1       6.435   3.594  14.469  0.00  0.00    +0.000 N 
ATOM      8  N   UNL     1       6.149   5.742  15.305  0.00  0.00    +0.000 NA
ATOM      9  C   UNL     1       5.451   6.568  16.116  0.00  0.00    +0.000 A 
ATOM     10  C   UNL     1       4.438   6.156  16.966  0.00  0.00    +0.000 A 
ATOM     11  C   UNL     1       3.693   7.021  17.820  0.00  0.00    +0.000 A 
ATOM     12  H   UNL     1       6.370   2.639  14.791  0.00  0.00    +0.000 HD
ATOM     13  H   UNL     1       7.335   3.947  14.185  0.00  0.00    +0.000 HD
ENDROOT
BRANCH   1  16
ATOM     14  C   UNL     1       1.465   8.559  19.232  0.00  0.00    +0.000 C 
ATOM     15  O   UNL     1       1.417   9.009  18.090  0.00  0.00    +0.000 OA
ATOM     16  N   UNL     1       2.069   7.363  19.601  0.00  0.00    +0.000 N 
ATOM     17  H   UNL     1       1.861   6.998  20.523  0.00  0.00    +0.000 HD
BRANCH  14  22
ATOM     18  C   UNL     1      -1.334  11.846  23.116  0.00  0.00    +0.000 C 
ATOM     19  C   UNL     1      -0.622  10.969  22.128  0.00  0.00    +0.000 A 
ATOM     20  C   UNL     1      -0.676  11.253  20.762  0.00  0.00    +0.000 A 
ATOM     21  C   UNL     1      -0.003  10.440  19.850  0.00  0.00    +0.000 A 
ATOM     22  C   UNL     1       0.730   9.324  20.278  0.00  0.00    +0.000 A 
ATOM     23  C   UNL     1       0.794   9.033  21.644  0.00  0.00    +0.000 A 
ATOM     24  C   UNL     1       0.119   9.856  22.562  0.00  0.00    +0.000 A 
ENDBRANCH  14  22
ENDBRANCH   1  16
TORSDOF 2
ENDMDL
MODEL 8
REMARK VINA RESULT:      -7.8      2.337      8.434
REMARK  Name = 
REMARK  3 active torsions:
REMARK  status: ('A' for Active; 'I' for Inactive)
REMARK    1  A    between atoms: C_1  and  C_2
REMARK    2  A    between atoms: C_5  and  C_6
REMARK    3  A    between atoms: N_8  and  C_9
REMARK                            x       y       z     vdW  Elec       q    Type
REMARK                         _______ _______ _______ _____ _____    ______ ____
ROOT
ATOM      1  C   UNL     1       2.544   7.164  18.507  0.00  0.00    +0.000 A 
ATOM      2  C   UNL     1       2.161   5.823  18.593  0.00  0.00    +0.000 A 
ATOM      3  C   UNL     1       2.895   4.815  17.955  0.00  0.00    +0.000 A 
ATOM      4  C   UNL     1       4.026   5.095  17.210  0.00  0.00    +0.000 A 
ATOM      5  N   UNL     1       4.697   4.093  16.626  0.00  0.00    +0.000 NA
ATOM      6  C   UNL     1       5.776   4.405  15.907  0.00  0.00    +0.000 A 
ATOM      7  N   UNL     1       6.421   3.379  15.253  0.00  0.00    +0.000 N 
ATOM      8  N   UNL     1       6.270   5.638  15.774  0.00  0.00    +0.000 NA
ATOM      9  C   UNL     1       5.567   6.629  16.367  0.00  0.00    +0.000 A 
ATOM     10  C   UNL     1       4.410   6.433  17.102  0.00  0.00    +0.000 A 
ATOM     11  C   UNL     1       3.659   7.473  17.726  0.00  0.00    +0.000 A 
ATOM     12  H   UNL     1       6.206   2.487  15.675  0.00  0.00    +0.000 HD
ATOM     13  H   UNL     1       7.386   3.604  15.065  0.00  0.00    +0.000 HD
ENDROOT
BRANCH   1  16
ATOM     14  C   UNL     1       1.359   8.088  20.485  0.00  0.00    +0.000 C 
ATOM     15  O   UNL     1       1.457   7.094  21.199  0.00  0.00    +0.000 OA
ATOM     16  N   UNL     1       1.860   8.205  19.193  0.00  0.00    +0.000 N 
ATOM     17  H   UNL     1       1.905   9.133  18.790  0.00  0.00    +0.000 HD
BRANCH  14  22
ATOM     18  C   UNL     1      -1.336  12.555  23.038  0.00  0.00    +0.000 C 
ATOM     19  C   UNL     1      -0.614  11.420  22.370  0.00  0.00    +0.000 A 
ATOM     20  C   UNL     1      -0.554  10.164  22.977  0.00  0.00    +0.000 A 
ATOM     21  C   UNL     1       0.109   9.112  22.346  0.00  0.00    +0.000 A 
ATOM     22  C   UNL     1       0.735   9.291  21.104  0.00  0.00    +0.000 A 
ATOM     23  C   UNL     1       0.677  10.544  20.486  0.00  0.00    +0.000 A 
ATOM     24  C   UNL     1       0.005  11.602  21.121  0.00  0.00    +0.000 A 
ENDBRANCH  14  22
ENDBRANCH   1  16
TORSDOF 2
ENDMDL
MODEL 9
REMARK VINA RESULT:      -7.6      2.949      8.272
REMARK  Name = 
REMARK  3 active torsions:
REMARK  status: ('A' for Active; 'I' for Inactive)
REMARK    1  A    between atoms: C_1  and  C_2
REMARK    2  A    between atoms: C_5  and  C_6
REMARK    3  A    between atoms: N_8  and  C_9
REMARK                            x       y       z     vdW  Elec       q    Type
REMARK                         _______ _______ _______ _____ _____    ______ ____
ROOT
ATOM      1  C   UNL     1       2.047   6.799  20.310  0.00  0.00    +0.000 A 
ATOM      2  C   UNL     1       2.967   6.959  19.270  0.00  0.00    +0.000 A 
ATOM      3  C   UNL     1       3.511   5.853  18.606  0.00  0.00    +0.000 A 
ATOM      4  C   UNL     1       3.171   4.556  18.945  0.00  0.00    +0.000 A 
ATOM      5  N   UNL     1       3.715   3.533  18.271  0.00  0.00    +0.000 NA
ATOM      6  C   UNL     1       3.368   2.297  18.636  0.00  0.00    +0.000 A 
ATOM      7  N   UNL     1       3.982   1.250  17.987  0.00  0.00    +0.000 N 
ATOM      8  N   UNL     1       2.476   2.006  19.585  0.00  0.00    +0.000 NA
ATOM      9  C   UNL     1       1.951   3.058  20.252  0.00  0.00    +0.000 A 
ATOM     10  C   UNL     1       2.266   4.382  19.993  0.00  0.00    +0.000 A 
ATOM     11  C   UNL     1       1.721   5.497  20.695  0.00  0.00    +0.000 A 
ATOM     12  H   UNL     1       4.351   1.542  17.093  0.00  0.00    +0.000 HD
ATOM     13  H   UNL     1       3.429   0.408  18.028  0.00  0.00    +0.000 HD
ENDROOT
BRANCH   1  16
ATOM     14  C   UNL     1       0.990   9.046  20.312  0.00  0.00    +0.000 C 
ATOM     15  O   UNL     1       1.063   9.250  19.103  0.00  0.00    +0.000 OA
ATOM     16  N   UNL     1       1.427   7.899  20.964  0.00  0.00    +0.000 N 
ATOM     17  H   UNL     1       1.123   7.758  21.920  0.00  0.00    +0.000 HD
BRANCH  14  22
ATOM     18  C   UNL     1      -1.474  13.318  23.381  0.00  0.00    +0.000 C 
ATOM     19  C   UNL     1      -0.865  12.195  22.591  0.00  0.00    +0.000 A 
ATOM     20  C   UNL     1      -0.149  12.460  21.422  0.00  0.00    +0.000 A 
ATOM     21  C   UNL     1       0.423  11.414  20.699  0.00  0.00    +0.000 A 
ATOM     22  C   UNL     1       0.286  10.083  21.119  0.00  0.00    +0.000 A 
ATOM     23  C   UNL     1      -0.426   9.808  22.290  0.00  0.00    +0.000 A 
ATOM     24  C   UNL     1      -0.998  10.864  23.020  0.00  0.00    +0.000 A 
ENDBRANCH  14  22
ENDBRANCH   1  16
TORSDOF 2
ENDMDL
