MODEL 1
REMARK VINA RESULT:      -4.7      0.000      0.000
REMARK  Name = 
REMARK  2 active torsions:
REMARK  status: ('A' for Active; 'I' for Inactive)
REMARK    1  A    between atoms: C_2  and  C_5
REMARK    2  A    between atoms: N_3  and  O_4
REMARK                            x       y       z     vdW  Elec       q    Type
REMARK                         _______ _______ _______ _____ _____    ______ ____
ROOT
ATOM      1  O   UNL     1       6.306   4.777  19.453  0.00  0.00    +0.000 OA
ATOM      2  C   UNL     1       7.183   5.574  19.111  0.00  0.00    +0.000 C 
ATOM      3  N   UNL     1       8.286   5.792  19.911  0.00  0.00    +0.000 N 
ATOM      4  H   UNL     1       9.046   6.432  19.693  0.00  0.00    +0.000 HD
ENDROOT
BRANCH   2   5
ATOM      5  C   UNL     1       7.166   6.394  17.814  0.00  0.00    +0.000 C 
ATOM      6  F   UNL     1       8.071   7.416  17.842  0.00  0.00    +0.000 F 
ATOM      7  F   UNL     1       7.474   5.645  16.719  0.00  0.00    +0.000 F 
ATOM      8  F   UNL     1       5.955   6.965  17.572  0.00  0.00    +0.000 F 
ENDBRANCH   2   5
BRANCH   3   9
ATOM      9  O   UNL     1       8.359   5.069  21.120  0.00  0.00    +0.000 OA
ATOM     10  H   UNL     1       7.426   5.067  21.432  0.00  0.00    +0.000 HD
ENDBRANCH   3   9
TORSDOF 2
ENDMDL
MODEL 2
REMARK VINA RESULT:      -4.7      3.038      3.533
REMARK  Name = 
REMARK  2 active torsions:
REMARK  status: ('A' for Active; 'I' for Inactive)
REMARK    1  A    between atoms: C_2  and  C_5
REMARK    2  A    between atoms: N_3  and  O_4
REMARK                            x       y       z     vdW  Elec       q    Type
REMARK                         _______ _______ _______ _____ _____    ______ ____
ROOT
ATOM      1  O   UNL     1       7.600   6.312  16.388  0.00  0.00    +0.000 OA
ATOM      2  C   UNL     1       6.761   5.408  16.380  0.00  0.00    +0.000 C 
ATOM      3  N   UNL     1       7.012   4.210  17.016  0.00  0.00    +0.000 N 
ATOM      4  H   UNL     1       6.369   3.423  17.052  0.00  0.00    +0.000 HD
ENDROOT
BRANCH   2   5
ATOM      5  C   UNL     1       5.391   5.488  15.694  0.00  0.00    +0.000 C 
ATOM      6  F   UNL     1       4.402   4.935  16.457  0.00  0.00    +0.000 F 
ATOM      7  F   UNL     1       5.005   6.769  15.443  0.00  0.00    +0.000 F 
ATOM      8  F   UNL     1       5.364   4.830  14.503  0.00  0.00    +0.000 F 
ENDBRANCH   2   5
BRANCH   3   9
ATOM      9  O   UNL     1       8.258   4.073  17.665  0.00  0.00    +0.000 OA
ATOM     10  H   UNL     1       8.893   4.028  16.916  0.00  0.00    +0.000 HD
ENDBRANCH   3   9
TORSDOF 2
ENDMDL
MODEL 3
REMARK VINA RESULT:      -4.6      3.058      3.495
REMARK  Name = 
REMARK  2 active torsions:
REMARK  status: ('A' for Active; 'I' for Inactive)
REMARK    1  A    between atoms: C_2  and  C_5
REMARK    2  A    between atoms: N_3  and  O_4
REMARK                            x       y       z     vdW  Elec       q    Type
REMARK                         _______ _______ _______ _____ _____    ______ ____
ROOT
ATOM      1  O   UNL     1       7.607   6.256  16.241  0.00  0.00    +0.000 OA
ATOM      2  C   UNL     1       6.732   5.390  16.322  0.00  0.00    +0.000 C 
ATOM      3  N   UNL     1       6.958   4.226  17.028  0.00  0.00    +0.000 N 
ATOM      4  H   UNL     1       6.285   3.472  17.139  0.00  0.00    +0.000 HD
ENDROOT
BRANCH   2   5
ATOM      5  C   UNL     1       5.341   5.484  15.681  0.00  0.00    +0.000 C 
ATOM      6  F   UNL     1       5.305   4.896  14.448  0.00  0.00    +0.000 F 
ATOM      7  F   UNL     1       4.380   4.869  16.423  0.00  0.00    +0.000 F 
ATOM      8  F   UNL     1       4.935   6.771  15.500  0.00  0.00    +0.000 F 
ENDBRANCH   2   5
BRANCH   3   9
ATOM      9  O   UNL     1       8.220   4.079  17.641  0.00  0.00    +0.000 OA
ATOM     10  H   UNL     1       8.143   3.213  18.100  0.00  0.00    +0.000 HD
ENDBRANCH   3   9
TORSDOF 2
ENDMDL
MODEL 4
REMARK VINA RESULT:      -4.5      6.139      6.817
REMARK  Name = 
REMARK  2 active torsions:
REMARK  status: ('A' for Active; 'I' for Inactive)
REMARK    1  A    between atoms: C_2  and  C_5
REMARK    2  A    between atoms: N_3  and  O_4
REMARK                            x       y       z     vdW  Elec       q    Type
REMARK                         _______ _______ _______ _____ _____    ______ ____
ROOT
ATOM      1  O   UNL     1       3.372   2.821  20.055  0.00  0.00    +0.000 OA
ATOM      2  C   UNL     1       2.555   2.444  19.210  0.00  0.00    +0.000 C 
ATOM      3  N   UNL     1       2.867   1.421  18.338  0.00  0.00    +0.000 N 
ATOM      4  H   UNL     1       2.246   1.058  17.619  0.00  0.00    +0.000 HD
ENDROOT
BRANCH   2   5
ATOM      5  C   UNL     1       1.152   3.035  19.021  0.00  0.00    +0.000 C 
ATOM      6  F   UNL     1       0.256   2.098  18.591  0.00  0.00    +0.000 F 
ATOM      7  F   UNL     1       0.641   3.548  20.174  0.00  0.00    +0.000 F 
ATOM      8  F   UNL     1       1.126   4.036  18.100  0.00  0.00    +0.000 F 
ENDBRANCH   2   5
BRANCH   3   9
ATOM      9  O   UNL     1       4.146   0.837  18.460  0.00  0.00    +0.000 OA
ATOM     10  H   UNL     1       4.180   0.219  17.696  0.00  0.00    +0.000 HD
ENDBRANCH   3   9
TORSDOF 2
ENDMDL
MODEL 5
REMARK VINA RESULT:      -4.4      3.129      3.606
REMARK  Name = 
REMARK  2 active torsions:
REMARK  status: ('A' for Active; 'I' for Inactive)
REMARK    1  A    between atoms: C_2  and  C_5
REMARK    2  A    between atoms: N_3  and  O_4
REMARK                            x       y       z     vdW  Elec       q    Type
REMARK                         _______ _______ _______ _____ _____    ______ ____
ROOT
ATOM      1  O   UNL     1       7.492   6.344  16.409  0.00  0.00    +0.000 OA
ATOM      2  C   UNL     1       7.100   5.193  16.199  0.00  0.00    +0.000 C 
ATOM      3  N   UNL     1       7.242   4.215  17.163  0.00  0.00    +0.000 N 
ATOM      4  H   UNL     1       6.943   3.248  17.061  0.00  0.00    +0.000 HD
ENDROOT
BRANCH   2   5
ATOM      5  C   UNL     1       6.437   4.714  14.901  0.00  0.00    +0.000 C 
ATOM      6  F   UNL     1       5.249   5.347  14.669  0.00  0.00    +0.000 F 
ATOM      7  F   UNL     1       7.210   4.941  13.804  0.00  0.00    +0.000 F 
ATOM      8  F   UNL     1       6.159   3.382  14.917  0.00  0.00    +0.000 F 
ENDBRANCH   2   5
BRANCH   3   9
ATOM      9  O   UNL     1       7.848   4.592  18.380  0.00  0.00    +0.000 OA
ATOM     10  H   UNL     1       8.127   3.731  18.764  0.00  0.00    +0.000 HD
ENDBRANCH   3   9
TORSDOF 2
ENDMDL
MODEL 6
REMARK VINA RESULT:      -4.4      6.025      6.567
REMARK  Name = 
REMARK  2 active torsions:
REMARK  status: ('A' for Active; 'I' for Inactive)
REMARK    1  A    between atoms: C_2  and  C_5
REMARK    2  A    between atoms: N_3  and  O_4
REMARK                            x       y       z     vdW  Elec       q    Type
REMARK                         _______ _______ _______ _____ _____    ______ ____
ROOT
ATOM      1  O   UNL     1       3.709   3.359  18.866  0.00  0.00    +0.000 OA
ATOM      2  C   UNL     1       2.676   2.715  18.665  0.00  0.00    +0.000 C 
ATOM      3  N   UNL     1       2.732   1.362  18.398  0.00  0.00    +0.000 N 
ATOM      4  H   UNL     1       1.925   0.769  18.224  0.00  0.00    +0.000 HD
ENDROOT
BRANCH   2   5
ATOM      5  C   UNL     1       1.258   3.301  18.681  0.00  0.00    +0.000 C 
ATOM      6  F   UNL     1       1.053   4.175  17.652  0.00  0.00    +0.000 F 
ATOM      7  F   UNL     1       0.296   2.345  18.565  0.00  0.00    +0.000 F 
ATOM      8  F   UNL     1       0.992   3.990  19.824  0.00  0.00    +0.000 F 
ENDBRANCH   2   5
BRANCH   3   9
ATOM      9  O   UNL     1       4.010   0.763  18.367  0.00  0.00    +0.000 OA
ATOM     10  H   UNL     1       3.899   0.042  17.708  0.00  0.00    +0.000 HD
ENDBRANCH   3   9
TORSDOF 2
ENDMDL
MODEL 7
REMARK VINA RESULT:      -4.3      2.914      3.282
REMARK  Name = 
REMARK  2 active torsions:
REMARK  status: ('A' for Active; 'I' for Inactive)
REMARK    1  A    between atoms: C_2  and  C_5
REMARK    2  A    between atoms: N_3  and  O_4
REMARK                            x       y       z     vdW  Elec       q    Type
REMARK                         _______ _______ _______ _____ _____    ______ ____
ROOT
ATOM      1  O   UNL     1       7.632   5.008  15.516  0.00  0.00    +0.000 OA
ATOM      2  C   UNL     1       6.769   4.847  16.383  0.00  0.00    +0.000 C 
ATOM      3  N   UNL     1       7.098   4.313  17.612  0.00  0.00    +0.000 N 
ATOM      4  H   UNL     1       6.442   4.153  18.373  0.00  0.00    +0.000 HD
ENDROOT
BRANCH   2   5
ATOM      5  C   UNL     1       5.284   5.202  16.221  0.00  0.00    +0.000 C 
ATOM      6  F   UNL     1       5.080   6.103  15.215  0.00  0.00    +0.000 F 
ATOM      7  F   UNL     1       4.518   4.117  15.921  0.00  0.00    +0.000 F 
ATOM      8  F   UNL     1       4.755   5.759  17.344  0.00  0.00    +0.000 F 
ENDBRANCH   2   5
BRANCH   3   9
ATOM      9  O   UNL     1       8.449   3.963  17.822  0.00  0.00    +0.000 OA
ATOM     10  H   UNL     1       8.934   4.756  17.502  0.00  0.00    +0.000 HD
ENDBRANCH   3   9
TORSDOF 2
ENDMDL
MODEL 8
REMARK VINA RESULT:      -4.3      2.899      3.501
REMARK  Name = 
REMARK  2 active torsions:
REMARK  status: ('A' for Active; 'I' for Inactive)
REMARK    1  A    between atoms: C_2  and  C_5
REMARK    2  A    between atoms: N_3  and  O_4
REMARK                            x       y       z     vdW  Elec       q    Type
REMARK                         _______ _______ _______ _____ _____    ______ ____
ROOT
ATOM      1  O   UNL     1       7.523   6.269  16.568  0.00  0.00    +0.000 OA
ATOM      2  C   UNL     1       7.095   5.112  16.537  0.00  0.00    +0.000 C 
ATOM      3  N   UNL     1       7.273   4.267  17.613  0.00  0.00    +0.000 N 
ATOM      4  H   UNL     1       6.948   3.304  17.658  0.00  0.00    +0.000 HD
ENDROOT
BRANCH   2   5
ATOM      5  C   UNL     1       6.344   4.485  15.354  0.00  0.00    +0.000 C 
ATOM      6  F   UNL     1       6.003   3.185  15.595  0.00  0.00    +0.000 F 
ATOM      7  F   UNL     1       5.183   5.136  15.068  0.00  0.00    +0.000 F 
ATOM      8  F   UNL     1       7.083   4.478  14.211  0.00  0.00    +0.000 F 
ENDBRANCH   2   5
BRANCH   3   9
ATOM      9  O   UNL     1       7.960   4.784  18.732  0.00  0.00    +0.000 OA
ATOM     10  H   UNL     1       8.878   4.889  18.398  0.00  0.00    +0.000 HD
ENDBRANCH   3   9
TORSDOF 2
ENDMDL
MODEL 9
REMARK VINA RESULT:      -4.3      4.003      4.612
REMARK  Name = 
REMARK  2 active torsions:
REMARK  status: ('A' for Active; 'I' for Inactive)
REMARK    1  A    between atoms: C_2  and  C_5
REMARK    2  A    between atoms: N_3  and  O_4
REMARK                            x       y       z     vdW  Elec       q    Type
REMARK                         _______ _______ _______ _____ _____    ______ ____
ROOT
ATOM      1  O   UNL     1       7.646   5.395  14.261  0.00  0.00    +0.000 OA
ATOM      2  C   UNL     1       7.064   4.715  15.110  0.00  0.00    +0.000 C 
ATOM      3  N   UNL     1       6.332   3.605  14.741  0.00  0.00    +0.000 N 
ATOM      4  H   UNL     1       5.828   2.999  15.384  0.00  0.00    +0.000 HD
ENDROOT
BRANCH   2   5
ATOM      5  C   UNL     1       7.073   4.997  16.619  0.00  0.00    +0.000 C 
ATOM      6  F   UNL     1       5.846   4.801  17.184  0.00  0.00    +0.000 F 
ATOM      7  F   UNL     1       7.936   4.191  17.296  0.00  0.00    +0.000 F 
ATOM      8  F   UNL     1       7.425   6.280  16.908  0.00  0.00    +0.000 F 
ENDBRANCH   2   5
BRANCH   3   9
ATOM      9  O   UNL     1       6.282   3.294  13.366  0.00  0.00    +0.000 OA
ATOM     10  H   UNL     1       6.974   3.878  12.982  0.00  0.00    +0.000 HD
ENDBRANCH   3   9
TORSDOF 2
ENDMDL
