MODEL 1
REMARK VINA RESULT:      -7.5      0.000      0.000
REMARK  Name = 
REMARK  9 active torsions:
REMARK  status: ('A' for Active; 'I' for Inactive)
REMARK    1  A    between atoms: C_1  and  O_2
REMARK    2  A    between atoms: O_2  and  C_3
REMARK    3  A    between atoms: C_6  and  C_7
REMARK    4  A    between atoms: N_8  and  N_9
REMARK    5  A    between atoms: C_13  and  S_14
REMARK    6  A    between atoms: S_14  and  C_15
REMARK    7  A    between atoms: C_15  and  C_16
REMARK    8  A    between atoms: C_19  and  O_20
REMARK    9  A    between atoms: O_20  and  C_21
REMARK                            x       y       z     vdW  Elec       q    Type
REMARK                         _______ _______ _______ _____ _____    ______ ____
ROOT
ATOM      1  N   UNL     1       2.094   4.340  20.641  0.00  0.00    +0.000 N 
ATOM      2  C   UNL     1       2.271   3.731  21.862  0.00  0.00    +0.000 A 
ATOM      3  N   UNL     1       2.777   2.529  21.714  0.00  0.00    +0.000 NA
ATOM      4  N   UNL     1       2.895   2.298  20.365  0.00  0.00    +0.000 NA
ATOM      5  C   UNL     1       2.468   3.369  19.729  0.00  0.00    +0.000 A 
ENDROOT
BRANCH   1   7
ATOM      6  C   UNL     1       2.410   6.482  19.921  0.00  0.00    +0.000 C 
ATOM      7  N   UNL     1       1.594   5.577  20.349  0.00  0.00    +0.000 NA
BRANCH   6  11
ATOM      8  C   UNL     1       0.981  10.407  19.023  0.00  0.00    +0.000 A 
ATOM      9  C   UNL     1       1.656   9.672  18.051  0.00  0.00    +0.000 A 
ATOM     10  C   UNL     1       2.109   8.382  18.332  0.00  0.00    +0.000 A 
ATOM     11  C   UNL     1       1.909   7.837  19.602  0.00  0.00    +0.000 A 
ATOM     12  C   UNL     1       1.250   8.576  20.589  0.00  0.00    +0.000 A 
ATOM     13  C   UNL     1       0.786   9.864  20.294  0.00  0.00    +0.000 A 
BRANCH   8  15
ATOM     14  C   UNL     1       0.748  12.685  19.606  0.00  0.00    +0.000 C 
ATOM     15  O   UNL     1       0.596  11.660  18.632  0.00  0.00    +0.000 OA
ENDBRANCH   8  15
ENDBRANCH   6  11
ENDBRANCH   1   7
BRANCH   5  16
ATOM     16  S   UNL     1       2.332   3.468  17.997  0.00  0.00    +0.000 S 
BRANCH  16  17
ATOM     17  C   UNL     1       3.925   2.881  17.371  0.00  0.00    +0.000 C 
BRANCH  17  18
ATOM     18  C   UNL     1       4.928   4.000  17.219  0.00  0.00    +0.000 A 
ATOM     19  C   UNL     1       5.531   4.243  15.976  0.00  0.00    +0.000 A 
ATOM     20  C   UNL     1       6.457   5.277  15.826  0.00  0.00    +0.000 A 
ATOM     21  C   UNL     1       6.787   6.093  16.907  0.00  0.00    +0.000 A 
ATOM     22  C   UNL     1       6.205   5.850  18.151  0.00  0.00    +0.000 A 
ATOM     23  C   UNL     1       5.281   4.809  18.307  0.00  0.00    +0.000 A 
BRANCH  21  24
ATOM     24  O   UNL     1       7.716   7.062  16.642  0.00  0.00    +0.000 OA
ATOM     25  C   UNL     1       7.812   8.106  17.602  0.00  0.00    +0.000 C 
ENDBRANCH  21  24
ENDBRANCH  17  18
ENDBRANCH  16  17
ENDBRANCH   5  16
TORSDOF 7
ENDMDL
MODEL 2
REMARK VINA RESULT:      -7.4      0.534      1.104
REMARK  Name = 
REMARK  9 active torsions:
REMARK  status: ('A' for Active; 'I' for Inactive)
REMARK    1  A    between atoms: C_1  and  O_2
REMARK    2  A    between atoms: O_2  and  C_3
REMARK    3  A    between atoms: C_6  and  C_7
REMARK    4  A    between atoms: N_8  and  N_9
REMARK    5  A    between atoms: C_13  and  S_14
REMARK    6  A    between atoms: S_14  and  C_15
REMARK    7  A    between atoms: C_15  and  C_16
REMARK    8  A    between atoms: C_19  and  O_20
REMARK    9  A    between atoms: O_20  and  C_21
REMARK                            x       y       z     vdW  Elec       q    Type
REMARK                         _______ _______ _______ _____ _____    ______ ____
ROOT
ATOM      1  N   UNL     1       2.187   4.328  20.757  0.00  0.00    +0.000 N 
ATOM      2  C   UNL     1       2.364   3.705  21.970  0.00  0.00    +0.000 A 
ATOM      3  N   UNL     1       2.780   2.471  21.806  0.00  0.00    +0.000 NA
ATOM      4  N   UNL     1       2.833   2.235  20.453  0.00  0.00    +0.000 NA
ATOM      5  C   UNL     1       2.460   3.334  19.832  0.00  0.00    +0.000 A 
ENDROOT
BRANCH   1   7
ATOM      6  C   UNL     1       2.489   6.327  19.700  0.00  0.00    +0.000 C 
ATOM      7  N   UNL     1       1.765   5.596  20.482  0.00  0.00    +0.000 NA
BRANCH   6  11
ATOM      8  C   UNL     1       1.263  10.312  18.769  0.00  0.00    +0.000 A 
ATOM      9  C   UNL     1       0.943   9.756  20.005  0.00  0.00    +0.000 A 
ATOM     10  C   UNL     1       1.356   8.462  20.323  0.00  0.00    +0.000 A 
ATOM     11  C   UNL     1       2.071   7.711  19.386  0.00  0.00    +0.000 A 
ATOM     12  C   UNL     1       2.379   8.255  18.136  0.00  0.00    +0.000 A 
ATOM     13  C   UNL     1       1.972   9.560  17.831  0.00  0.00    +0.000 A 
BRANCH   8  15
ATOM     14  C   UNL     1       1.186  12.543  19.544  0.00  0.00    +0.000 C 
ATOM     15  O   UNL     1       0.794  11.582  18.572  0.00  0.00    +0.000 OA
ENDBRANCH   8  15
ENDBRANCH   6  11
ENDBRANCH   1   7
BRANCH   5  16
ATOM     16  S   UNL     1       2.271   3.447  18.106  0.00  0.00    +0.000 S 
BRANCH  16  17
ATOM     17  C   UNL     1       3.912   3.089  17.434  0.00  0.00    +0.000 C 
BRANCH  17  18
ATOM     18  C   UNL     1       4.780   4.323  17.357  0.00  0.00    +0.000 A 
ATOM     19  C   UNL     1       4.716   5.162  16.235  0.00  0.00    +0.000 A 
ATOM     20  C   UNL     1       5.513   6.306  16.157  0.00  0.00    +0.000 A 
ATOM     21  C   UNL     1       6.376   6.639  17.199  0.00  0.00    +0.000 A 
ATOM     22  C   UNL     1       6.459   5.802  18.313  0.00  0.00    +0.000 A 
ATOM     23  C   UNL     1       5.666   4.650  18.391  0.00  0.00    +0.000 A 
BRANCH  21  24
ATOM     24  O   UNL     1       7.116   7.772  17.003  0.00  0.00    +0.000 OA
ATOM     25  C   UNL     1       8.048   8.089  18.029  0.00  0.00    +0.000 C 
ENDBRANCH  21  24
ENDBRANCH  17  18
ENDBRANCH  16  17
ENDBRANCH   5  16
TORSDOF 7
ENDMDL
MODEL 3
REMARK VINA RESULT:      -7.4      0.826      1.477
REMARK  Name = 
REMARK  9 active torsions:
REMARK  status: ('A' for Active; 'I' for Inactive)
REMARK    1  A    between atoms: C_1  and  O_2
REMARK    2  A    between atoms: O_2  and  C_3
REMARK    3  A    between atoms: C_6  and  C_7
REMARK    4  A    between atoms: N_8  and  N_9
REMARK    5  A    between atoms: C_13  and  S_14
REMARK    6  A    between atoms: S_14  and  C_15
REMARK    7  A    between atoms: C_15  and  C_16
REMARK    8  A    between atoms: C_19  and  O_20
REMARK    9  A    between atoms: O_20  and  C_21
REMARK                            x       y       z     vdW  Elec       q    Type
REMARK                         _______ _______ _______ _____ _____    ______ ____
ROOT
ATOM      1  N   UNL     1       1.940   4.475  20.601  0.00  0.00    +0.000 N 
ATOM      2  C   UNL     1       2.250   3.708  21.700  0.00  0.00    +0.000 A 
ATOM      3  N   UNL     1       2.717   2.537  21.335  0.00  0.00    +0.000 NA
ATOM      4  N   UNL     1       2.672   2.489  19.962  0.00  0.00    +0.000 NA
ATOM      5  C   UNL     1       2.189   3.635  19.530  0.00  0.00    +0.000 A 
ENDROOT
BRANCH   1   7
ATOM      6  C   UNL     1       2.210   6.698  20.163  0.00  0.00    +0.000 C 
ATOM      7  N   UNL     1       1.429   5.739  20.538  0.00  0.00    +0.000 NA
BRANCH   6  11
ATOM      8  C   UNL     1       0.703  10.689  19.934  0.00  0.00    +0.000 A 
ATOM      9  C   UNL     1       0.690  10.008  21.150  0.00  0.00    +0.000 A 
ATOM     10  C   UNL     1       1.197   8.711  21.235  0.00  0.00    +0.000 A 
ATOM     11  C   UNL     1       1.696   8.083  20.091  0.00  0.00    +0.000 A 
ATOM     12  C   UNL     1       1.695   8.753  18.864  0.00  0.00    +0.000 A 
ATOM     13  C   UNL     1       1.196  10.060  18.790  0.00  0.00    +0.000 A 
BRANCH   8  15
ATOM     14  C   UNL     1       0.356  12.658  21.194  0.00  0.00    +0.000 C 
ATOM     15  O   UNL     1       0.170  11.948  19.975  0.00  0.00    +0.000 OA
ENDBRANCH   8  15
ENDBRANCH   6  11
ENDBRANCH   1   7
BRANCH   5  16
ATOM     16  S   UNL     1       1.853   3.965  17.855  0.00  0.00    +0.000 S 
BRANCH  16  17
ATOM     17  C   UNL     1       3.234   3.226  16.948  0.00  0.00    +0.000 C 
BRANCH  17  18
ATOM     18  C   UNL     1       4.399   4.176  16.807  0.00  0.00    +0.000 A 
ATOM     19  C   UNL     1       4.264   5.520  17.187  0.00  0.00    +0.000 A 
ATOM     20  C   UNL     1       5.337   6.404  17.062  0.00  0.00    +0.000 A 
ATOM     21  C   UNL     1       6.564   5.963  16.569  0.00  0.00    +0.000 A 
ATOM     22  C   UNL     1       6.704   4.632  16.173  0.00  0.00    +0.000 A 
ATOM     23  C   UNL     1       5.627   3.744  16.291  0.00  0.00    +0.000 A 
BRANCH  21  24
ATOM     24  O   UNL     1       7.534   6.923  16.479  0.00  0.00    +0.000 OA
ATOM     25  C   UNL     1       7.706   7.740  17.630  0.00  0.00    +0.000 C 
ENDBRANCH  21  24
ENDBRANCH  17  18
ENDBRANCH  16  17
ENDBRANCH   5  16
TORSDOF 7
ENDMDL
MODEL 4
REMARK VINA RESULT:      -7.2      4.260      6.874
REMARK  Name = 
REMARK  9 active torsions:
REMARK  status: ('A' for Active; 'I' for Inactive)
REMARK    1  A    between atoms: C_1  and  O_2
REMARK    2  A    between atoms: O_2  and  C_3
REMARK    3  A    between atoms: C_6  and  C_7
REMARK    4  A    between atoms: N_8  and  N_9
REMARK    5  A    between atoms: C_13  and  S_14
REMARK    6  A    between atoms: S_14  and  C_15
REMARK    7  A    between atoms: C_15  and  C_16
REMARK    8  A    between atoms: C_19  and  O_20
REMARK    9  A    between atoms: O_20  and  C_21
REMARK                            x       y       z     vdW  Elec       q    Type
REMARK                         _______ _______ _______ _____ _____    ______ ____
ROOT
ATOM      1  N   UNL     1       7.307   6.709  17.829  0.00  0.00    +0.000 N 
ATOM      2  C   UNL     1       7.946   5.754  18.585  0.00  0.00    +0.000 A 
ATOM      3  N   UNL     1       7.292   4.617  18.551  0.00  0.00    +0.000 NA
ATOM      4  N   UNL     1       6.159   4.820  17.801  0.00  0.00    +0.000 NA
ATOM      5  C   UNL     1       6.160   6.071  17.390  0.00  0.00    +0.000 A 
ENDROOT
BRANCH   1   7
ATOM      6  C   UNL     1       8.372   8.617  18.486  0.00  0.00    +0.000 C 
ATOM      7  N   UNL     1       7.645   8.012  17.605  0.00  0.00    +0.000 NA
BRANCH   6  11
ATOM      8  C   UNL     1       9.495  12.695  17.885  0.00  0.00    +0.000 A 
ATOM      9  C   UNL     1       8.276  12.229  17.398  0.00  0.00    +0.000 A 
ATOM     10  C   UNL     1       7.895  10.903  17.607  0.00  0.00    +0.000 A 
ATOM     11  C   UNL     1       8.752  10.032  18.284  0.00  0.00    +0.000 A 
ATOM     12  C   UNL     1       9.986  10.487  18.759  0.00  0.00    +0.000 A 
ATOM     13  C   UNL     1      10.353  11.823  18.557  0.00  0.00    +0.000 A 
BRANCH   8  15
ATOM     14  C   UNL     1       8.906  14.956  18.238  0.00  0.00    +0.000 C 
ATOM     15  O   UNL     1       9.760  14.008  17.609  0.00  0.00    +0.000 OA
ENDBRANCH   8  15
ENDBRANCH   6  11
ENDBRANCH   1   7
BRANCH   5  16
ATOM     16  S   UNL     1       4.849   6.792  16.503  0.00  0.00    +0.000 S 
BRANCH  16  17
ATOM     17  C   UNL     1       3.678   7.343  17.768  0.00  0.00    +0.000 C 
BRANCH  17  18
ATOM     18  C   UNL     1       2.939   6.190  18.405  0.00  0.00    +0.000 A 
ATOM     19  C   UNL     1       2.745   6.157  19.794  0.00  0.00    +0.000 A 
ATOM     20  C   UNL     1       2.061   5.096  20.391  0.00  0.00    +0.000 A 
ATOM     21  C   UNL     1       1.548   4.059  19.614  0.00  0.00    +0.000 A 
ATOM     22  C   UNL     1       1.749   4.074  18.233  0.00  0.00    +0.000 A 
ATOM     23  C   UNL     1       2.441   5.133  17.632  0.00  0.00    +0.000 A 
BRANCH  21  24
ATOM     24  O   UNL     1       0.911   3.070  20.311  0.00  0.00    +0.000 OA
ATOM     25  C   UNL     1       1.470   2.747  21.579  0.00  0.00    +0.000 C 
ENDBRANCH  21  24
ENDBRANCH  17  18
ENDBRANCH  16  17
ENDBRANCH   5  16
TORSDOF 7
ENDMDL
MODEL 5
REMARK VINA RESULT:      -7.1      4.222      6.772
REMARK  Name = 
REMARK  9 active torsions:
REMARK  status: ('A' for Active; 'I' for Inactive)
REMARK    1  A    between atoms: C_1  and  O_2
REMARK    2  A    between atoms: O_2  and  C_3
REMARK    3  A    between atoms: C_6  and  C_7
REMARK    4  A    between atoms: N_8  and  N_9
REMARK    5  A    between atoms: C_13  and  S_14
REMARK    6  A    between atoms: S_14  and  C_15
REMARK    7  A    between atoms: C_15  and  C_16
REMARK    8  A    between atoms: C_19  and  O_20
REMARK    9  A    between atoms: O_20  and  C_21
REMARK                            x       y       z     vdW  Elec       q    Type
REMARK                         _______ _______ _______ _____ _____    ______ ____
ROOT
ATOM      1  N   UNL     1       7.299   6.558  17.896  0.00  0.00    +0.000 N 
ATOM      2  C   UNL     1       7.905   5.528  18.578  0.00  0.00    +0.000 A 
ATOM      3  N   UNL     1       7.286   4.393  18.356  0.00  0.00    +0.000 NA
ATOM      4  N   UNL     1       6.206   4.667  17.551  0.00  0.00    +0.000 NA
ATOM      5  C   UNL     1       6.204   5.959  17.297  0.00  0.00    +0.000 A 
ENDROOT
BRANCH   1   7
ATOM      6  C   UNL     1       8.453   8.338  18.733  0.00  0.00    +0.000 C 
ATOM      7  N   UNL     1       7.619   7.885  17.858  0.00  0.00    +0.000 NA
BRANCH   6  11
ATOM      8  C   UNL     1       9.478  12.487  18.729  0.00  0.00    +0.000 A 
ATOM      9  C   UNL     1       9.951  11.653  19.740  0.00  0.00    +0.000 A 
ATOM     10  C   UNL     1       9.636  10.294  19.737  0.00  0.00    +0.000 A 
ATOM     11  C   UNL     1       8.819   9.773  18.731  0.00  0.00    +0.000 A 
ATOM     12  C   UNL     1       8.324  10.606  17.724  0.00  0.00    +0.000 A 
ATOM     13  C   UNL     1       8.658  11.966  17.727  0.00  0.00    +0.000 A 
BRANCH   8  15
ATOM     14  C   UNL     1       9.392  14.663  17.813  0.00  0.00    +0.000 C 
ATOM     15  O   UNL     1       9.846  13.798  18.847  0.00  0.00    +0.000 OA
ENDBRANCH   8  15
ENDBRANCH   6  11
ENDBRANCH   1   7
BRANCH   5  16
ATOM     16  S   UNL     1       4.944   6.762  16.406  0.00  0.00    +0.000 S 
BRANCH  16  17
ATOM     17  C   UNL     1       3.739   7.268  17.658  0.00  0.00    +0.000 C 
BRANCH  17  18
ATOM     18  C   UNL     1       3.118   6.086  18.366  0.00  0.00    +0.000 A 
ATOM     19  C   UNL     1       2.275   5.209  17.667  0.00  0.00    +0.000 A 
ATOM     20  C   UNL     1       1.700   4.113  18.313  0.00  0.00    +0.000 A 
ATOM     21  C   UNL     1       1.964   3.865  19.659  0.00  0.00    +0.000 A 
ATOM     22  C   UNL     1       2.789   4.741  20.366  0.00  0.00    +0.000 A 
ATOM     23  C   UNL     1       3.363   5.845  19.723  0.00  0.00    +0.000 A 
BRANCH  21  24
ATOM     24  O   UNL     1       1.333   2.772  20.185  0.00  0.00    +0.000 OA
ATOM     25  C   UNL     1       1.455   2.604  21.592  0.00  0.00    +0.000 C 
ENDBRANCH  21  24
ENDBRANCH  17  18
ENDBRANCH  16  17
ENDBRANCH   5  16
TORSDOF 7
ENDMDL
MODEL 6
REMARK VINA RESULT:      -7.1      4.052      8.577
REMARK  Name = 
REMARK  9 active torsions:
REMARK  status: ('A' for Active; 'I' for Inactive)
REMARK    1  A    between atoms: C_1  and  O_2
REMARK    2  A    between atoms: O_2  and  C_3
REMARK    3  A    between atoms: C_6  and  C_7
REMARK    4  A    between atoms: N_8  and  N_9
REMARK    5  A    between atoms: C_13  and  S_14
REMARK    6  A    between atoms: S_14  and  C_15
REMARK    7  A    between atoms: C_15  and  C_16
REMARK    8  A    between atoms: C_19  and  O_20
REMARK    9  A    between atoms: O_20  and  C_21
REMARK                            x       y       z     vdW  Elec       q    Type
REMARK                         _______ _______ _______ _____ _____    ______ ____
ROOT
ATOM      1  N   UNL     1       0.825   9.391  21.708  0.00  0.00    +0.000 N 
ATOM      2  C   UNL     1       0.389   9.385  23.013  0.00  0.00    +0.000 A 
ATOM      3  N   UNL     1      -0.249  10.495  23.297  0.00  0.00    +0.000 NA
ATOM      4  N   UNL     1      -0.198  11.294  22.180  0.00  0.00    +0.000 NA
ATOM      5  C   UNL     1       0.460  10.643  21.243  0.00  0.00    +0.000 A 
ENDROOT
BRANCH   1   7
ATOM      6  C   UNL     1       1.168   7.208  21.141  0.00  0.00    +0.000 C 
ATOM      7  N   UNL     1       1.526   8.444  21.019  0.00  0.00    +0.000 NA
BRANCH   6  11
ATOM      8  C   UNL     1       3.333   4.171  19.058  0.00  0.00    +0.000 A 
ATOM      9  C   UNL     1       2.708   3.875  20.267  0.00  0.00    +0.000 A 
ATOM     10  C   UNL     1       1.984   4.858  20.943  0.00  0.00    +0.000 A 
ATOM     11  C   UNL     1       1.909   6.151  20.418  0.00  0.00    +0.000 A 
ATOM     12  C   UNL     1       2.550   6.459  19.215  0.00  0.00    +0.000 A 
ATOM     13  C   UNL     1       3.262   5.463  18.536  0.00  0.00    +0.000 A 
BRANCH   8  15
ATOM     14  C   UNL     1       3.229   2.169  17.806  0.00  0.00    +0.000 C 
ATOM     15  O   UNL     1       4.020   3.129  18.497  0.00  0.00    +0.000 OA
ENDBRANCH   8  15
ENDBRANCH   6  11
ENDBRANCH   1   7
BRANCH   5  16
ATOM     16  S   UNL     1       0.861  11.330  19.696  0.00  0.00    +0.000 S 
BRANCH  16  17
ATOM     17  C   UNL     1       0.151  10.191  18.483  0.00  0.00    +0.000 C 
BRANCH  17  18
ATOM     18  C   UNL     1      -1.286  10.524  18.158  0.00  0.00    +0.000 A 
ATOM     19  C   UNL     1      -1.937   9.877  17.096  0.00  0.00    +0.000 A 
ATOM     20  C   UNL     1      -3.266  10.177  16.790  0.00  0.00    +0.000 A 
ATOM     21  C   UNL     1      -3.971  11.115  17.543  0.00  0.00    +0.000 A 
ATOM     22  C   UNL     1      -3.327  11.776  18.590  0.00  0.00    +0.000 A 
ATOM     23  C   UNL     1      -1.992  11.482  18.895  0.00  0.00    +0.000 A 
BRANCH  21  24
ATOM     24  O   UNL     1      -5.259  11.335  17.139  0.00  0.00    +0.000 OA
ATOM     25  C   UNL     1      -6.262  11.117  18.123  0.00  0.00    +0.000 C 
ENDBRANCH  21  24
ENDBRANCH  17  18
ENDBRANCH  16  17
ENDBRANCH   5  16
TORSDOF 7
ENDMDL
MODEL 7
REMARK VINA RESULT:      -7.0      1.550      6.610
REMARK  Name = 
REMARK  9 active torsions:
REMARK  status: ('A' for Active; 'I' for Inactive)
REMARK    1  A    between atoms: C_1  and  O_2
REMARK    2  A    between atoms: O_2  and  C_3
REMARK    3  A    between atoms: C_6  and  C_7
REMARK    4  A    between atoms: N_8  and  N_9
REMARK    5  A    between atoms: C_13  and  S_14
REMARK    6  A    between atoms: S_14  and  C_15
REMARK    7  A    between atoms: C_15  and  C_16
REMARK    8  A    between atoms: C_19  and  O_20
REMARK    9  A    between atoms: O_20  and  C_21
REMARK                            x       y       z     vdW  Elec       q    Type
REMARK                         _______ _______ _______ _____ _____    ______ ____
ROOT
ATOM      1  N   UNL     1       3.236   3.224  20.083  0.00  0.00    +0.000 N 
ATOM      2  C   UNL     1       3.671   2.241  20.941  0.00  0.00    +0.000 A 
ATOM      3  N   UNL     1       2.926   2.200  22.021  0.00  0.00    +0.000 NA
ATOM      4  N   UNL     1       2.002   3.212  21.918  0.00  0.00    +0.000 NA
ATOM      5  C   UNL     1       2.202   3.833  20.774  0.00  0.00    +0.000 A 
ENDROOT
BRANCH   1   7
ATOM      6  C   UNL     1       5.004   3.777  18.751  0.00  0.00    +0.000 C 
ATOM      7  N   UNL     1       3.729   3.600  18.867  0.00  0.00    +0.000 NA
BRANCH   6  11
ATOM      8  C   UNL     1       6.678   4.955  15.001  0.00  0.00    +0.000 A 
ATOM      9  C   UNL     1       5.362   4.502  15.065  0.00  0.00    +0.000 A 
ATOM     10  C   UNL     1       4.803   4.134  16.289  0.00  0.00    +0.000 A 
ATOM     11  C   UNL     1       5.576   4.193  17.452  0.00  0.00    +0.000 A 
ATOM     12  C   UNL     1       6.903   4.627  17.392  0.00  0.00    +0.000 A 
ATOM     13  C   UNL     1       7.451   5.009  16.162  0.00  0.00    +0.000 A 
BRANCH   8  15
ATOM     14  C   UNL     1       7.049   4.231  12.783  0.00  0.00    +0.000 C 
ATOM     15  O   UNL     1       7.114   5.276  13.745  0.00  0.00    +0.000 OA
ENDBRANCH   8  15
ENDBRANCH   6  11
ENDBRANCH   1   7
BRANCH   5  16
ATOM     16  S   UNL     1       1.327   5.255  20.287  0.00  0.00    +0.000 S 
BRANCH  16  17
ATOM     17  C   UNL     1       2.605   6.473  19.888  0.00  0.00    +0.000 C 
BRANCH  17  18
ATOM     18  C   UNL     1       2.019   7.814  19.511  0.00  0.00    +0.000 A 
ATOM     19  C   UNL     1       1.309   8.565  20.460  0.00  0.00    +0.000 A 
ATOM     20  C   UNL     1       0.767   9.806  20.121  0.00  0.00    +0.000 A 
ATOM     21  C   UNL     1       0.934  10.325  18.838  0.00  0.00    +0.000 A 
ATOM     22  C   UNL     1       1.625   9.578  17.883  0.00  0.00    +0.000 A 
ATOM     23  C   UNL     1       2.164   8.330  18.217  0.00  0.00    +0.000 A 
BRANCH  21  24
ATOM     24  O   UNL     1       0.346  11.540  18.620  0.00  0.00    +0.000 OA
ATOM     25  C   UNL     1       0.393  12.455  19.709  0.00  0.00    +0.000 C 
ENDBRANCH  21  24
ENDBRANCH  17  18
ENDBRANCH  16  17
ENDBRANCH   5  16
TORSDOF 7
ENDMDL
MODEL 8
REMARK VINA RESULT:      -7.0      4.396      6.961
REMARK  Name = 
REMARK  9 active torsions:
REMARK  status: ('A' for Active; 'I' for Inactive)
REMARK    1  A    between atoms: C_1  and  O_2
REMARK    2  A    between atoms: O_2  and  C_3
REMARK    3  A    between atoms: C_6  and  C_7
REMARK    4  A    between atoms: N_8  and  N_9
REMARK    5  A    between atoms: C_13  and  S_14
REMARK    6  A    between atoms: S_14  and  C_15
REMARK    7  A    between atoms: C_15  and  C_16
REMARK    8  A    between atoms: C_19  and  O_20
REMARK    9  A    between atoms: O_20  and  C_21
REMARK                            x       y       z     vdW  Elec       q    Type
REMARK                         _______ _______ _______ _____ _____    ______ ____
ROOT
ATOM      1  N   UNL     1       7.565   6.925  18.169  0.00  0.00    +0.000 N 
ATOM      2  C   UNL     1       8.111   6.061  19.089  0.00  0.00    +0.000 A 
ATOM      3  N   UNL     1       7.472   4.915  19.089  0.00  0.00    +0.000 NA
ATOM      4  N   UNL     1       6.439   5.023  18.190  0.00  0.00    +0.000 NA
ATOM      5  C   UNL     1       6.484   6.227  17.660  0.00  0.00    +0.000 A 
ENDROOT
BRANCH   1   7
ATOM      6  C   UNL     1       8.537   8.904  18.755  0.00  0.00    +0.000 C 
ATOM      7  N   UNL     1       7.923   8.206  17.858  0.00  0.00    +0.000 NA
BRANCH   6  11
ATOM      8  C   UNL     1       9.704  12.922  17.885  0.00  0.00    +0.000 A 
ATOM      9  C   UNL     1       8.460  12.452  17.469  0.00  0.00    +0.000 A 
ATOM     10  C   UNL     1       8.065  11.147  17.766  0.00  0.00    +0.000 A 
ATOM     11  C   UNL     1       8.933  10.300  18.460  0.00  0.00    +0.000 A 
ATOM     12  C   UNL     1      10.190  10.758  18.864  0.00  0.00    +0.000 A 
ATOM     13  C   UNL     1      10.572  12.073  18.574  0.00  0.00    +0.000 A 
BRANCH   8  15
ATOM     14  C   UNL     1      11.060  14.828  18.217  0.00  0.00    +0.000 C 
ATOM     15  O   UNL     1       9.980  14.212  17.526  0.00  0.00    +0.000 OA
ENDBRANCH   8  15
ENDBRANCH   6  11
ENDBRANCH   1   7
BRANCH   5  16
ATOM     16  S   UNL     1       5.289   6.835  16.551  0.00  0.00    +0.000 S 
BRANCH  16  17
ATOM     17  C   UNL     1       3.867   7.261  17.587  0.00  0.00    +0.000 C 
BRANCH  17  18
ATOM     18  C   UNL     1       3.294   6.056  18.295  0.00  0.00    +0.000 A 
ATOM     19  C   UNL     1       2.872   4.939  17.557  0.00  0.00    +0.000 A 
ATOM     20  C   UNL     1       2.343   3.821  18.203  0.00  0.00    +0.000 A 
ATOM     21  C   UNL     1       2.237   3.790  19.593  0.00  0.00    +0.000 A 
ATOM     22  C   UNL     1       2.639   4.902  20.334  0.00  0.00    +0.000 A 
ATOM     23  C   UNL     1       3.164   6.029  19.689  0.00  0.00    +0.000 A 
BRANCH  21  24
ATOM     24  O   UNL     1       1.691   2.648  20.110  0.00  0.00    +0.000 OA
ATOM     25  C   UNL     1       1.385   2.682  21.499  0.00  0.00    +0.000 C 
ENDBRANCH  21  24
ENDBRANCH  17  18
ENDBRANCH  16  17
ENDBRANCH   5  16
TORSDOF 7
ENDMDL
MODEL 9
REMARK VINA RESULT:      -7.0      0.925      1.106
REMARK  Name = 
REMARK  9 active torsions:
REMARK  status: ('A' for Active; 'I' for Inactive)
REMARK    1  A    between atoms: C_1  and  O_2
REMARK    2  A    between atoms: O_2  and  C_3
REMARK    3  A    between atoms: C_6  and  C_7
REMARK    4  A    between atoms: N_8  and  N_9
REMARK    5  A    between atoms: C_13  and  S_14
REMARK    6  A    between atoms: S_14  and  C_15
REMARK    7  A    between atoms: C_15  and  C_16
REMARK    8  A    between atoms: C_19  and  O_20
REMARK    9  A    between atoms: O_20  and  C_21
REMARK                            x       y       z     vdW  Elec       q    Type
REMARK                         _______ _______ _______ _____ _____    ______ ____
ROOT
ATOM      1  N   UNL     1       2.413   4.592  20.380  0.00  0.00    +0.000 N 
ATOM      2  C   UNL     1       2.287   4.085  21.653  0.00  0.00    +0.000 A 
ATOM      3  N   UNL     1       2.391   2.777  21.646  0.00  0.00    +0.000 NA
ATOM      4  N   UNL     1       2.537   2.385  20.337  0.00  0.00    +0.000 NA
ATOM      5  C   UNL     1       2.528   3.465  19.585  0.00  0.00    +0.000 A 
ENDROOT
BRANCH   1   7
ATOM      6  C   UNL     1       1.514   6.685  20.512  0.00  0.00    +0.000 C 
ATOM      7  N   UNL     1       2.360   5.886  19.950  0.00  0.00    +0.000 NA
BRANCH   6  11
ATOM      8  C   UNL     1       1.262  10.759  19.251  0.00  0.00    +0.000 A 
ATOM      9  C   UNL     1       1.822   9.802  18.407  0.00  0.00    +0.000 A 
ATOM     10  C   UNL     1       1.890   8.467  18.805  0.00  0.00    +0.000 A 
ATOM     11  C   UNL     1       1.420   8.093  20.067  0.00  0.00    +0.000 A 
ATOM     12  C   UNL     1       0.875   9.051  20.927  0.00  0.00    +0.000 A 
ATOM     13  C   UNL     1       0.797  10.386  20.513  0.00  0.00    +0.000 A 
BRANCH   8  15
ATOM     14  C   UNL     1       2.458  12.442  18.102  0.00  0.00    +0.000 C 
ATOM     15  O   UNL     1       1.261  12.033  18.753  0.00  0.00    +0.000 OA
ENDBRANCH   8  15
ENDBRANCH   6  11
ENDBRANCH   1   7
BRANCH   5  16
ATOM     16  S   UNL     1       2.571   3.426  17.846  0.00  0.00    +0.000 S 
BRANCH  16  17
ATOM     17  C   UNL     1       4.310   3.149  17.429  0.00  0.00    +0.000 C 
BRANCH  17  18
ATOM     18  C   UNL     1       5.080   4.442  17.303  0.00  0.00    +0.000 A 
ATOM     19  C   UNL     1       6.348   4.568  17.892  0.00  0.00    +0.000 A 
ATOM     20  C   UNL     1       7.068   5.758  17.778  0.00  0.00    +0.000 A 
ATOM     21  C   UNL     1       6.545   6.837  17.067  0.00  0.00    +0.000 A 
ATOM     22  C   UNL     1       5.278   6.727  16.492  0.00  0.00    +0.000 A 
ATOM     23  C   UNL     1       4.550   5.537  16.610  0.00  0.00    +0.000 A 
BRANCH  21  24
ATOM     24  O   UNL     1       7.335   7.953  17.037  0.00  0.00    +0.000 OA
ATOM     25  C   UNL     1       8.175   8.148  18.168  0.00  0.00    +0.000 C 
ENDBRANCH  21  24
ENDBRANCH  17  18
ENDBRANCH  16  17
ENDBRANCH   5  16
TORSDOF 7
ENDMDL
