MODEL 1
REMARK VINA RESULT:      -8.3      0.000      0.000
REMARK  Name = 
REMARK  10 active torsions:
REMARK  status: ('A' for Active; 'I' for Inactive)
REMARK    1  A    between atoms: C_1  and  C_2
REMARK    2  A    between atoms: C_5  and  C_6
REMARK    3  A    between atoms: C_8  and  O_9
REMARK    4  A    between atoms: C_10  and  N_11
REMARK    5  A    between atoms: C_13  and  C_14
REMARK    6  A    between atoms: C_14  and  O_15
REMARK    7  A    between atoms: O_15  and  C_16
REMARK    8  A    between atoms: C_16  and  C_18
REMARK    9  A    between atoms: N_27  and  C_28
REMARK   10  A    between atoms: C_28  and  C_29
REMARK                            x       y       z     vdW  Elec       q    Type
REMARK                         _______ _______ _______ _____ _____    ______ ____
ROOT
ATOM      1  C   UNL     1      -0.475  11.627  21.138  0.00  0.00    +0.000 C 
ATOM      2  C   UNL     1       0.185  10.563  22.030  0.00  0.00    +0.000 C 
ATOM      3  C   UNL     1       1.234   9.750  21.285  0.00  0.00    +0.000 C 
ATOM      4  C   UNL     1       0.628   9.134  20.024  0.00  0.00    +0.000 C 
ATOM      5  C   UNL     1      -0.036  10.226  19.173  0.00  0.00    +0.000 C 
ATOM      6  N   UNL     1      -1.042  11.046  19.889  0.00  0.00    +0.000 NA
ENDROOT
BRANCH   1  11
ATOM      7  C   UNL     1      -4.641  14.391  24.148  0.00  0.00    +0.000 C 
ATOM      8  C   UNL     1      -3.469  13.722  23.494  0.00  0.00    +0.000 A 
ATOM      9  C   UNL     1      -2.714  14.397  22.531  0.00  0.00    +0.000 A 
ATOM     10  C   UNL     1      -1.737  13.722  21.797  0.00  0.00    +0.000 A 
ATOM     11  C   UNL     1      -1.499  12.355  22.006  0.00  0.00    +0.000 A 
ATOM     12  C   UNL     1      -2.195  11.707  23.039  0.00  0.00    +0.000 A 
ATOM     13  C   UNL     1      -3.181  12.380  23.764  0.00  0.00    +0.000 A 
ENDBRANCH   1  11
BRANCH   4  14
ATOM     14  N   UNL     1       1.622   8.425  19.231  0.00  0.00    +0.000 N 
ATOM     15  C   UNL     1       2.156   7.189  19.452  0.00  0.00    +0.000 A 
ATOM     16  C   UNL     1       3.107   7.052  18.466  0.00  0.00    +0.000 A 
ATOM     17  N   UNL     1       3.131   8.194  17.708  0.00  0.00    +0.000 NA
ATOM     18  N   UNL     1       2.226   9.034  18.194  0.00  0.00    +0.000 NA
BRANCH  16  19
ATOM     19  C   UNL     1       4.024   5.915  18.199  0.00  0.00    +0.000 C 
BRANCH  19  20
ATOM     20  O   UNL     1       3.404   4.855  17.455  0.00  0.00    +0.000 OA
BRANCH  20  21
ATOM     21  C   UNL     1       3.663   3.606  17.913  0.00  0.00    +0.000 C 
ATOM     22  O   UNL     1       4.409   2.795  17.387  0.00  0.00    +0.000 OA
BRANCH  21  23
ATOM     23  C   UNL     1       2.869   3.323  19.138  0.00  0.00    +0.000 A 
ATOM     24  C   UNL     1       1.493   3.578  19.110  0.00  0.00    +0.000 A 
ATOM     25  C   UNL     1       0.709   3.352  20.241  0.00  0.00    +0.000 A 
ATOM     26  C   UNL     1       1.294   2.867  21.407  0.00  0.00    +0.000 A 
ATOM     27  C   UNL     1       2.664   2.603  21.447  0.00  0.00    +0.000 A 
ATOM     28  C   UNL     1       3.453   2.829  20.316  0.00  0.00    +0.000 A 
ENDBRANCH  21  23
ENDBRANCH  20  21
ENDBRANCH  19  20
ENDBRANCH  16  19
ENDBRANCH   4  14
BRANCH   3  29
ATOM     29  O   UNL     1       1.747   8.758  22.178  0.00  0.00    +0.000 OA
ATOM     30  H   UNL     1       2.563   9.094  22.588  0.00  0.00    +0.000 HD
ENDBRANCH   3  29
BRANCH   6  31
ATOM     31  C   UNL     1      -1.524  12.132  18.984  0.00  0.00    +0.000 C 
BRANCH  31  32
ATOM     32  C   UNL     1      -2.699  11.711  18.135  0.00  0.00    +0.000 A 
ATOM     33  C   UNL     1      -2.695  11.209  16.847  0.00  0.00    +0.000 A 
ATOM     34  C   UNL     1      -4.010  10.986  16.346  0.00  0.00    +0.000 A 
ATOM     35  C   UNL     1      -4.976  11.302  17.273  0.00  0.00    +0.000 A 
ATOM     36  S   UNL     1      -4.298  11.849  18.744  0.00  0.00    +0.000 S 
ENDBRANCH  31  32
ENDBRANCH   6  31
TORSDOF 9
ENDMDL
MODEL 2
REMARK VINA RESULT:      -8.2      1.722      2.087
REMARK  Name = 
REMARK  10 active torsions:
REMARK  status: ('A' for Active; 'I' for Inactive)
REMARK    1  A    between atoms: C_1  and  C_2
REMARK    2  A    between atoms: C_5  and  C_6
REMARK    3  A    between atoms: C_8  and  O_9
REMARK    4  A    between atoms: C_10  and  N_11
REMARK    5  A    between atoms: C_13  and  C_14
REMARK    6  A    between atoms: C_14  and  O_15
REMARK    7  A    between atoms: O_15  and  C_16
REMARK    8  A    between atoms: C_16  and  C_18
REMARK    9  A    between atoms: N_27  and  C_28
REMARK   10  A    between atoms: C_28  and  C_29
REMARK                            x       y       z     vdW  Elec       q    Type
REMARK                         _______ _______ _______ _____ _____    ______ ____
ROOT
ATOM      1  C   UNL     1      -1.432  12.279  21.513  0.00  0.00    +0.000 C 
ATOM      2  C   UNL     1      -0.748  11.429  22.595  0.00  0.00    +0.000 C 
ATOM      3  C   UNL     1       0.360  10.552  22.029  0.00  0.00    +0.000 C 
ATOM      4  C   UNL     1      -0.180   9.688  20.889  0.00  0.00    +0.000 C 
ATOM      5  C   UNL     1      -0.870  10.575  19.842  0.00  0.00    +0.000 C 
ATOM      6  N   UNL     1      -1.935  11.455  20.379  0.00  0.00    +0.000 NA
ENDROOT
BRANCH   1  11
ATOM      7  C   UNL     1      -5.744  15.449  23.842  0.00  0.00    +0.000 C 
ATOM      8  C   UNL     1      -4.560  14.649  23.386  0.00  0.00    +0.000 A 
ATOM      9  C   UNL     1      -3.513  15.264  22.695  0.00  0.00    +0.000 A 
ATOM     10  C   UNL     1      -2.498  14.496  22.119  0.00  0.00    +0.000 A 
ATOM     11  C   UNL     1      -2.515  13.096  22.215  0.00  0.00    +0.000 A 
ATOM     12  C   UNL     1      -3.519  12.493  22.989  0.00  0.00    +0.000 A 
ATOM     13  C   UNL     1      -4.539  13.260  23.555  0.00  0.00    +0.000 A 
ENDBRANCH   1  11
BRANCH   4  14
ATOM     14  N   UNL     1       0.870   8.902  20.257  0.00  0.00    +0.000 N 
ATOM     15  C   UNL     1       1.404   9.049  19.010  0.00  0.00    +0.000 A 
ATOM     16  C   UNL     1       2.279   7.993  18.892  0.00  0.00    +0.000 A 
ATOM     17  N   UNL     1       2.233   7.245  20.039  0.00  0.00    +0.000 NA
ATOM     18  N   UNL     1       1.356   7.803  20.863  0.00  0.00    +0.000 NA
BRANCH  16  19
ATOM     19  C   UNL     1       3.149   7.621  17.748  0.00  0.00    +0.000 C 
BRANCH  19  20
ATOM     20  O   UNL     1       4.227   6.748  18.121  0.00  0.00    +0.000 OA
BRANCH  20  21
ATOM     21  C   UNL     1       4.461   5.726  17.263  0.00  0.00    +0.000 C 
ATOM     22  O   UNL     1       4.912   5.834  16.133  0.00  0.00    +0.000 OA
BRANCH  21  23
ATOM     23  C   UNL     1       4.047   4.432  17.865  0.00  0.00    +0.000 A 
ATOM     24  C   UNL     1       3.159   3.622  17.148  0.00  0.00    +0.000 A 
ATOM     25  C   UNL     1       2.721   2.409  17.680  0.00  0.00    +0.000 A 
ATOM     26  C   UNL     1       3.168   1.997  18.932  0.00  0.00    +0.000 A 
ATOM     27  C   UNL     1       4.057   2.793  19.656  0.00  0.00    +0.000 A 
ATOM     28  C   UNL     1       4.498   4.009  19.126  0.00  0.00    +0.000 A 
ENDBRANCH  21  23
ENDBRANCH  20  21
ENDBRANCH  19  20
ENDBRANCH  16  19
ENDBRANCH   4  14
BRANCH   3  29
ATOM     29  O   UNL     1       0.894   9.764  23.096  0.00  0.00    +0.000 OA
ATOM     30  H   UNL     1       0.158   9.392  23.614  0.00  0.00    +0.000 HD
ENDBRANCH   3  29
BRANCH   6  31
ATOM     31  C   UNL     1      -2.442  12.334  19.283  0.00  0.00    +0.000 C 
BRANCH  31  32
ATOM     32  C   UNL     1      -3.897  12.093  18.962  0.00  0.00    +0.000 A 
ATOM     33  C   UNL     1      -5.015  12.549  19.636  0.00  0.00    +0.000 A 
ATOM     34  C   UNL     1      -6.228  12.059  19.071  0.00  0.00    +0.000 A 
ATOM     35  C   UNL     1      -6.001  11.264  17.971  0.00  0.00    +0.000 A 
ATOM     36  S   UNL     1      -4.336  11.124  17.614  0.00  0.00    +0.000 S 
ENDBRANCH  31  32
ENDBRANCH   6  31
TORSDOF 9
ENDMDL
MODEL 3
REMARK VINA RESULT:      -8.1      3.409     10.214
REMARK  Name = 
REMARK  10 active torsions:
REMARK  status: ('A' for Active; 'I' for Inactive)
REMARK    1  A    between atoms: C_1  and  C_2
REMARK    2  A    between atoms: C_5  and  C_6
REMARK    3  A    between atoms: C_8  and  O_9
REMARK    4  A    between atoms: C_10  and  N_11
REMARK    5  A    between atoms: C_13  and  C_14
REMARK    6  A    between atoms: C_14  and  O_15
REMARK    7  A    between atoms: O_15  and  C_16
REMARK    8  A    between atoms: C_16  and  C_18
REMARK    9  A    between atoms: N_27  and  C_28
REMARK   10  A    between atoms: C_28  and  C_29
REMARK                            x       y       z     vdW  Elec       q    Type
REMARK                         _______ _______ _______ _____ _____    ______ ____
ROOT
ATOM      1  C   UNL     1       3.882   7.013  17.991  0.00  0.00    +0.000 C 
ATOM      2  C   UNL     1       3.234   8.194  17.252  0.00  0.00    +0.000 C 
ATOM      3  C   UNL     1       2.488   9.129  18.194  0.00  0.00    +0.000 C 
ATOM      4  C   UNL     1       1.464   8.346  19.016  0.00  0.00    +0.000 C 
ATOM      5  C   UNL     1       2.150   7.166  19.721  0.00  0.00    +0.000 C 
ATOM      6  N   UNL     1       2.903   6.259  18.823  0.00  0.00    +0.000 NA
ENDROOT
BRANCH   1  11
ATOM      7  C   UNL     1       6.206   3.619  13.850  0.00  0.00    +0.000 C 
ATOM      8  C   UNL     1       5.760   4.519  14.965  0.00  0.00    +0.000 A 
ATOM      9  C   UNL     1       5.386   3.986  16.201  0.00  0.00    +0.000 A 
ATOM     10  C   UNL     1       4.807   4.800  17.176  0.00  0.00    +0.000 A 
ATOM     11  C   UNL     1       4.583   6.163  16.933  0.00  0.00    +0.000 A 
ATOM     12  C   UNL     1       5.046   6.711  15.726  0.00  0.00    +0.000 A 
ATOM     13  C   UNL     1       5.614   5.894  14.746  0.00  0.00    +0.000 A 
ENDBRANCH   1  11
BRANCH   4  14
ATOM     14  N   UNL     1       0.794   9.187  19.998  0.00  0.00    +0.000 N 
ATOM     15  C   UNL     1       0.829   9.093  21.358  0.00  0.00    +0.000 A 
ATOM     16  C   UNL     1      -0.049  10.063  21.785  0.00  0.00    +0.000 A 
ATOM     17  N   UNL     1      -0.591  10.687  20.692  0.00  0.00    +0.000 NA
ATOM     18  N   UNL     1      -0.078  10.133  19.601  0.00  0.00    +0.000 NA
BRANCH  16  19
ATOM     19  C   UNL     1      -0.437  10.431  23.170  0.00  0.00    +0.000 C 
BRANCH  19  20
ATOM     20  O   UNL     1      -1.812  10.831  23.282  0.00  0.00    +0.000 OA
BRANCH  20  21
ATOM     21  C   UNL     1      -2.016  12.168  23.358  0.00  0.00    +0.000 C 
ATOM     22  O   UNL     1      -1.150  13.013  23.532  0.00  0.00    +0.000 OA
BRANCH  21  23
ATOM     23  C   UNL     1      -3.465  12.484  23.249  0.00  0.00    +0.000 A 
ATOM     24  C   UNL     1      -4.243  12.436  24.412  0.00  0.00    +0.000 A 
ATOM     25  C   UNL     1      -5.611  12.701  24.358  0.00  0.00    +0.000 A 
ATOM     26  C   UNL     1      -6.211  13.016  23.142  0.00  0.00    +0.000 A 
ATOM     27  C   UNL     1      -5.447  13.072  21.977  0.00  0.00    +0.000 A 
ATOM     28  C   UNL     1      -4.075  12.807  22.026  0.00  0.00    +0.000 A 
ENDBRANCH  21  23
ENDBRANCH  20  21
ENDBRANCH  19  20
ENDBRANCH  16  19
ENDBRANCH   4  14
BRANCH   3  29
ATOM     29  O   UNL     1       1.878  10.158  17.411  0.00  0.00    +0.000 OA
ATOM     30  H   UNL     1       2.571  10.752  17.074  0.00  0.00    +0.000 HD
ENDBRANCH   3  29
BRANCH   6  31
ATOM     31  C   UNL     1       3.605   5.228  19.644  0.00  0.00    +0.000 C 
BRANCH  31  32
ATOM     32  C   UNL     1       2.712   4.071  20.024  0.00  0.00    +0.000 A 
ATOM     33  C   UNL     1       2.072   3.168  19.195  0.00  0.00    +0.000 A 
ATOM     34  C   UNL     1       1.257   2.250  19.917  0.00  0.00    +0.000 A 
ATOM     35  C   UNL     1       1.316   2.463  21.275  0.00  0.00    +0.000 A 
ATOM     36  S   UNL     1       2.362   3.755  21.675  0.00  0.00    +0.000 S 
ENDBRANCH  31  32
ENDBRANCH   6  31
TORSDOF 9
ENDMDL
MODEL 4
REMARK VINA RESULT:      -8.0      3.250     10.312
REMARK  Name = 
REMARK  10 active torsions:
REMARK  status: ('A' for Active; 'I' for Inactive)
REMARK    1  A    between atoms: C_1  and  C_2
REMARK    2  A    between atoms: C_5  and  C_6
REMARK    3  A    between atoms: C_8  and  O_9
REMARK    4  A    between atoms: C_10  and  N_11
REMARK    5  A    between atoms: C_13  and  C_14
REMARK    6  A    between atoms: C_14  and  O_15
REMARK    7  A    between atoms: O_15  and  C_16
REMARK    8  A    between atoms: C_16  and  C_18
REMARK    9  A    between atoms: N_27  and  C_28
REMARK   10  A    between atoms: C_28  and  C_29
REMARK                            x       y       z     vdW  Elec       q    Type
REMARK                         _______ _______ _______ _____ _____    ______ ____
ROOT
ATOM      1  C   UNL     1       3.582   7.175  18.183  0.00  0.00    +0.000 C 
ATOM      2  C   UNL     1       2.911   8.335  17.430  0.00  0.00    +0.000 C 
ATOM      3  C   UNL     1       2.236   9.324  18.370  0.00  0.00    +0.000 C 
ATOM      4  C   UNL     1       1.249   8.597  19.284  0.00  0.00    +0.000 C 
ATOM      5  C   UNL     1       1.955   7.437  20.001  0.00  0.00    +0.000 C 
ATOM      6  N   UNL     1       2.640   6.477  19.103  0.00  0.00    +0.000 NA
ENDROOT
BRANCH   1  11
ATOM      7  C   UNL     1       6.321   3.766  14.318  0.00  0.00    +0.000 C 
ATOM      8  C   UNL     1       5.487   4.634  15.215  0.00  0.00    +0.000 A 
ATOM      9  C   UNL     1       5.549   6.026  15.111  0.00  0.00    +0.000 A 
ATOM     10  C   UNL     1       4.912   6.834  16.055  0.00  0.00    +0.000 A 
ATOM     11  C   UNL     1       4.207   6.267  17.127  0.00  0.00    +0.000 A 
ATOM     12  C   UNL     1       4.070   4.870  17.171  0.00  0.00    +0.000 A 
ATOM     13  C   UNL     1       4.717   4.062  16.234  0.00  0.00    +0.000 A 
ENDBRANCH   1  11
BRANCH   4  14
ATOM     14  N   UNL     1       0.651   9.494  20.262  0.00  0.00    +0.000 N 
ATOM     15  C   UNL     1      -0.431  10.311  20.112  0.00  0.00    +0.000 A 
ATOM     16  C   UNL     1      -0.501  10.999  21.302  0.00  0.00    +0.000 A 
ATOM     17  N   UNL     1       0.532  10.600  22.110  0.00  0.00    +0.000 NA
ATOM     18  N   UNL     1       1.240   9.687  21.457  0.00  0.00    +0.000 NA
BRANCH  16  19
ATOM     19  C   UNL     1      -1.471  12.040  21.727  0.00  0.00    +0.000 C 
BRANCH  19  20
ATOM     20  O   UNL     1      -1.354  12.385  23.116  0.00  0.00    +0.000 OA
BRANCH  20  21
ATOM     21  C   UNL     1      -1.892  13.580  23.458  0.00  0.00    +0.000 C 
ATOM     22  O   UNL     1      -1.266  14.605  23.682  0.00  0.00    +0.000 OA
BRANCH  21  23
ATOM     23  C   UNL     1      -3.369  13.475  23.576  0.00  0.00    +0.000 A 
ATOM     24  C   UNL     1      -4.159  14.354  22.826  0.00  0.00    +0.000 A 
ATOM     25  C   UNL     1      -5.550  14.311  22.919  0.00  0.00    +0.000 A 
ATOM     26  C   UNL     1      -6.162  13.388  23.762  0.00  0.00    +0.000 A 
ATOM     27  C   UNL     1      -5.387  12.502  24.512  0.00  0.00    +0.000 A 
ATOM     28  C   UNL     1      -3.993  12.542  24.421  0.00  0.00    +0.000 A 
ENDBRANCH  21  23
ENDBRANCH  20  21
ENDBRANCH  19  20
ENDBRANCH  16  19
ENDBRANCH   4  14
BRANCH   3  29
ATOM     29  O   UNL     1       1.599  10.329  17.577  0.00  0.00    +0.000 OA
ATOM     30  H   UNL     1       1.847  11.206  17.918  0.00  0.00    +0.000 HD
ENDBRANCH   3  29
BRANCH   6  31
ATOM     31  C   UNL     1       3.372   5.471  19.929  0.00  0.00    +0.000 C 
BRANCH  31  32
ATOM     32  C   UNL     1       2.498   4.318  20.361  0.00  0.00    +0.000 A 
ATOM     33  C   UNL     1       2.406   3.727  21.607  0.00  0.00    +0.000 A 
ATOM     34  C   UNL     1       1.515   2.615  21.618  0.00  0.00    +0.000 A 
ATOM     35  C   UNL     1       0.937   2.405  20.387  0.00  0.00    +0.000 A 
ATOM     36  S   UNL     1       1.456   3.553  19.232  0.00  0.00    +0.000 S 
ENDBRANCH  31  32
ENDBRANCH   6  31
TORSDOF 9
ENDMDL
MODEL 5
REMARK VINA RESULT:      -7.9      1.384      1.849
REMARK  Name = 
REMARK  10 active torsions:
REMARK  status: ('A' for Active; 'I' for Inactive)
REMARK    1  A    between atoms: C_1  and  C_2
REMARK    2  A    between atoms: C_5  and  C_6
REMARK    3  A    between atoms: C_8  and  O_9
REMARK    4  A    between atoms: C_10  and  N_11
REMARK    5  A    between atoms: C_13  and  C_14
REMARK    6  A    between atoms: C_14  and  O_15
REMARK    7  A    between atoms: O_15  and  C_16
REMARK    8  A    between atoms: C_16  and  C_18
REMARK    9  A    between atoms: N_27  and  C_28
REMARK   10  A    between atoms: C_28  and  C_29
REMARK                            x       y       z     vdW  Elec       q    Type
REMARK                         _______ _______ _______ _____ _____    ______ ____
ROOT
ATOM      1  C   UNL     1      -1.575  12.627  20.792  0.00  0.00    +0.000 C 
ATOM      2  C   UNL     1      -0.551  11.945  21.712  0.00  0.00    +0.000 C 
ATOM      3  C   UNL     1       0.527  11.205  20.934  0.00  0.00    +0.000 C 
ATOM      4  C   UNL     1      -0.109  10.212  19.961  0.00  0.00    +0.000 C 
ATOM      5  C   UNL     1      -1.137  10.931  19.075  0.00  0.00    +0.000 C 
ATOM      6  N   UNL     1      -2.181  11.678  19.816  0.00  0.00    +0.000 NA
ENDROOT
BRANCH   1  11
ATOM      7  C   UNL     1      -5.728  15.213  23.974  0.00  0.00    +0.000 C 
ATOM      8  C   UNL     1      -4.554  14.604  23.265  0.00  0.00    +0.000 A 
ATOM      9  C   UNL     1      -3.930  15.284  22.216  0.00  0.00    +0.000 A 
ATOM     10  C   UNL     1      -2.955  14.649  21.443  0.00  0.00    +0.000 A 
ATOM     11  C   UNL     1      -2.591  13.318  21.699  0.00  0.00    +0.000 A 
ATOM     12  C   UNL     1      -3.154  12.675  22.812  0.00  0.00    +0.000 A 
ATOM     13  C   UNL     1      -4.137  13.306  23.577  0.00  0.00    +0.000 A 
ENDBRANCH   1  11
BRANCH   4  14
ATOM     14  N   UNL     1       0.885   9.550  19.129  0.00  0.00    +0.000 N 
ATOM     15  C   UNL     1       1.548   8.382  19.368  0.00  0.00    +0.000 A 
ATOM     16  C   UNL     1       2.431   8.274  18.318  0.00  0.00    +0.000 A 
ATOM     17  N   UNL     1       2.291   9.368  17.504  0.00  0.00    +0.000 NA
ATOM     18  N   UNL     1       1.351  10.150  18.018  0.00  0.00    +0.000 NA
BRANCH  16  19
ATOM     19  C   UNL     1       3.428   7.211  18.037  0.00  0.00    +0.000 C 
BRANCH  19  20
ATOM     20  O   UNL     1       2.836   6.005  17.528  0.00  0.00    +0.000 OA
BRANCH  20  21
ATOM     21  C   UNL     1       3.425   4.858  17.944  0.00  0.00    +0.000 C 
ATOM     22  O   UNL     1       4.469   4.394  17.510  0.00  0.00    +0.000 OA
BRANCH  21  23
ATOM     23  C   UNL     1       2.598   4.193  18.985  0.00  0.00    +0.000 A 
ATOM     24  C   UNL     1       2.884   4.460  20.329  0.00  0.00    +0.000 A 
ATOM     25  C   UNL     1       2.152   3.842  21.343  0.00  0.00    +0.000 A 
ATOM     26  C   UNL     1       1.129   2.954  21.022  0.00  0.00    +0.000 A 
ATOM     27  C   UNL     1       0.831   2.683  19.686  0.00  0.00    +0.000 A 
ATOM     28  C   UNL     1       1.562   3.300  18.666  0.00  0.00    +0.000 A 
ENDBRANCH  21  23
ENDBRANCH  20  21
ENDBRANCH  19  20
ENDBRANCH  16  19
ENDBRANCH   4  14
BRANCH   3  29
ATOM     29  O   UNL     1       1.394  10.563  21.872  0.00  0.00    +0.000 OA
ATOM     30  H   UNL     1       2.215  11.080  21.950  0.00  0.00    +0.000 HD
ENDBRANCH   3  29
BRANCH   6  31
ATOM     31  C   UNL     1      -3.041  12.413  18.842  0.00  0.00    +0.000 C 
BRANCH  31  32
ATOM     32  C   UNL     1      -4.490  11.992  18.903  0.00  0.00    +0.000 A 
ATOM     33  C   UNL     1      -5.429  12.276  19.876  0.00  0.00    +0.000 A 
ATOM     34  C   UNL     1      -6.683  11.648  19.623  0.00  0.00    +0.000 A 
ATOM     35  C   UNL     1      -6.670  10.923  18.453  0.00  0.00    +0.000 A 
ATOM     36  S   UNL     1      -5.158  11.015  17.660  0.00  0.00    +0.000 S 
ENDBRANCH  31  32
ENDBRANCH   6  31
TORSDOF 9
ENDMDL
MODEL 6
REMARK VINA RESULT:      -7.9      1.144      1.282
REMARK  Name = 
REMARK  10 active torsions:
REMARK  status: ('A' for Active; 'I' for Inactive)
REMARK    1  A    between atoms: C_1  and  C_2
REMARK    2  A    between atoms: C_5  and  C_6
REMARK    3  A    between atoms: C_8  and  O_9
REMARK    4  A    between atoms: C_10  and  N_11
REMARK    5  A    between atoms: C_13  and  C_14
REMARK    6  A    between atoms: C_14  and  O_15
REMARK    7  A    between atoms: O_15  and  C_16
REMARK    8  A    between atoms: C_16  and  C_18
REMARK    9  A    between atoms: N_27  and  C_28
REMARK   10  A    between atoms: C_28  and  C_29
REMARK                            x       y       z     vdW  Elec       q    Type
REMARK                         _______ _______ _______ _____ _____    ______ ____
ROOT
ATOM      1  C   UNL     1      -0.892  12.242  21.070  0.00  0.00    +0.000 C 
ATOM      2  C   UNL     1      -0.420  11.378  22.249  0.00  0.00    +0.000 C 
ATOM      3  C   UNL     1       0.630  10.356  21.836  0.00  0.00    +0.000 C 
ATOM      4  C   UNL     1       0.110   9.500  20.681  0.00  0.00    +0.000 C 
ATOM      5  C   UNL     1      -0.368  10.403  19.534  0.00  0.00    +0.000 C 
ATOM      6  N   UNL     1      -1.371  11.422  19.922  0.00  0.00    +0.000 NA
ENDROOT
BRANCH   1  11
ATOM      7  C   UNL     1      -4.861  16.137  22.843  0.00  0.00    +0.000 C 
ATOM      8  C   UNL     1      -3.838  15.082  22.540  0.00  0.00    +0.000 A 
ATOM      9  C   UNL     1      -2.475  15.390  22.560  0.00  0.00    +0.000 A 
ATOM     10  C   UNL     1      -1.534  14.461  22.110  0.00  0.00    +0.000 A 
ATOM     11  C   UNL     1      -1.937  13.209  21.623  0.00  0.00    +0.000 A 
ATOM     12  C   UNL     1      -3.298  12.872  21.693  0.00  0.00    +0.000 A 
ATOM     13  C   UNL     1      -4.240  13.805  22.132  0.00  0.00    +0.000 A 
ENDBRANCH   1  11
BRANCH   4  14
ATOM     14  N   UNL     1       1.119   8.572  20.192  0.00  0.00    +0.000 N 
ATOM     15  C   UNL     1       1.726   8.547  18.971  0.00  0.00    +0.000 A 
ATOM     16  C   UNL     1       2.513   7.418  19.009  0.00  0.00    +0.000 A 
ATOM     17  N   UNL     1       2.345   6.798  20.220  0.00  0.00    +0.000 NA
ATOM     18  N   UNL     1       1.478   7.506  20.932  0.00  0.00    +0.000 NA
BRANCH  16  19
ATOM     19  C   UNL     1       3.405   6.861  17.961  0.00  0.00    +0.000 C 
BRANCH  19  20
ATOM     20  O   UNL     1       2.943   5.607  17.436  0.00  0.00    +0.000 OA
BRANCH  20  21
ATOM     21  C   UNL     1       3.633   4.520  17.856  0.00  0.00    +0.000 C 
ATOM     22  O   UNL     1       4.694   4.127  17.395  0.00  0.00    +0.000 OA
BRANCH  21  23
ATOM     23  C   UNL     1       2.898   3.821  18.943  0.00  0.00    +0.000 A 
ATOM     24  C   UNL     1       1.518   3.638  18.799  0.00  0.00    +0.000 A 
ATOM     25  C   UNL     1       0.780   3.010  19.802  0.00  0.00    +0.000 A 
ATOM     26  C   UNL     1       1.415   2.559  20.955  0.00  0.00    +0.000 A 
ATOM     27  C   UNL     1       2.791   2.730  21.109  0.00  0.00    +0.000 A 
ATOM     28  C   UNL     1       3.535   3.360  20.107  0.00  0.00    +0.000 A 
ENDBRANCH  21  23
ENDBRANCH  20  21
ENDBRANCH  19  20
ENDBRANCH  16  19
ENDBRANCH   4  14
BRANCH   3  29
ATOM     29  O   UNL     1       0.962   9.569  22.983  0.00  0.00    +0.000 OA
ATOM     30  H   UNL     1       0.449   9.889  23.746  0.00  0.00    +0.000 HD
ENDBRANCH   3  29
BRANCH   6  31
ATOM     31  C   UNL     1      -1.663  12.295  18.746  0.00  0.00    +0.000 C 
BRANCH  31  32
ATOM     32  C   UNL     1      -2.715  11.716  17.831  0.00  0.00    +0.000 A 
ATOM     33  C   UNL     1      -2.544  11.095  16.607  0.00  0.00    +0.000 A 
ATOM     34  C   UNL     1      -3.783  10.735  16.002  0.00  0.00    +0.000 A 
ATOM     35  C   UNL     1      -4.859  11.071  16.791  0.00  0.00    +0.000 A 
ATOM     36  S   UNL     1      -4.375  11.801  18.258  0.00  0.00    +0.000 S 
ENDBRANCH  31  32
ENDBRANCH   6  31
TORSDOF 9
ENDMDL
MODEL 7
REMARK VINA RESULT:      -7.9      3.458     10.363
REMARK  Name = 
REMARK  10 active torsions:
REMARK  status: ('A' for Active; 'I' for Inactive)
REMARK    1  A    between atoms: C_1  and  C_2
REMARK    2  A    between atoms: C_5  and  C_6
REMARK    3  A    between atoms: C_8  and  O_9
REMARK    4  A    between atoms: C_10  and  N_11
REMARK    5  A    between atoms: C_13  and  C_14
REMARK    6  A    between atoms: C_14  and  O_15
REMARK    7  A    between atoms: O_15  and  C_16
REMARK    8  A    between atoms: C_16  and  C_18
REMARK    9  A    between atoms: N_27  and  C_28
REMARK   10  A    between atoms: C_28  and  C_29
REMARK                            x       y       z     vdW  Elec       q    Type
REMARK                         _______ _______ _______ _____ _____    ______ ____
ROOT
ATOM      1  C   UNL     1       3.929   6.998  18.131  0.00  0.00    +0.000 C 
ATOM      2  C   UNL     1       3.285   8.149  17.344  0.00  0.00    +0.000 C 
ATOM      3  C   UNL     1       2.493   9.093  18.238  0.00  0.00    +0.000 C 
ATOM      4  C   UNL     1       1.457   8.310  19.046  0.00  0.00    +0.000 C 
ATOM      5  C   UNL     1       2.140   7.160  19.800  0.00  0.00    +0.000 C 
ATOM      6  N   UNL     1       2.937   6.246  18.949  0.00  0.00    +0.000 NA
ENDROOT
BRANCH   1  11
ATOM      7  C   UNL     1       6.542   3.836  13.979  0.00  0.00    +0.000 C 
ATOM      8  C   UNL     1       5.959   4.565  15.153  0.00  0.00    +0.000 A 
ATOM      9  C   UNL     1       4.753   4.145  15.721  0.00  0.00    +0.000 A 
ATOM     10  C   UNL     1       4.122   4.920  16.695  0.00  0.00    +0.000 A 
ATOM     11  C   UNL     1       4.679   6.136  17.117  0.00  0.00    +0.000 A 
ATOM     12  C   UNL     1       5.936   6.506  16.611  0.00  0.00    +0.000 A 
ATOM     13  C   UNL     1       6.561   5.736  15.628  0.00  0.00    +0.000 A 
ENDBRANCH   1  11
BRANCH   4  14
ATOM     14  N   UNL     1       0.741   9.162  19.984  0.00  0.00    +0.000 N 
ATOM     15  C   UNL     1       0.599   9.005  21.332  0.00  0.00    +0.000 A 
ATOM     16  C   UNL     1      -0.243  10.028  21.704  0.00  0.00    +0.000 A 
ATOM     17  N   UNL     1      -0.594  10.745  20.589  0.00  0.00    +0.000 NA
ATOM     18  N   UNL     1       0.004  10.197  19.539  0.00  0.00    +0.000 NA
BRANCH  16  19
ATOM     19  C   UNL     1      -0.769  10.368  23.050  0.00  0.00    +0.000 C 
BRANCH  19  20
ATOM     20  O   UNL     1      -0.817  11.782  23.296  0.00  0.00    +0.000 OA
BRANCH  20  21
ATOM     21  C   UNL     1      -2.061  12.318  23.318  0.00  0.00    +0.000 C 
ATOM     22  O   UNL     1      -3.087  11.726  23.617  0.00  0.00    +0.000 OA
BRANCH  21  23
ATOM     23  C   UNL     1      -2.028  13.737  22.878  0.00  0.00    +0.000 A 
ATOM     24  C   UNL     1      -2.695  14.080  21.696  0.00  0.00    +0.000 A 
ATOM     25  C   UNL     1      -2.674  15.394  21.228  0.00  0.00    +0.000 A 
ATOM     26  C   UNL     1      -1.986  16.374  21.937  0.00  0.00    +0.000 A 
ATOM     27  C   UNL     1      -1.320  16.047  23.119  0.00  0.00    +0.000 A 
ATOM     28  C   UNL     1      -1.339  14.731  23.592  0.00  0.00    +0.000 A 
ENDBRANCH  21  23
ENDBRANCH  20  21
ENDBRANCH  19  20
ENDBRANCH  16  19
ENDBRANCH   4  14
BRANCH   3  29
ATOM     29  O   UNL     1       1.891  10.092  17.411  0.00  0.00    +0.000 OA
ATOM     30  H   UNL     1       0.994   9.802  17.167  0.00  0.00    +0.000 HD
ENDBRANCH   3  29
BRANCH   6  31
ATOM     31  C   UNL     1       3.630   5.248  19.818  0.00  0.00    +0.000 C 
BRANCH  31  32
ATOM     32  C   UNL     1       2.721   4.129  20.268  0.00  0.00    +0.000 A 
ATOM     33  C   UNL     1       2.283   3.836  21.546  0.00  0.00    +0.000 A 
ATOM     34  C   UNL     1       1.485   2.657  21.591  0.00  0.00    +0.000 A 
ATOM     35  C   UNL     1       1.318   2.099  20.344  0.00  0.00    +0.000 A 
ATOM     36  S   UNL     1       2.108   3.003  19.127  0.00  0.00    +0.000 S 
ENDBRANCH  31  32
ENDBRANCH   6  31
TORSDOF 9
ENDMDL
MODEL 8
REMARK VINA RESULT:      -7.9      2.174      3.283
REMARK  Name = 
REMARK  10 active torsions:
REMARK  status: ('A' for Active; 'I' for Inactive)
REMARK    1  A    between atoms: C_1  and  C_2
REMARK    2  A    between atoms: C_5  and  C_6
REMARK    3  A    between atoms: C_8  and  O_9
REMARK    4  A    between atoms: C_10  and  N_11
REMARK    5  A    between atoms: C_13  and  C_14
REMARK    6  A    between atoms: C_14  and  O_15
REMARK    7  A    between atoms: O_15  and  C_16
REMARK    8  A    between atoms: C_16  and  C_18
REMARK    9  A    between atoms: N_27  and  C_28
REMARK   10  A    between atoms: C_28  and  C_29
REMARK                            x       y       z     vdW  Elec       q    Type
REMARK                         _______ _______ _______ _____ _____    ______ ____
ROOT
ATOM      1  C   UNL     1      -1.074  12.045  21.387  0.00  0.00    +0.000 C 
ATOM      2  C   UNL     1      -0.450  11.176  22.491  0.00  0.00    +0.000 C 
ATOM      3  C   UNL     1       0.618  10.234  21.954  0.00  0.00    +0.000 C 
ATOM      4  C   UNL     1       0.050   9.383  20.818  0.00  0.00    +0.000 C 
ATOM      5  C   UNL     1      -0.579  10.288  19.749  0.00  0.00    +0.000 C 
ATOM      6  N   UNL     1      -1.603  11.231  20.257  0.00  0.00    +0.000 NA
ENDROOT
BRANCH   1  11
ATOM      7  C   UNL     1      -5.254  15.458  23.610  0.00  0.00    +0.000 C 
ATOM      8  C   UNL     1      -4.102  14.598  23.180  0.00  0.00    +0.000 A 
ATOM      9  C   UNL     1      -3.041  15.147  22.455  0.00  0.00    +0.000 A 
ATOM     10  C   UNL     1      -2.058  14.320  21.905  0.00  0.00    +0.000 A 
ATOM     11  C   UNL     1      -2.122  12.928  22.062  0.00  0.00    +0.000 A 
ATOM     12  C   UNL     1      -3.138  12.393  22.869  0.00  0.00    +0.000 A 
ATOM     13  C   UNL     1      -4.126  13.218  23.409  0.00  0.00    +0.000 A 
ENDBRANCH   1  11
BRANCH   4  14
ATOM     14  N   UNL     1       1.066   8.533  20.212  0.00  0.00    +0.000 N 
ATOM     15  C   UNL     1       1.656   8.659  18.989  0.00  0.00    +0.000 A 
ATOM     16  C   UNL     1       2.459   7.547  18.886  0.00  0.00    +0.000 A 
ATOM     17  N   UNL     1       2.317   6.787  20.018  0.00  0.00    +0.000 NA
ATOM     18  N   UNL     1       1.450   7.395  20.819  0.00  0.00    +0.000 NA
BRANCH  16  19
ATOM     19  C   UNL     1       3.344   7.130  17.769  0.00  0.00    +0.000 C 
BRANCH  19  20
ATOM     20  O   UNL     1       3.461   5.703  17.646  0.00  0.00    +0.000 OA
BRANCH  20  21
ATOM     21  C   UNL     1       4.684   5.201  17.940  0.00  0.00    +0.000 C 
ATOM     22  O   UNL     1       5.125   5.012  19.064  0.00  0.00    +0.000 OA
BRANCH  21  23
ATOM     23  C   UNL     1       5.459   4.947  16.698  0.00  0.00    +0.000 A 
ATOM     24  C   UNL     1       6.793   5.367  16.651  0.00  0.00    +0.000 A 
ATOM     25  C   UNL     1       7.555   5.173  15.499  0.00  0.00    +0.000 A 
ATOM     26  C   UNL     1       6.990   4.557  14.386  0.00  0.00    +0.000 A 
ATOM     27  C   UNL     1       5.662   4.129  14.421  0.00  0.00    +0.000 A 
ATOM     28  C   UNL     1       4.895   4.322  15.573  0.00  0.00    +0.000 A 
ENDBRANCH  21  23
ENDBRANCH  20  21
ENDBRANCH  19  20
ENDBRANCH  16  19
ENDBRANCH   4  14
BRANCH   3  29
ATOM     29  O   UNL     1       1.096   9.436  23.040  0.00  0.00    +0.000 OA
ATOM     30  H   UNL     1       1.564   8.661  22.681  0.00  0.00    +0.000 HD
ENDBRANCH   3  29
BRANCH   6  31
ATOM     31  C   UNL     1      -2.048  12.118  19.142  0.00  0.00    +0.000 C 
BRANCH  31  32
ATOM     32  C   UNL     1      -3.511  11.951  18.805  0.00  0.00    +0.000 A 
ATOM     33  C   UNL     1      -4.614  12.344  19.539  0.00  0.00    +0.000 A 
ATOM     34  C   UNL     1      -5.841  11.954  18.929  0.00  0.00    +0.000 A 
ATOM     35  C   UNL     1      -5.639  11.296  17.738  0.00  0.00    +0.000 A 
ATOM     36  S   UNL     1      -3.978  11.164  17.353  0.00  0.00    +0.000 S 
ENDBRANCH  31  32
ENDBRANCH   6  31
TORSDOF 9
ENDMDL
MODEL 9
REMARK VINA RESULT:      -7.9      1.965      3.133
REMARK  Name = 
REMARK  10 active torsions:
REMARK  status: ('A' for Active; 'I' for Inactive)
REMARK    1  A    between atoms: C_1  and  C_2
REMARK    2  A    between atoms: C_5  and  C_6
REMARK    3  A    between atoms: C_8  and  O_9
REMARK    4  A    between atoms: C_10  and  N_11
REMARK    5  A    between atoms: C_13  and  C_14
REMARK    6  A    between atoms: C_14  and  O_15
REMARK    7  A    between atoms: O_15  and  C_16
REMARK    8  A    between atoms: C_16  and  C_18
REMARK    9  A    between atoms: N_27  and  C_28
REMARK   10  A    between atoms: C_28  and  C_29
REMARK                            x       y       z     vdW  Elec       q    Type
REMARK                         _______ _______ _______ _____ _____    ______ ____
ROOT
ATOM      1  C   UNL     1      -0.726  12.066  20.922  0.00  0.00    +0.000 C 
ATOM      2  C   UNL     1      -0.324  11.215  22.138  0.00  0.00    +0.000 C 
ATOM      3  C   UNL     1       0.701  10.147  21.785  0.00  0.00    +0.000 C 
ATOM      4  C   UNL     1       0.188   9.281  20.634  0.00  0.00    +0.000 C 
ATOM      5  C   UNL     1      -0.219  10.171  19.450  0.00  0.00    +0.000 C 
ATOM      6  N   UNL     1      -1.197  11.234  19.780  0.00  0.00    +0.000 NA
ENDROOT
BRANCH   1  11
ATOM      7  C   UNL     1      -4.531  15.872  23.181  0.00  0.00    +0.000 C 
ATOM      8  C   UNL     1      -3.632  14.911  22.460  0.00  0.00    +0.000 A 
ATOM      9  C   UNL     1      -3.884  13.537  22.500  0.00  0.00    +0.000 A 
ATOM     10  C   UNL     1      -2.957  12.632  21.980  0.00  0.00    +0.000 A 
ATOM     11  C   UNL     1      -1.753  13.082  21.417  0.00  0.00    +0.000 A 
ATOM     12  C   UNL     1      -1.549  14.466  21.296  0.00  0.00    +0.000 A 
ATOM     13  C   UNL     1      -2.472  15.370  21.826  0.00  0.00    +0.000 A 
ENDBRANCH   1  11
BRANCH   4  14
ATOM     14  N   UNL     1       1.179   8.306  20.202  0.00  0.00    +0.000 N 
ATOM     15  C   UNL     1       1.895   8.283  19.042  0.00  0.00    +0.000 A 
ATOM     16  C   UNL     1       2.603   7.104  19.105  0.00  0.00    +0.000 A 
ATOM     17  N   UNL     1       2.283   6.454  20.268  0.00  0.00    +0.000 NA
ATOM     18  N   UNL     1       1.399   7.193  20.927  0.00  0.00    +0.000 NA
BRANCH  16  19
ATOM     19  C   UNL     1       3.553   6.527  18.121  0.00  0.00    +0.000 C 
BRANCH  19  20
ATOM     20  O   UNL     1       4.614   5.778  18.735  0.00  0.00    +0.000 OA
BRANCH  20  21
ATOM     21  C   UNL     1       4.806   4.536  18.230  0.00  0.00    +0.000 C 
ATOM     22  O   UNL     1       4.468   3.490  18.762  0.00  0.00    +0.000 OA
BRANCH  21  23
ATOM     23  C   UNL     1       5.541   4.604  16.939  0.00  0.00    +0.000 A 
ATOM     24  C   UNL     1       4.927   4.075  15.798  0.00  0.00    +0.000 A 
ATOM     25  C   UNL     1       5.585   4.093  14.568  0.00  0.00    +0.000 A 
ATOM     26  C   UNL     1       6.860   4.642  14.470  0.00  0.00    +0.000 A 
ATOM     27  C   UNL     1       7.481   5.178  15.598  0.00  0.00    +0.000 A 
ATOM     28  C   UNL     1       6.826   5.162  16.833  0.00  0.00    +0.000 A 
ENDBRANCH  21  23
ENDBRANCH  20  21
ENDBRANCH  19  20
ENDBRANCH  16  19
ENDBRANCH   4  14
BRANCH   3  29
ATOM     29  O   UNL     1       0.967   9.378  22.961  0.00  0.00    +0.000 OA
ATOM     30  H   UNL     1       0.421   8.573  22.943  0.00  0.00    +0.000 HD
ENDBRANCH   3  29
BRANCH   6  31
ATOM     31  C   UNL     1      -1.419  12.087  18.574  0.00  0.00    +0.000 C 
BRANCH  31  32
ATOM     32  C   UNL     1      -2.592  11.631  17.739  0.00  0.00    +0.000 A 
ATOM     33  C   UNL     1      -2.587  11.104  16.462  0.00  0.00    +0.000 A 
ATOM     34  C   UNL     1      -3.901  10.851  15.972  0.00  0.00    +0.000 A 
ATOM     35  C   UNL     1      -4.867  11.171  16.899  0.00  0.00    +0.000 A 
ATOM     36  S   UNL     1      -4.190  11.757  18.354  0.00  0.00    +0.000 S 
ENDBRANCH  31  32
ENDBRANCH   6  31
TORSDOF 9
ENDMDL
