MODEL 1
REMARK VINA RESULT:      -7.9      0.000      0.000
REMARK  Name = 
REMARK  7 active torsions:
REMARK  status: ('A' for Active; 'I' for Inactive)
REMARK    1  A    between atoms: C_1  and  C_2
REMARK    2  A    between atoms: C_7  and  C_8
REMARK    3  A    between atoms: C_9  and  C_10
REMARK    4  A    between atoms: C_10  and  C_11
REMARK    5  A    between atoms: C_11  and  C_12
REMARK    6  A    between atoms: C_14  and  O_15
REMARK    7  A    between atoms: C_16  and  O_17
REMARK                            x       y       z     vdW  Elec       q    Type
REMARK                         _______ _______ _______ _____ _____    ______ ____
ROOT
ATOM      1  C   UNL     1       6.990   4.742  15.955  0.00  0.00    +0.000 C 
ENDROOT
BRANCH   1   2
ATOM      2  C   UNL     1       6.731   5.399  17.306  0.00  0.00    +0.000 C 
ATOM      3  O   UNL     1       7.369   4.654  18.375  0.00  0.00    +0.000 OA
ATOM      4  C   UNL     1       8.061   5.596  19.114  0.00  0.00    +0.000 C 
ATOM      5  C   UNL     1       8.107   6.847  18.658  0.00  0.00    +0.000 C 
ATOM      6  C   UNL     1       7.315   6.788  17.431  0.00  0.00    +0.000 C 
ATOM      7  O   UNL     1       7.133   7.719  16.662  0.00  0.00    +0.000 OA
BRANCH   4   8
ATOM      8  O   UNL     1       8.672   5.218  20.277  0.00  0.00    +0.000 OA
ATOM      9  H   UNL     1       7.975   5.302  20.957  0.00  0.00    +0.000 HD
ENDBRANCH   4   8
BRANCH   5  10
ATOM     10  O   UNL     1       8.725   7.931  19.201  0.00  0.00    +0.000 OA
ATOM     11  H   UNL     1       9.639   7.911  18.867  0.00  0.00    +0.000 HD
ENDBRANCH   5  10
ENDBRANCH   1   2
BRANCH   1  12
ATOM     12  C   UNL     1       5.821   3.867  15.500  0.00  0.00    +0.000 C 
BRANCH  12  14
ATOM     13  C   UNL     1       3.750   3.711  17.414  0.00  0.00    +0.000 C 
ATOM     14  C   UNL     1       4.707   3.783  16.530  0.00  0.00    +0.000 C 
BRANCH  13  21
ATOM     15  C   UNL     1       3.518   5.646  19.614  0.00  0.00    +0.000 C 
ATOM     16  C   UNL     1       2.538   4.524  19.413  0.00  0.00    +0.000 A 
ATOM     17  C   UNL     1       1.477   4.362  20.320  0.00  0.00    +0.000 A 
ATOM     18  C   UNL     1       0.571   3.310  20.176  0.00  0.00    +0.000 A 
ATOM     19  C   UNL     1       0.704   2.415  19.118  0.00  0.00    +0.000 A 
ATOM     20  C   UNL     1       1.747   2.571  18.203  0.00  0.00    +0.000 A 
ATOM     21  C   UNL     1       2.668   3.615  18.349  0.00  0.00    +0.000 A 
ENDBRANCH  13  21
ENDBRANCH  12  14
ENDBRANCH   1  12
TORSDOF 6
ENDMDL
MODEL 2
REMARK VINA RESULT:      -7.8      1.012      1.349
REMARK  Name = 
REMARK  7 active torsions:
REMARK  status: ('A' for Active; 'I' for Inactive)
REMARK    1  A    between atoms: C_1  and  C_2
REMARK    2  A    between atoms: C_7  and  C_8
REMARK    3  A    between atoms: C_9  and  C_10
REMARK    4  A    between atoms: C_10  and  C_11
REMARK    5  A    between atoms: C_11  and  C_12
REMARK    6  A    between atoms: C_14  and  O_15
REMARK    7  A    between atoms: C_16  and  O_17
REMARK                            x       y       z     vdW  Elec       q    Type
REMARK                         _______ _______ _______ _____ _____    ______ ____
ROOT
ATOM      1  C   UNL     1       6.866   4.630  16.177  0.00  0.00    +0.000 C 
ENDROOT
BRANCH   1   2
ATOM      2  C   UNL     1       6.621   5.452  17.438  0.00  0.00    +0.000 C 
ATOM      3  O   UNL     1       7.128   4.765  18.610  0.00  0.00    +0.000 OA
ATOM      4  C   UNL     1       7.885   5.704  19.285  0.00  0.00    +0.000 C 
ATOM      5  C   UNL     1       8.087   6.887  18.707  0.00  0.00    +0.000 C 
ATOM      6  C   UNL     1       7.347   6.778  17.451  0.00  0.00    +0.000 C 
ATOM      7  O   UNL     1       7.300   7.636  16.582  0.00  0.00    +0.000 OA
BRANCH   4   8
ATOM      8  O   UNL     1       8.401   5.392  20.513  0.00  0.00    +0.000 OA
ATOM      9  H   UNL     1       8.912   6.183  20.771  0.00  0.00    +0.000 HD
ENDBRANCH   4   8
BRANCH   5  10
ATOM     10  O   UNL     1       8.795   7.953  19.170  0.00  0.00    +0.000 OA
ATOM     11  H   UNL     1       9.557   7.580  19.646  0.00  0.00    +0.000 HD
ENDBRANCH   5  10
ENDBRANCH   1   2
BRANCH   1  12
ATOM     12  C   UNL     1       5.693   3.705  15.851  0.00  0.00    +0.000 C 
BRANCH  12  14
ATOM     13  C   UNL     1       3.913   3.372  18.017  0.00  0.00    +0.000 C 
ATOM     14  C   UNL     1       4.735   3.526  17.016  0.00  0.00    +0.000 C 
BRANCH  13  21
ATOM     15  C   UNL     1       1.118   4.214  17.674  0.00  0.00    +0.000 C 
ATOM     16  C   UNL     1       1.630   3.601  18.948  0.00  0.00    +0.000 A 
ATOM     17  C   UNL     1       0.759   3.442  20.038  0.00  0.00    +0.000 A 
ATOM     18  C   UNL     1       1.215   2.905  21.243  0.00  0.00    +0.000 A 
ATOM     19  C   UNL     1       2.544   2.508  21.370  0.00  0.00    +0.000 A 
ATOM     20  C   UNL     1       3.418   2.650  20.292  0.00  0.00    +0.000 A 
ATOM     21  C   UNL     1       2.970   3.201  19.085  0.00  0.00    +0.000 A 
ENDBRANCH  13  21
ENDBRANCH  12  14
ENDBRANCH   1  12
TORSDOF 6
ENDMDL
MODEL 3
REMARK VINA RESULT:      -7.6      1.160      1.323
REMARK  Name = 
REMARK  7 active torsions:
REMARK  status: ('A' for Active; 'I' for Inactive)
REMARK    1  A    between atoms: C_1  and  C_2
REMARK    2  A    between atoms: C_7  and  C_8
REMARK    3  A    between atoms: C_9  and  C_10
REMARK    4  A    between atoms: C_10  and  C_11
REMARK    5  A    between atoms: C_11  and  C_12
REMARK    6  A    between atoms: C_14  and  O_15
REMARK    7  A    between atoms: C_16  and  O_17
REMARK                            x       y       z     vdW  Elec       q    Type
REMARK                         _______ _______ _______ _____ _____    ______ ____
ROOT
ATOM      1  C   UNL     1       6.680   4.767  16.137  0.00  0.00    +0.000 C 
ENDROOT
BRANCH   1   2
ATOM      2  C   UNL     1       6.556   5.476  17.481  0.00  0.00    +0.000 C 
ATOM      3  O   UNL     1       7.226   4.726  18.526  0.00  0.00    +0.000 OA
ATOM      4  C   UNL     1       8.022   5.647  19.184  0.00  0.00    +0.000 C 
ATOM      5  C   UNL     1       8.107   6.879  18.685  0.00  0.00    +0.000 C 
ATOM      6  C   UNL     1       7.227   6.831  17.519  0.00  0.00    +0.000 C 
ATOM      7  O   UNL     1       7.043   7.750  16.734  0.00  0.00    +0.000 OA
BRANCH   4   8
ATOM      8  O   UNL     1       8.692   5.267  20.313  0.00  0.00    +0.000 OA
ATOM      9  H   UNL     1       8.143   4.556  20.695  0.00  0.00    +0.000 HD
ENDBRANCH   4   8
BRANCH   5  10
ATOM     10  O   UNL     1       8.823   7.939  19.148  0.00  0.00    +0.000 OA
ATOM     11  H   UNL     1       9.452   7.573  19.794  0.00  0.00    +0.000 HD
ENDBRANCH   5  10
ENDBRANCH   1   2
BRANCH   1  12
ATOM     12  C   UNL     1       5.426   3.966  15.786  0.00  0.00    +0.000 C 
BRANCH  12  14
ATOM     13  C   UNL     1       3.741   3.521  18.009  0.00  0.00    +0.000 C 
ATOM     14  C   UNL     1       4.519   3.727  16.982  0.00  0.00    +0.000 C 
BRANCH  13  21
ATOM     15  C   UNL     1       4.642   2.043  20.384  0.00  0.00    +0.000 C 
ATOM     16  C   UNL     1       3.261   2.626  20.266  0.00  0.00    +0.000 A 
ATOM     17  C   UNL     1       2.341   2.442  21.312  0.00  0.00    +0.000 A 
ATOM     18  C   UNL     1       1.043   2.945  21.216  0.00  0.00    +0.000 A 
ATOM     19  C   UNL     1       0.650   3.648  20.080  0.00  0.00    +0.000 A 
ATOM     20  C   UNL     1       1.557   3.847  19.038  0.00  0.00    +0.000 A 
ATOM     21  C   UNL     1       2.856   3.334  19.121  0.00  0.00    +0.000 A 
ENDBRANCH  13  21
ENDBRANCH  12  14
ENDBRANCH   1  12
TORSDOF 6
ENDMDL
MODEL 4
REMARK VINA RESULT:      -7.6      2.225      3.979
REMARK  Name = 
REMARK  7 active torsions:
REMARK  status: ('A' for Active; 'I' for Inactive)
REMARK    1  A    between atoms: C_1  and  C_2
REMARK    2  A    between atoms: C_7  and  C_8
REMARK    3  A    between atoms: C_9  and  C_10
REMARK    4  A    between atoms: C_10  and  C_11
REMARK    5  A    between atoms: C_11  and  C_12
REMARK    6  A    between atoms: C_14  and  O_15
REMARK    7  A    between atoms: C_16  and  O_17
REMARK                            x       y       z     vdW  Elec       q    Type
REMARK                         _______ _______ _______ _____ _____    ______ ____
ROOT
ATOM      1  C   UNL     1       7.658   4.799  17.446  0.00  0.00    +0.000 C 
ENDROOT
BRANCH   1   2
ATOM      2  C   UNL     1       6.859   5.209  16.214  0.00  0.00    +0.000 C 
ATOM      3  O   UNL     1       7.724   5.786  15.204  0.00  0.00    +0.000 OA
ATOM      4  C   UNL     1       7.401   5.133  14.029  0.00  0.00    +0.000 C 
ATOM      5  C   UNL     1       6.547   4.113  14.088  0.00  0.00    +0.000 C 
ATOM      6  C   UNL     1       6.195   4.049  15.505  0.00  0.00    +0.000 C 
ATOM      7  O   UNL     1       5.460   3.217  16.014  0.00  0.00    +0.000 OA
BRANCH   4   8
ATOM      8  O   UNL     1       7.966   5.547  12.855  0.00  0.00    +0.000 OA
ATOM      9  H   UNL     1       8.903   5.281  12.927  0.00  0.00    +0.000 HD
ENDBRANCH   4   8
BRANCH   5  10
ATOM     10  O   UNL     1       6.090   3.323  13.078  0.00  0.00    +0.000 OA
ATOM     11  H   UNL     1       6.547   3.629  12.274  0.00  0.00    +0.000 HD
ENDBRANCH   5  10
ENDBRANCH   1   2
BRANCH   1  12
ATOM     12  C   UNL     1       7.106   5.421  18.729  0.00  0.00    +0.000 C 
BRANCH  12  14
ATOM     13  C   UNL     1       4.502   4.529  19.360  0.00  0.00    +0.000 C 
ATOM     14  C   UNL     1       5.705   4.941  19.068  0.00  0.00    +0.000 C 
BRANCH  13  21
ATOM     15  C   UNL     1       3.754   1.787  18.612  0.00  0.00    +0.000 C 
ATOM     16  C   UNL     1       2.805   2.727  19.304  0.00  0.00    +0.000 A 
ATOM     17  C   UNL     1       1.497   2.304  19.588  0.00  0.00    +0.000 A 
ATOM     18  C   UNL     1       0.586   3.166  20.201  0.00  0.00    +0.000 A 
ATOM     19  C   UNL     1       0.975   4.457  20.550  0.00  0.00    +0.000 A 
ATOM     20  C   UNL     1       2.276   4.887  20.283  0.00  0.00    +0.000 A 
ATOM     21  C   UNL     1       3.190   4.032  19.656  0.00  0.00    +0.000 A 
ENDBRANCH  13  21
ENDBRANCH  12  14
ENDBRANCH   1  12
TORSDOF 6
ENDMDL
MODEL 5
REMARK VINA RESULT:      -7.5      4.121      8.255
REMARK  Name = 
REMARK  7 active torsions:
REMARK  status: ('A' for Active; 'I' for Inactive)
REMARK    1  A    between atoms: C_1  and  C_2
REMARK    2  A    between atoms: C_7  and  C_8
REMARK    3  A    between atoms: C_9  and  C_10
REMARK    4  A    between atoms: C_10  and  C_11
REMARK    5  A    between atoms: C_11  and  C_12
REMARK    6  A    between atoms: C_14  and  O_15
REMARK    7  A    between atoms: C_16  and  O_17
REMARK                            x       y       z     vdW  Elec       q    Type
REMARK                         _______ _______ _______ _____ _____    ______ ____
ROOT
ATOM      1  C   UNL     1       7.882   6.492  18.665  0.00  0.00    +0.000 C 
ENDROOT
BRANCH   1   2
ATOM      2  C   UNL     1       6.933   5.314  18.471  0.00  0.00    +0.000 C 
ATOM      3  O   UNL     1       5.556   5.720  18.674  0.00  0.00    +0.000 OA
ATOM      4  C   UNL     1       4.867   5.234  17.577  0.00  0.00    +0.000 C 
ATOM      5  C   UNL     1       5.564   4.672  16.592  0.00  0.00    +0.000 C 
ATOM      6  C   UNL     1       6.943   4.748  17.069  0.00  0.00    +0.000 C 
ATOM      7  O   UNL     1       7.928   4.381  16.446  0.00  0.00    +0.000 OA
BRANCH   4   8
ATOM      8  O   UNL     1       3.505   5.349  17.538  0.00  0.00    +0.000 OA
ATOM      9  H   UNL     1       3.329   5.902  16.752  0.00  0.00    +0.000 HD
ENDBRANCH   4   8
BRANCH   5  10
ATOM     10  O   UNL     1       5.112   4.136  15.425  0.00  0.00    +0.000 OA
ATOM     11  H   UNL     1       4.177   4.399  15.356  0.00  0.00    +0.000 HD
ENDBRANCH   5  10
ENDBRANCH   1   2
BRANCH   1  12
ATOM     12  C   UNL     1       7.627   7.614  17.659  0.00  0.00    +0.000 C 
BRANCH  12  14
ATOM     13  C   UNL     1       8.859  10.049  18.383  0.00  0.00    +0.000 C 
ATOM     14  C   UNL     1       8.290   8.924  18.048  0.00  0.00    +0.000 C 
BRANCH  13  21
ATOM     15  C   UNL     1       7.990  12.632  17.281  0.00  0.00    +0.000 C 
ATOM     16  C   UNL     1       9.132  12.506  18.252  0.00  0.00    +0.000 A 
ATOM     17  C   UNL     1       9.842  13.655  18.637  0.00  0.00    +0.000 A 
ATOM     18  C   UNL     1      10.926  13.564  19.512  0.00  0.00    +0.000 A 
ATOM     19  C   UNL     1      11.306  12.326  20.023  0.00  0.00    +0.000 A 
ATOM     20  C   UNL     1      10.604  11.177  19.657  0.00  0.00    +0.000 A 
ATOM     21  C   UNL     1       9.524  11.260  18.769  0.00  0.00    +0.000 A 
ENDBRANCH  13  21
ENDBRANCH  12  14
ENDBRANCH   1  12
TORSDOF 6
ENDMDL
MODEL 6
REMARK VINA RESULT:      -7.3      3.113      6.070
REMARK  Name = 
REMARK  7 active torsions:
REMARK  status: ('A' for Active; 'I' for Inactive)
REMARK    1  A    between atoms: C_1  and  C_2
REMARK    2  A    between atoms: C_7  and  C_8
REMARK    3  A    between atoms: C_9  and  C_10
REMARK    4  A    between atoms: C_10  and  C_11
REMARK    5  A    between atoms: C_11  and  C_12
REMARK    6  A    between atoms: C_14  and  O_15
REMARK    7  A    between atoms: C_16  and  O_17
REMARK                            x       y       z     vdW  Elec       q    Type
REMARK                         _______ _______ _______ _____ _____    ______ ____
ROOT
ATOM      1  C   UNL     1       0.883   3.591  19.016  0.00  0.00    +0.000 C 
ENDROOT
BRANCH   1   2
ATOM      2  C   UNL     1       1.615   2.321  19.436  0.00  0.00    +0.000 C 
ATOM      3  O   UNL     1       2.200   1.656  18.286  0.00  0.00    +0.000 OA
ATOM      4  C   UNL     1       3.511   1.397  18.642  0.00  0.00    +0.000 C 
ATOM      5  C   UNL     1       3.960   1.886  19.797  0.00  0.00    +0.000 C 
ATOM      6  C   UNL     1       2.793   2.570  20.350  0.00  0.00    +0.000 C 
ATOM      7  O   UNL     1       2.775   3.204  21.394  0.00  0.00    +0.000 OA
BRANCH   4   8
ATOM      8  O   UNL     1       4.298   0.657  17.804  0.00  0.00    +0.000 OA
ATOM      9  H   UNL     1       4.940   0.221  18.396  0.00  0.00    +0.000 HD
ENDBRANCH   4   8
BRANCH   5  10
ATOM     10  O   UNL     1       5.199   1.769  20.348  0.00  0.00    +0.000 OA
ATOM     11  H   UNL     1       5.339   0.816  20.486  0.00  0.00    +0.000 HD
ENDBRANCH   5  10
ENDBRANCH   1   2
BRANCH   1  12
ATOM     12  C   UNL     1       1.437   4.178  17.718  0.00  0.00    +0.000 C 
BRANCH  12  14
ATOM     13  C   UNL     1       4.070   5.163  17.987  0.00  0.00    +0.000 C 
ATOM     14  C   UNL     1       2.854   4.708  17.862  0.00  0.00    +0.000 C 
BRANCH  13  21
ATOM     15  C   UNL     1       5.143   6.953  15.917  0.00  0.00    +0.000 C 
ATOM     16  C   UNL     1       5.928   6.563  17.140  0.00  0.00    +0.000 A 
ATOM     17  C   UNL     1       7.238   7.043  17.303  0.00  0.00    +0.000 A 
ATOM     18  C   UNL     1       8.000   6.672  18.412  0.00  0.00    +0.000 A 
ATOM     19  C   UNL     1       7.459   5.828  19.379  0.00  0.00    +0.000 A 
ATOM     20  C   UNL     1       6.154   5.354  19.235  0.00  0.00    +0.000 A 
ATOM     21  C   UNL     1       5.389   5.710  18.118  0.00  0.00    +0.000 A 
ENDBRANCH  13  21
ENDBRANCH  12  14
ENDBRANCH   1  12
TORSDOF 6
ENDMDL
MODEL 7
REMARK VINA RESULT:      -7.3      4.684      6.924
REMARK  Name = 
REMARK  7 active torsions:
REMARK  status: ('A' for Active; 'I' for Inactive)
REMARK    1  A    between atoms: C_1  and  C_2
REMARK    2  A    between atoms: C_7  and  C_8
REMARK    3  A    between atoms: C_9  and  C_10
REMARK    4  A    between atoms: C_10  and  C_11
REMARK    5  A    between atoms: C_11  and  C_12
REMARK    6  A    between atoms: C_14  and  O_15
REMARK    7  A    between atoms: C_16  and  O_17
REMARK                            x       y       z     vdW  Elec       q    Type
REMARK                         _______ _______ _______ _____ _____    ______ ____
ROOT
ATOM      1  C   UNL     1       1.047   4.337  20.282  0.00  0.00    +0.000 C 
ENDROOT
BRANCH   1   2
ATOM      2  C   UNL     1       1.715   3.033  19.863  0.00  0.00    +0.000 C 
ATOM      3  O   UNL     1       2.319   3.159  18.549  0.00  0.00    +0.000 OA
ATOM      4  C   UNL     1       3.605   2.670  18.690  0.00  0.00    +0.000 C 
ATOM      5  C   UNL     1       4.028   2.347  19.911  0.00  0.00    +0.000 C 
ATOM      6  C   UNL     1       2.867   2.624  20.754  0.00  0.00    +0.000 C 
ATOM      7  O   UNL     1       2.832   2.507  21.970  0.00  0.00    +0.000 OA
BRANCH   4   8
ATOM      8  O   UNL     1       4.396   2.539  17.582  0.00  0.00    +0.000 OA
ATOM      9  H   UNL     1       4.468   1.574  17.448  0.00  0.00    +0.000 HD
ENDBRANCH   4   8
BRANCH   5  10
ATOM     10  O   UNL     1       5.240   1.859  20.293  0.00  0.00    +0.000 OA
ATOM     11  H   UNL     1       5.062   1.262  21.041  0.00  0.00    +0.000 HD
ENDBRANCH   5  10
ENDBRANCH   1   2
BRANCH   1  12
ATOM     12  C   UNL     1       2.048   5.487  20.412  0.00  0.00    +0.000 C 
BRANCH  12  14
ATOM     13  C   UNL     1       0.834   7.931  21.136  0.00  0.00    +0.000 C 
ATOM     14  C   UNL     1       1.395   6.802  20.801  0.00  0.00    +0.000 C 
BRANCH  13  21
ATOM     15  C   UNL     1       0.966  10.193  19.263  0.00  0.00    +0.000 C 
ATOM     16  C   UNL     1       0.316  10.295  20.615  0.00  0.00    +0.000 A 
ATOM     17  C   UNL     1      -0.232  11.521  21.028  0.00  0.00    +0.000 A 
ATOM     18  C   UNL     1      -0.814  11.653  22.290  0.00  0.00    +0.000 A 
ATOM     19  C   UNL     1      -0.868  10.559  23.150  0.00  0.00    +0.000 A 
ATOM     20  C   UNL     1      -0.337   9.333  22.748  0.00  0.00    +0.000 A 
ATOM     21  C   UNL     1       0.260   9.197  21.490  0.00  0.00    +0.000 A 
ENDBRANCH  13  21
ENDBRANCH  12  14
ENDBRANCH   1  12
TORSDOF 6
ENDMDL
MODEL 8
REMARK VINA RESULT:      -7.2      2.418      3.908
REMARK  Name = 
REMARK  7 active torsions:
REMARK  status: ('A' for Active; 'I' for Inactive)
REMARK    1  A    between atoms: C_1  and  C_2
REMARK    2  A    between atoms: C_7  and  C_8
REMARK    3  A    between atoms: C_9  and  C_10
REMARK    4  A    between atoms: C_10  and  C_11
REMARK    5  A    between atoms: C_11  and  C_12
REMARK    6  A    between atoms: C_14  and  O_15
REMARK    7  A    between atoms: C_16  and  O_17
REMARK                            x       y       z     vdW  Elec       q    Type
REMARK                         _______ _______ _______ _____ _____    ______ ____
ROOT
ATOM      1  C   UNL     1       7.602   4.673  17.155  0.00  0.00    +0.000 C 
ENDROOT
BRANCH   1   2
ATOM      2  C   UNL     1       6.873   5.226  15.935  0.00  0.00    +0.000 C 
ATOM      3  O   UNL     1       7.809   5.548  14.875  0.00  0.00    +0.000 OA
ATOM      4  C   UNL     1       7.291   4.956  13.738  0.00  0.00    +0.000 C 
ATOM      5  C   UNL     1       6.221   4.173  13.865  0.00  0.00    +0.000 C 
ATOM      6  C   UNL     1       5.923   4.239  15.294  0.00  0.00    +0.000 C 
ATOM      7  O   UNL     1       5.032   3.623  15.859  0.00  0.00    +0.000 OA
BRANCH   4   8
ATOM      8  O   UNL     1       7.890   5.187  12.530  0.00  0.00    +0.000 OA
ATOM      9  H   UNL     1       8.083   6.144  12.533  0.00  0.00    +0.000 HD
ENDBRANCH   4   8
BRANCH   5  10
ATOM     10  O   UNL     1       5.547   3.486  12.902  0.00  0.00    +0.000 OA
ATOM     11  H   UNL     1       5.947   3.753  12.056  0.00  0.00    +0.000 HD
ENDBRANCH   5  10
ENDBRANCH   1   2
BRANCH   1  12
ATOM     12  C   UNL     1       7.205   5.395  18.444  0.00  0.00    +0.000 C 
BRANCH  12  14
ATOM     13  C   UNL     1       4.682   4.596  19.427  0.00  0.00    +0.000 C 
ATOM     14  C   UNL     1       5.847   4.965  18.973  0.00  0.00    +0.000 C 
BRANCH  13  21
ATOM     15  C   UNL     1       2.470   6.523  19.613  0.00  0.00    +0.000 C 
ATOM     16  C   UNL     1       2.318   5.074  19.984  0.00  0.00    +0.000 A 
ATOM     17  C   UNL     1       1.083   4.610  20.467  0.00  0.00    +0.000 A 
ATOM     18  C   UNL     1       0.922   3.277  20.849  0.00  0.00    +0.000 A 
ATOM     19  C   UNL     1       1.988   2.387  20.741  0.00  0.00    +0.000 A 
ATOM     20  C   UNL     1       3.217   2.832  20.252  0.00  0.00    +0.000 A 
ATOM     21  C   UNL     1       3.390   4.171  19.881  0.00  0.00    +0.000 A 
ENDBRANCH  13  21
ENDBRANCH  12  14
ENDBRANCH   1  12
TORSDOF 6
ENDMDL
MODEL 9
REMARK VINA RESULT:      -7.2      4.179      8.368
REMARK  Name = 
REMARK  7 active torsions:
REMARK  status: ('A' for Active; 'I' for Inactive)
REMARK    1  A    between atoms: C_1  and  C_2
REMARK    2  A    between atoms: C_7  and  C_8
REMARK    3  A    between atoms: C_9  and  C_10
REMARK    4  A    between atoms: C_10  and  C_11
REMARK    5  A    between atoms: C_11  and  C_12
REMARK    6  A    between atoms: C_14  and  O_15
REMARK    7  A    between atoms: C_16  and  O_17
REMARK                            x       y       z     vdW  Elec       q    Type
REMARK                         _______ _______ _______ _____ _____    ______ ____
ROOT
ATOM      1  C   UNL     1       8.042   6.739  18.795  0.00  0.00    +0.000 C 
ENDROOT
BRANCH   1   2
ATOM      2  C   UNL     1       7.070   5.566  18.745  0.00  0.00    +0.000 C 
ATOM      3  O   UNL     1       5.721   6.022  18.470  0.00  0.00    +0.000 OA
ATOM      4  C   UNL     1       5.265   5.219  17.441  0.00  0.00    +0.000 C 
ATOM      5  C   UNL     1       6.122   4.369  16.876  0.00  0.00    +0.000 C 
ATOM      6  C   UNL     1       7.356   4.585  17.629  0.00  0.00    +0.000 C 
ATOM      7  O   UNL     1       8.424   4.034  17.409  0.00  0.00    +0.000 OA
BRANCH   4   8
ATOM      8  O   UNL     1       3.963   5.322  17.037  0.00  0.00    +0.000 OA
ATOM      9  H   UNL     1       3.675   6.196  17.365  0.00  0.00    +0.000 HD
ENDBRANCH   4   8
BRANCH   5  10
ATOM     10  O   UNL     1       5.908   3.495  15.856  0.00  0.00    +0.000 OA
ATOM     11  H   UNL     1       5.455   2.729  16.253  0.00  0.00    +0.000 HD
ENDBRANCH   5  10
ENDBRANCH   1   2
BRANCH   1  12
ATOM     12  C   UNL     1       7.686   7.832  17.788  0.00  0.00    +0.000 C 
BRANCH  12  14
ATOM     13  C   UNL     1       8.991  10.282  18.306  0.00  0.00    +0.000 C 
ATOM     14  C   UNL     1       8.388   9.150  18.067  0.00  0.00    +0.000 C 
BRANCH  13  21
ATOM     15  C   UNL     1       9.301  11.139  21.100  0.00  0.00    +0.000 C 
ATOM     16  C   UNL     1       9.783  11.965  19.940  0.00  0.00    +0.000 A 
ATOM     17  C   UNL     1      10.383  13.211  20.180  0.00  0.00    +0.000 A 
ATOM     18  C   UNL     1      10.812  14.013  19.121  0.00  0.00    +0.000 A 
ATOM     19  C   UNL     1      10.658  13.574  17.808  0.00  0.00    +0.000 A 
ATOM     20  C   UNL     1      10.073  12.332  17.555  0.00  0.00    +0.000 A 
ATOM     21  C   UNL     1       9.628  11.529  18.612  0.00  0.00    +0.000 A 
ENDBRANCH  13  21
ENDBRANCH  12  14
ENDBRANCH   1  12
TORSDOF 6
ENDMDL
