MODEL 1
REMARK VINA RESULT:      -7.5      0.000      0.000
REMARK  Name = 
REMARK  7 active torsions:
REMARK  status: ('A' for Active; 'I' for Inactive)
REMARK    1  A    between atoms: C_1  and  C_2
REMARK    2  A    between atoms: C_2  and  O_3
REMARK    3  A    between atoms: O_3  and  C_4
REMARK    4  A    between atoms: C_9  and  N_10
REMARK    5  A    between atoms: C_17  and  C_18
REMARK    6  A    between atoms: N_20  and  C_21
REMARK    7  A    between atoms: C_21  and  C_22
REMARK                            x       y       z     vdW  Elec       q    Type
REMARK                         _______ _______ _______ _____ _____    ______ ____
ROOT
ATOM      1  N   UNL     1       5.083   3.558  16.887  0.00  0.00    +0.000 N 
ATOM      2  C   UNL     1       4.075   4.295  17.480  0.00  0.00    +0.000 C 
ATOM      3  O   UNL     1       3.783   5.451  17.169  0.00  0.00    +0.000 OA
ATOM      4  N   UNL     1       3.351   3.687  18.480  0.00  0.00    +0.000 N 
ATOM      5  C   UNL     1       3.507   2.376  19.068  0.00  0.00    +0.000 C 
ATOM      6  C   UNL     1       2.090   1.830  19.064  0.00  0.00    +0.000 C 
ATOM      7  C   UNL     1       1.217   3.052  19.342  0.00  0.00    +0.000 C 
ATOM      8  C   UNL     1       2.059   4.266  18.903  0.00  0.00    +0.000 C 
ATOM      9  H   UNL     1       5.479   2.776  17.387  0.00  0.00    +0.000 HD
ENDROOT
BRANCH   1  15
ATOM     10  C   UNL     1       6.998   4.742  15.862  0.00  0.00    +0.000 A 
ATOM     11  C   UNL     1       7.674   5.153  14.692  0.00  0.00    +0.000 A 
ATOM     12  C   UNL     1       7.218   4.799  13.423  0.00  0.00    +0.000 A 
ATOM     13  C   UNL     1       6.094   4.003  13.300  0.00  0.00    +0.000 A 
ATOM     14  C   UNL     1       5.414   3.580  14.443  0.00  0.00    +0.000 A 
ATOM     15  C   UNL     1       5.825   3.962  15.734  0.00  0.00    +0.000 A 
BRANCH  10  16
ATOM     16  O   UNL     1       7.425   5.096  17.131  0.00  0.00    +0.000 OA
BRANCH  16  18
ATOM     17  C   UNL     1       8.077   6.902  18.649  0.00  0.00    +0.000 C 
ATOM     18  C   UNL     1       7.220   6.479  17.472  0.00  0.00    +0.000 C 
ENDBRANCH  16  18
ENDBRANCH  10  16
ENDBRANCH   1  15
BRANCH   8  19
ATOM     19  C   UNL     1       2.141   5.303  20.056  0.00  0.00    +0.000 C 
ATOM     20  O   UNL     1       2.242   4.967  21.233  0.00  0.00    +0.000 OA
ATOM     21  N   UNL     1       1.955   6.612  19.686  0.00  0.00    +0.000 N 
ATOM     22  H   UNL     1       1.630   6.803  18.741  0.00  0.00    +0.000 HD
BRANCH  21  23
ATOM     23  C   UNL     1       1.954   7.691  20.646  0.00  0.00    +0.000 C 
BRANCH  23  24
ATOM     24  C   UNL     1       1.175   8.826  20.099  0.00  0.00    +0.000 A 
ATOM     25  C   UNL     1       0.271   9.709  20.655  0.00  0.00    +0.000 A 
ATOM     26  C   UNL     1      -0.123  10.581  19.612  0.00  0.00    +0.000 A 
ATOM     27  C   UNL     1       0.557  10.172  18.491  0.00  0.00    +0.000 A 
ATOM     28  O   UNL     1       1.347   9.107  18.782  0.00  0.00    +0.000 OA
ENDBRANCH  23  24
ENDBRANCH  21  23
ENDBRANCH   8  19
TORSDOF 6
ENDMDL
MODEL 2
REMARK VINA RESULT:      -7.3      2.744      7.783
REMARK  Name = 
REMARK  7 active torsions:
REMARK  status: ('A' for Active; 'I' for Inactive)
REMARK    1  A    between atoms: C_1  and  C_2
REMARK    2  A    between atoms: C_2  and  O_3
REMARK    3  A    between atoms: O_3  and  C_4
REMARK    4  A    between atoms: C_9  and  N_10
REMARK    5  A    between atoms: C_17  and  C_18
REMARK    6  A    between atoms: N_20  and  C_21
REMARK    7  A    between atoms: C_21  and  C_22
REMARK                            x       y       z     vdW  Elec       q    Type
REMARK                         _______ _______ _______ _____ _____    ______ ____
ROOT
ATOM      1  N   UNL     1       4.709   4.819  19.459  0.00  0.00    +0.000 N 
ATOM      2  C   UNL     1       5.053   5.033  18.138  0.00  0.00    +0.000 C 
ATOM      3  O   UNL     1       4.326   4.774  17.178  0.00  0.00    +0.000 OA
ATOM      4  N   UNL     1       6.293   5.576  17.888  0.00  0.00    +0.000 N 
ATOM      5  C   UNL     1       7.351   5.927  18.807  0.00  0.00    +0.000 C 
ATOM      6  C   UNL     1       7.740   7.326  18.360  0.00  0.00    +0.000 C 
ATOM      7  C   UNL     1       7.584   7.291  16.842  0.00  0.00    +0.000 C 
ATOM      8  C   UNL     1       6.583   6.152  16.559  0.00  0.00    +0.000 C 
ATOM      9  H   UNL     1       5.440   4.739  20.151  0.00  0.00    +0.000 HD
ENDROOT
BRANCH   1  15
ATOM     10  C   UNL     1       3.123   3.056  20.166  0.00  0.00    +0.000 A 
ATOM     11  C   UNL     1       1.818   2.704  20.574  0.00  0.00    +0.000 A 
ATOM     12  C   UNL     1       0.822   3.664  20.743  0.00  0.00    +0.000 A 
ATOM     13  C   UNL     1       1.118   4.998  20.536  0.00  0.00    +0.000 A 
ATOM     14  C   UNL     1       2.403   5.370  20.139  0.00  0.00    +0.000 A 
ATOM     15  C   UNL     1       3.415   4.418  19.915  0.00  0.00    +0.000 A 
BRANCH  10  16
ATOM     16  O   UNL     1       4.123   2.117  19.977  0.00  0.00    +0.000 OA
BRANCH  16  18
ATOM     17  C   UNL     1       3.506   1.715  17.642  0.00  0.00    +0.000 C 
ATOM     18  C   UNL     1       3.825   1.109  18.995  0.00  0.00    +0.000 C 
ENDBRANCH  16  18
ENDBRANCH  10  16
ENDBRANCH   1  15
BRANCH   8  19
ATOM     19  C   UNL     1       7.182   5.164  15.521  0.00  0.00    +0.000 C 
ATOM     20  O   UNL     1       7.850   4.189  15.854  0.00  0.00    +0.000 OA
ATOM     21  N   UNL     1       7.031   5.528  14.206  0.00  0.00    +0.000 N 
ATOM     22  H   UNL     1       6.690   6.464  14.002  0.00  0.00    +0.000 HD
BRANCH  21  23
ATOM     23  C   UNL     1       7.571   4.741  13.122  0.00  0.00    +0.000 C 
BRANCH  23  24
ATOM     24  C   UNL     1       6.497   3.896  12.553  0.00  0.00    +0.000 A 
ATOM     25  C   UNL     1       5.118   3.971  12.580  0.00  0.00    +0.000 A 
ATOM     26  C   UNL     1       4.647   2.863  11.835  0.00  0.00    +0.000 A 
ATOM     27  C   UNL     1       5.762   2.183  11.409  0.00  0.00    +0.000 A 
ATOM     28  O   UNL     1       6.888   2.807  11.842  0.00  0.00    +0.000 OA
ENDBRANCH  23  24
ENDBRANCH  21  23
ENDBRANCH   8  19
TORSDOF 6
ENDMDL
MODEL 3
REMARK VINA RESULT:      -7.3      2.146      7.660
REMARK  Name = 
REMARK  7 active torsions:
REMARK  status: ('A' for Active; 'I' for Inactive)
REMARK    1  A    between atoms: C_1  and  C_2
REMARK    2  A    between atoms: C_2  and  O_3
REMARK    3  A    between atoms: O_3  and  C_4
REMARK    4  A    between atoms: C_9  and  N_10
REMARK    5  A    between atoms: C_17  and  C_18
REMARK    6  A    between atoms: N_20  and  C_21
REMARK    7  A    between atoms: C_21  and  C_22
REMARK                            x       y       z     vdW  Elec       q    Type
REMARK                         _______ _______ _______ _____ _____    ______ ____
ROOT
ATOM      1  N   UNL     1       4.745   4.629  19.443  0.00  0.00    +0.000 N 
ATOM      2  C   UNL     1       5.093   4.871  18.128  0.00  0.00    +0.000 C 
ATOM      3  O   UNL     1       4.380   4.607  17.159  0.00  0.00    +0.000 OA
ATOM      4  N   UNL     1       6.321   5.450  17.896  0.00  0.00    +0.000 N 
ATOM      5  C   UNL     1       7.362   5.815  18.829  0.00  0.00    +0.000 C 
ATOM      6  C   UNL     1       7.717   7.230  18.405  0.00  0.00    +0.000 C 
ATOM      7  C   UNL     1       7.574   7.213  16.885  0.00  0.00    +0.000 C 
ATOM      8  C   UNL     1       6.605   6.053  16.577  0.00  0.00    +0.000 C 
ATOM      9  H   UNL     1       5.472   4.558  20.139  0.00  0.00    +0.000 HD
ENDROOT
BRANCH   1  15
ATOM     10  C   UNL     1       2.392   5.104  20.045  0.00  0.00    +0.000 A 
ATOM     11  C   UNL     1       1.152   4.629  20.522  0.00  0.00    +0.000 A 
ATOM     12  C   UNL     1       0.953   3.283  20.824  0.00  0.00    +0.000 A 
ATOM     13  C   UNL     1       1.982   2.381  20.628  0.00  0.00    +0.000 A 
ATOM     14  C   UNL     1       3.215   2.828  20.151  0.00  0.00    +0.000 A 
ATOM     15  C   UNL     1       3.458   4.188  19.882  0.00  0.00    +0.000 A 
BRANCH  10  16
ATOM     16  O   UNL     1       2.615   6.440  19.753  0.00  0.00    +0.000 OA
BRANCH  16  18
ATOM     17  C   UNL     1       2.881   8.013  17.896  0.00  0.00    +0.000 C 
ATOM     18  C   UNL     1       2.070   6.881  18.496  0.00  0.00    +0.000 C 
ENDBRANCH  16  18
ENDBRANCH  10  16
ENDBRANCH   1  15
BRANCH   8  19
ATOM     19  C   UNL     1       7.238   5.096  15.531  0.00  0.00    +0.000 C 
ATOM     20  O   UNL     1       7.909   4.119  15.856  0.00  0.00    +0.000 OA
ATOM     21  N   UNL     1       7.112   5.489  14.221  0.00  0.00    +0.000 N 
ATOM     22  H   UNL     1       6.766   6.426  14.032  0.00  0.00    +0.000 HD
BRANCH  21  23
ATOM     23  C   UNL     1       7.686   4.734  13.132  0.00  0.00    +0.000 C 
BRANCH  23  24
ATOM     24  C   UNL     1       6.642   3.863  12.543  0.00  0.00    +0.000 A 
ATOM     25  C   UNL     1       6.686   2.765  11.707  0.00  0.00    +0.000 A 
ATOM     26  C   UNL     1       5.343   2.365  11.509  0.00  0.00    +0.000 A 
ATOM     27  C   UNL     1       4.569   3.244  12.227  0.00  0.00    +0.000 A 
ATOM     28  O   UNL     1       5.354   4.156  12.857  0.00  0.00    +0.000 OA
ENDBRANCH  23  24
ENDBRANCH  21  23
ENDBRANCH   8  19
TORSDOF 6
ENDMDL
MODEL 4
REMARK VINA RESULT:      -7.2      1.902      7.694
REMARK  Name = 
REMARK  7 active torsions:
REMARK  status: ('A' for Active; 'I' for Inactive)
REMARK    1  A    between atoms: C_1  and  C_2
REMARK    2  A    between atoms: C_2  and  O_3
REMARK    3  A    between atoms: O_3  and  C_4
REMARK    4  A    between atoms: C_9  and  N_10
REMARK    5  A    between atoms: C_17  and  C_18
REMARK    6  A    between atoms: N_20  and  C_21
REMARK    7  A    between atoms: C_21  and  C_22
REMARK                            x       y       z     vdW  Elec       q    Type
REMARK                         _______ _______ _______ _____ _____    ______ ____
ROOT
ATOM      1  N   UNL     1       4.440   4.213  19.048  0.00  0.00    +0.000 N 
ATOM      2  C   UNL     1       4.876   4.610  17.798  0.00  0.00    +0.000 C 
ATOM      3  O   UNL     1       4.207   4.519  16.767  0.00  0.00    +0.000 OA
ATOM      4  N   UNL     1       6.141   5.145  17.709  0.00  0.00    +0.000 N 
ATOM      5  C   UNL     1       7.143   5.324  18.734  0.00  0.00    +0.000 C 
ATOM      6  C   UNL     1       7.590   6.760  18.527  0.00  0.00    +0.000 C 
ATOM      7  C   UNL     1       7.534   6.956  17.014  0.00  0.00    +0.000 C 
ATOM      8  C   UNL     1       6.530   5.903  16.502  0.00  0.00    +0.000 C 
ATOM      9  H   UNL     1       5.122   4.010  19.764  0.00  0.00    +0.000 HD
ENDROOT
BRANCH   1  15
ATOM     10  C   UNL     1       2.242   4.617  20.109  0.00  0.00    +0.000 A 
ATOM     11  C   UNL     1       0.952   4.138  20.426  0.00  0.00    +0.000 A 
ATOM     12  C   UNL     1       0.517   2.881  20.009  0.00  0.00    +0.000 A 
ATOM     13  C   UNL     1       1.351   2.090  19.242  0.00  0.00    +0.000 A 
ATOM     14  C   UNL     1       2.628   2.546  18.911  0.00  0.00    +0.000 A 
ATOM     15  C   UNL     1       3.111   3.790  19.358  0.00  0.00    +0.000 A 
BRANCH  10  16
ATOM     16  O   UNL     1       2.699   5.855  20.526  0.00  0.00    +0.000 OA
BRANCH  16  18
ATOM     17  C   UNL     1       1.511   7.994  20.598  0.00  0.00    +0.000 C 
ATOM     18  C   UNL     1       2.228   6.967  19.743  0.00  0.00    +0.000 C 
ENDBRANCH  16  18
ENDBRANCH  10  16
ENDBRANCH   1  15
BRANCH   8  19
ATOM     19  C   UNL     1       7.174   5.061  15.367  0.00  0.00    +0.000 C 
ATOM     20  O   UNL     1       7.997   4.177  15.592  0.00  0.00    +0.000 OA
ATOM     21  N   UNL     1       6.867   5.461  14.090  0.00  0.00    +0.000 N 
ATOM     22  H   UNL     1       6.384   6.347  13.967  0.00  0.00    +0.000 HD
BRANCH  21  23
ATOM     23  C   UNL     1       7.422   4.812  12.925  0.00  0.00    +0.000 C 
BRANCH  23  24
ATOM     24  C   UNL     1       6.424   3.867  12.374  0.00  0.00    +0.000 A 
ATOM     25  C   UNL     1       5.046   3.886  12.294  0.00  0.00    +0.000 A 
ATOM     26  C   UNL     1       4.671   2.688  11.640  0.00  0.00    +0.000 A 
ATOM     27  C   UNL     1       5.838   2.016  11.369  0.00  0.00    +0.000 A 
ATOM     28  O   UNL     1       6.905   2.728  11.813  0.00  0.00    +0.000 OA
ENDBRANCH  23  24
ENDBRANCH  21  23
ENDBRANCH   8  19
TORSDOF 6
ENDMDL
MODEL 5
REMARK VINA RESULT:      -7.0      2.261      7.543
REMARK  Name = 
REMARK  7 active torsions:
REMARK  status: ('A' for Active; 'I' for Inactive)
REMARK    1  A    between atoms: C_1  and  C_2
REMARK    2  A    between atoms: C_2  and  O_3
REMARK    3  A    between atoms: O_3  and  C_4
REMARK    4  A    between atoms: C_9  and  N_10
REMARK    5  A    between atoms: C_17  and  C_18
REMARK    6  A    between atoms: N_20  and  C_21
REMARK    7  A    between atoms: C_21  and  C_22
REMARK                            x       y       z     vdW  Elec       q    Type
REMARK                         _______ _______ _______ _____ _____    ______ ____
ROOT
ATOM      1  N   UNL     1       4.546   3.937  18.527  0.00  0.00    +0.000 N 
ATOM      2  C   UNL     1       4.927   4.474  17.312  0.00  0.00    +0.000 C 
ATOM      3  O   UNL     1       4.223   4.479  16.301  0.00  0.00    +0.000 OA
ATOM      4  N   UNL     1       6.179   5.043  17.236  0.00  0.00    +0.000 N 
ATOM      5  C   UNL     1       7.215   5.133  18.239  0.00  0.00    +0.000 C 
ATOM      6  C   UNL     1       7.629   6.593  18.171  0.00  0.00    +0.000 C 
ATOM      7  C   UNL     1       7.513   6.947  16.690  0.00  0.00    +0.000 C 
ATOM      8  C   UNL     1       6.509   5.933  16.104  0.00  0.00    +0.000 C 
ATOM      9  H   UNL     1       5.257   3.673  19.192  0.00  0.00    +0.000 HD
ENDROOT
BRANCH   1  15
ATOM     10  C   UNL     1       2.253   4.318  19.374  0.00  0.00    +0.000 A 
ATOM     11  C   UNL     1       0.987   3.787  19.703  0.00  0.00    +0.000 A 
ATOM     12  C   UNL     1       0.685   2.441  19.501  0.00  0.00    +0.000 A 
ATOM     13  C   UNL     1       1.633   1.606  18.939  0.00  0.00    +0.000 A 
ATOM     14  C   UNL     1       2.889   2.112  18.600  0.00  0.00    +0.000 A 
ATOM     15  C   UNL     1       3.237   3.455  18.836  0.00  0.00    +0.000 A 
BRANCH  10  16
ATOM     16  O   UNL     1       2.578   5.648  19.580  0.00  0.00    +0.000 OA
BRANCH  16  18
ATOM     17  C   UNL     1       3.193   7.445  18.035  0.00  0.00    +0.000 C 
ATOM     18  C   UNL     1       2.091   6.552  18.571  0.00  0.00    +0.000 C 
ENDBRANCH  16  18
ENDBRANCH  10  16
ENDBRANCH   1  15
BRANCH   8  19
ATOM     19  C   UNL     1       7.125   5.230  14.864  0.00  0.00    +0.000 C 
ATOM     20  O   UNL     1       8.163   5.621  14.337  0.00  0.00    +0.000 OA
ATOM     21  N   UNL     1       6.362   4.230  14.314  0.00  0.00    +0.000 N 
ATOM     22  H   UNL     1       5.405   4.120  14.641  0.00  0.00    +0.000 HD
BRANCH  21  23
ATOM     23  C   UNL     1       6.771   3.511  13.130  0.00  0.00    +0.000 C 
BRANCH  23  24
ATOM     24  C   UNL     1       5.588   3.277  12.271  0.00  0.00    +0.000 A 
ATOM     25  C   UNL     1       4.459   4.021  11.990  0.00  0.00    +0.000 A 
ATOM     26  C   UNL     1       3.696   3.253  11.078  0.00  0.00    +0.000 A 
ATOM     27  C   UNL     1       4.401   2.093  10.867  0.00  0.00    +0.000 A 
ATOM     28  O   UNL     1       5.551   2.103  11.589  0.00  0.00    +0.000 OA
ENDBRANCH  23  24
ENDBRANCH  21  23
ENDBRANCH   8  19
TORSDOF 6
ENDMDL
MODEL 6
REMARK VINA RESULT:      -6.9      1.738      7.020
REMARK  Name = 
REMARK  7 active torsions:
REMARK  status: ('A' for Active; 'I' for Inactive)
REMARK    1  A    between atoms: C_1  and  C_2
REMARK    2  A    between atoms: C_2  and  O_3
REMARK    3  A    between atoms: O_3  and  C_4
REMARK    4  A    between atoms: C_9  and  N_10
REMARK    5  A    between atoms: C_17  and  C_18
REMARK    6  A    between atoms: N_20  and  C_21
REMARK    7  A    between atoms: C_21  and  C_22
REMARK                            x       y       z     vdW  Elec       q    Type
REMARK                         _______ _______ _______ _____ _____    ______ ____
ROOT
ATOM      1  N   UNL     1       1.659   7.259  18.669  0.00  0.00    +0.000 N 
ATOM      2  C   UNL     1       2.648   6.454  19.202  0.00  0.00    +0.000 C 
ATOM      3  O   UNL     1       3.654   6.875  19.774  0.00  0.00    +0.000 OA
ATOM      4  N   UNL     1       2.486   5.092  19.085  0.00  0.00    +0.000 N 
ATOM      5  C   UNL     1       1.441   4.338  18.431  0.00  0.00    +0.000 C 
ATOM      6  C   UNL     1       1.068   3.299  19.474  0.00  0.00    +0.000 C 
ATOM      7  C   UNL     1       2.391   2.960  20.156  0.00  0.00    +0.000 C 
ATOM      8  C   UNL     1       3.298   4.186  19.922  0.00  0.00    +0.000 C 
ATOM      9  H   UNL     1       1.055   6.886  17.950  0.00  0.00    +0.000 HD
ENDROOT
BRANCH   1  15
ATOM     10  C   UNL     1       1.052   9.238  20.025  0.00  0.00    +0.000 A 
ATOM     11  C   UNL     1       0.950  10.642  20.128  0.00  0.00    +0.000 A 
ATOM     12  C   UNL     1       1.361  11.481  19.093  0.00  0.00    +0.000 A 
ATOM     13  C   UNL     1       1.909  10.934  17.947  0.00  0.00    +0.000 A 
ATOM     14  C   UNL     1       2.025   9.549  17.828  0.00  0.00    +0.000 A 
ATOM     15  C   UNL     1       1.575   8.676  18.836  0.00  0.00    +0.000 A 
BRANCH  10  16
ATOM     16  O   UNL     1       0.636   8.386  21.034  0.00  0.00    +0.000 OA
BRANCH  16  18
ATOM     17  C   UNL     1       0.007   9.369  23.186  0.00  0.00    +0.000 C 
ATOM     18  C   UNL     1      -0.458   8.881  21.828  0.00  0.00    +0.000 C 
ENDBRANCH  16  18
ENDBRANCH  10  16
ENDBRANCH   1  15
BRANCH   8  19
ATOM     19  C   UNL     1       4.649   3.738  19.301  0.00  0.00    +0.000 C 
ATOM     20  O   UNL     1       5.165   2.655  19.565  0.00  0.00    +0.000 OA
ATOM     21  N   UNL     1       5.294   4.687  18.547  0.00  0.00    +0.000 N 
ATOM     22  H   UNL     1       4.940   5.641  18.570  0.00  0.00    +0.000 HD
BRANCH  21  23
ATOM     23  C   UNL     1       6.581   4.444  17.940  0.00  0.00    +0.000 C 
BRANCH  23  24
ATOM     24  C   UNL     1       6.428   4.429  16.467  0.00  0.00    +0.000 A 
ATOM     25  C   UNL     1       5.407   4.036  15.625  0.00  0.00    +0.000 A 
ATOM     26  C   UNL     1       5.864   4.280  14.307  0.00  0.00    +0.000 A 
ATOM     27  C   UNL     1       7.131   4.796  14.429  0.00  0.00    +0.000 A 
ATOM     28  O   UNL     1       7.478   4.889  15.739  0.00  0.00    +0.000 OA
ENDBRANCH  23  24
ENDBRANCH  21  23
ENDBRANCH   8  19
TORSDOF 6
ENDMDL
MODEL 7
REMARK VINA RESULT:      -6.8      1.185      1.354
REMARK  Name = 
REMARK  7 active torsions:
REMARK  status: ('A' for Active; 'I' for Inactive)
REMARK    1  A    between atoms: C_1  and  C_2
REMARK    2  A    between atoms: C_2  and  O_3
REMARK    3  A    between atoms: O_3  and  C_4
REMARK    4  A    between atoms: C_9  and  N_10
REMARK    5  A    between atoms: C_17  and  C_18
REMARK    6  A    between atoms: N_20  and  C_21
REMARK    7  A    between atoms: C_21  and  C_22
REMARK                            x       y       z     vdW  Elec       q    Type
REMARK                         _______ _______ _______ _____ _____    ______ ____
ROOT
ATOM      1  N   UNL     1       5.558   3.985  17.449  0.00  0.00    +0.000 N 
ATOM      2  C   UNL     1       4.246   4.111  17.867  0.00  0.00    +0.000 C 
ATOM      3  O   UNL     1       3.341   4.590  17.183  0.00  0.00    +0.000 OA
ATOM      4  N   UNL     1       3.941   3.664  19.133  0.00  0.00    +0.000 N 
ATOM      5  C   UNL     1       4.804   3.109  20.151  0.00  0.00    +0.000 C 
ATOM      6  C   UNL     1       4.047   1.871  20.600  0.00  0.00    +0.000 C 
ATOM      7  C   UNL     1       2.578   2.280  20.522  0.00  0.00    +0.000 C 
ATOM      8  C   UNL     1       2.529   3.440  19.507  0.00  0.00    +0.000 C 
ATOM      9  H   UNL     1       6.288   3.900  18.140  0.00  0.00    +0.000 HD
ENDROOT
BRANCH   1  15
ATOM     10  C   UNL     1       7.019   5.218  15.879  0.00  0.00    +0.000 A 
ATOM     11  C   UNL     1       7.418   5.467  14.548  0.00  0.00    +0.000 A 
ATOM     12  C   UNL     1       6.861   4.769  13.477  0.00  0.00    +0.000 A 
ATOM     13  C   UNL     1       5.917   3.788  13.718  0.00  0.00    +0.000 A 
ATOM     14  C   UNL     1       5.514   3.521  15.027  0.00  0.00    +0.000 A 
ATOM     15  C   UNL     1       6.024   4.242  16.122  0.00  0.00    +0.000 A 
BRANCH  10  16
ATOM     16  O   UNL     1       7.548   5.910  16.955  0.00  0.00    +0.000 OA
BRANCH  16  18
ATOM     17  C   UNL     1       7.906   8.212  17.708  0.00  0.00    +0.000 C 
ATOM     18  C   UNL     1       6.911   7.171  17.232  0.00  0.00    +0.000 C 
ENDBRANCH  16  18
ENDBRANCH  10  16
ENDBRANCH   1  15
BRANCH   8  19
ATOM     19  C   UNL     1       1.805   4.663  20.131  0.00  0.00    +0.000 C 
ATOM     20  O   UNL     1       0.622   4.627  20.460  0.00  0.00    +0.000 OA
ATOM     21  N   UNL     1       2.534   5.826  20.165  0.00  0.00    +0.000 N 
ATOM     22  H   UNL     1       3.413   5.856  19.654  0.00  0.00    +0.000 HD
BRANCH  21  23
ATOM     23  C   UNL     1       1.988   7.064  20.671  0.00  0.00    +0.000 C 
BRANCH  23  24
ATOM     24  C   UNL     1       1.891   8.040  19.561  0.00  0.00    +0.000 A 
ATOM     25  C   UNL     1       1.225   9.241  19.412  0.00  0.00    +0.000 A 
ATOM     26  C   UNL     1       1.538   9.708  18.113  0.00  0.00    +0.000 A 
ATOM     27  C   UNL     1       2.365   8.765  17.554  0.00  0.00    +0.000 A 
ATOM     28  O   UNL     1       2.582   7.750  18.430  0.00  0.00    +0.000 OA
ENDBRANCH  23  24
ENDBRANCH  21  23
ENDBRANCH   8  19
TORSDOF 6
ENDMDL
MODEL 8
REMARK VINA RESULT:      -6.8      2.874      5.794
REMARK  Name = 
REMARK  7 active torsions:
REMARK  status: ('A' for Active; 'I' for Inactive)
REMARK    1  A    between atoms: C_1  and  C_2
REMARK    2  A    between atoms: C_2  and  O_3
REMARK    3  A    between atoms: O_3  and  C_4
REMARK    4  A    between atoms: C_9  and  N_10
REMARK    5  A    between atoms: C_17  and  C_18
REMARK    6  A    between atoms: N_20  and  C_21
REMARK    7  A    between atoms: C_21  and  C_22
REMARK                            x       y       z     vdW  Elec       q    Type
REMARK                         _______ _______ _______ _____ _____    ______ ____
ROOT
ATOM      1  N   UNL     1       2.555   6.762  19.431  0.00  0.00    +0.000 N 
ATOM      2  C   UNL     1       2.078   8.022  19.120  0.00  0.00    +0.000 C 
ATOM      3  O   UNL     1       2.187   8.554  18.015  0.00  0.00    +0.000 OA
ATOM      4  N   UNL     1       1.434   8.718  20.118  0.00  0.00    +0.000 N 
ATOM      5  C   UNL     1       1.209   8.358  21.500  0.00  0.00    +0.000 C 
ATOM      6  C   UNL     1      -0.267   8.659  21.693  0.00  0.00    +0.000 C 
ATOM      7  C   UNL     1      -0.512   9.900  20.838  0.00  0.00    +0.000 C 
ATOM      8  C   UNL     1       0.603   9.889  19.772  0.00  0.00    +0.000 C 
ATOM      9  H   UNL     1       2.727   6.527  20.398  0.00  0.00    +0.000 HD
ENDROOT
BRANCH   1  15
ATOM     10  C   UNL     1       2.437   4.622  18.197  0.00  0.00    +0.000 A 
ATOM     11  C   UNL     1       3.035   3.719  17.291  0.00  0.00    +0.000 A 
ATOM     12  C   UNL     1       4.254   4.002  16.676  0.00  0.00    +0.000 A 
ATOM     13  C   UNL     1       4.883   5.207  16.932  0.00  0.00    +0.000 A 
ATOM     14  C   UNL     1       4.306   6.116  17.818  0.00  0.00    +0.000 A 
ATOM     15  C   UNL     1       3.101   5.836  18.489  0.00  0.00    +0.000 A 
BRANCH  10  16
ATOM     16  O   UNL     1       1.235   4.353  18.830  0.00  0.00    +0.000 OA
BRANCH  16  18
ATOM     17  C   UNL     1       1.397   2.915  20.805  0.00  0.00    +0.000 C 
ATOM     18  C   UNL     1       1.100   3.007  19.321  0.00  0.00    +0.000 C 
ENDBRANCH  16  18
ENDBRANCH  10  16
ENDBRANCH   1  15
BRANCH   8  19
ATOM     19  C   UNL     1       1.345  11.253  19.764  0.00  0.00    +0.000 C 
ATOM     20  O   UNL     1       1.576  11.879  20.795  0.00  0.00    +0.000 OA
ATOM     21  N   UNL     1       1.603  11.776  18.522  0.00  0.00    +0.000 N 
ATOM     22  H   UNL     1       1.169  11.335  17.715  0.00  0.00    +0.000 HD
BRANCH  21  23
ATOM     23  C   UNL     1       2.243  13.059  18.344  0.00  0.00    +0.000 C 
BRANCH  23  24
ATOM     24  C   UNL     1       1.278  14.133  18.669  0.00  0.00    +0.000 A 
ATOM     25  C   UNL     1      -0.093  14.243  18.548  0.00  0.00    +0.000 A 
ATOM     26  C   UNL     1      -0.434  15.523  19.047  0.00  0.00    +0.000 A 
ATOM     27  C   UNL     1       0.746  16.111  19.434  0.00  0.00    +0.000 A 
ATOM     28  O   UNL     1       1.788  15.271  19.207  0.00  0.00    +0.000 OA
ENDBRANCH  23  24
ENDBRANCH  21  23
ENDBRANCH   8  19
TORSDOF 6
ENDMDL
MODEL 9
REMARK VINA RESULT:      -6.7      2.981      5.813
REMARK  Name = 
REMARK  7 active torsions:
REMARK  status: ('A' for Active; 'I' for Inactive)
REMARK    1  A    between atoms: C_1  and  C_2
REMARK    2  A    between atoms: C_2  and  O_3
REMARK    3  A    between atoms: O_3  and  C_4
REMARK    4  A    between atoms: C_9  and  N_10
REMARK    5  A    between atoms: C_17  and  C_18
REMARK    6  A    between atoms: N_20  and  C_21
REMARK    7  A    between atoms: C_21  and  C_22
REMARK                            x       y       z     vdW  Elec       q    Type
REMARK                         _______ _______ _______ _____ _____    ______ ____
ROOT
ATOM      1  N   UNL     1       2.662   6.753  19.260  0.00  0.00    +0.000 N 
ATOM      2  C   UNL     1       2.122   7.970  18.889  0.00  0.00    +0.000 C 
ATOM      3  O   UNL     1       2.170   8.433  17.748  0.00  0.00    +0.000 OA
ATOM      4  N   UNL     1       1.487   8.704  19.865  0.00  0.00    +0.000 N 
ATOM      5  C   UNL     1       1.327   8.426  21.274  0.00  0.00    +0.000 C 
ATOM      6  C   UNL     1      -0.152   8.681  21.505  0.00  0.00    +0.000 C 
ATOM      7  C   UNL     1      -0.479   9.853  20.583  0.00  0.00    +0.000 C 
ATOM      8  C   UNL     1       0.596   9.817  19.477  0.00  0.00    +0.000 C 
ATOM      9  H   UNL     1       2.878   6.587  20.232  0.00  0.00    +0.000 HD
ENDROOT
BRANCH   1  15
ATOM     10  C   UNL     1       2.553   4.560  18.120  0.00  0.00    +0.000 A 
ATOM     11  C   UNL     1       3.155   3.622  17.254  0.00  0.00    +0.000 A 
ATOM     12  C   UNL     1       4.371   3.885  16.624  0.00  0.00    +0.000 A 
ATOM     13  C   UNL     1       4.994   5.102  16.825  0.00  0.00    +0.000 A 
ATOM     14  C   UNL     1       4.413   6.047  17.672  0.00  0.00    +0.000 A 
ATOM     15  C   UNL     1       3.211   5.790  18.358  0.00  0.00    +0.000 A 
BRANCH  10  16
ATOM     16  O   UNL     1       1.355   4.312  18.768  0.00  0.00    +0.000 OA
BRANCH  16  18
ATOM     17  C   UNL     1       1.252   2.875  20.747  0.00  0.00    +0.000 C 
ATOM     18  C   UNL     1       1.189   2.961  19.235  0.00  0.00    +0.000 C 
ENDBRANCH  16  18
ENDBRANCH  10  16
ENDBRANCH   1  15
BRANCH   8  19
ATOM     19  C   UNL     1       1.281  11.205  19.355  0.00  0.00    +0.000 C 
ATOM     20  O   UNL     1       1.839  11.572  18.324  0.00  0.00    +0.000 OA
ATOM     21  N   UNL     1       1.340  11.937  20.515  0.00  0.00    +0.000 N 
ATOM     22  H   UNL     1       1.084  11.478  21.386  0.00  0.00    +0.000 HD
BRANCH  21  23
ATOM     23  C   UNL     1       1.985  13.227  20.580  0.00  0.00    +0.000 C 
BRANCH  23  24
ATOM     24  C   UNL     1       1.020  14.228  21.091  0.00  0.00    +0.000 A 
ATOM     25  C   UNL     1      -0.021  14.923  20.509  0.00  0.00    +0.000 A 
ATOM     26  C   UNL     1      -0.578  15.730  21.529  0.00  0.00    +0.000 A 
ATOM     27  C   UNL     1       0.158  15.481  22.662  0.00  0.00    +0.000 A 
ATOM     28  O   UNL     1       1.130  14.569  22.400  0.00  0.00    +0.000 OA
ENDBRANCH  23  24
ENDBRANCH  21  23
ENDBRANCH   8  19
TORSDOF 6
ENDMDL
