MODEL 1
REMARK VINA RESULT:      -7.7      0.000      0.000
REMARK  Name = 
REMARK  8 active torsions:
REMARK  status: ('A' for Active; 'I' for Inactive)
REMARK    1  A    between atoms: C_1  and  C_2
REMARK    2  A    between atoms: C_4  and  C_5
REMARK    3  A    between atoms: C_5  and  C_6
REMARK    4  A    between atoms: C_5  and  C_7
REMARK    5  A    between atoms: C_8  and  C_9
REMARK    6  A    between atoms: C_9  and  C_10
REMARK    7  A    between atoms: C_17  and  N_18
REMARK    8  A    between atoms: C_22  and  C_24
REMARK                            x       y       z     vdW  Elec       q    Type
REMARK                         _______ _______ _______ _____ _____    ______ ____
ROOT
ATOM      1  C   UNL     1       2.839  13.896  21.100  0.00  0.00    +0.000 C 
ATOM      2  C   UNL     1       1.689  13.091  20.588  0.00  0.00    +0.000 A 
ATOM      3  N   UNL     1       0.463  13.608  20.670  0.00  0.00    +0.000 NA
ATOM      4  C   UNL     1      -0.568  12.827  20.280  0.00  0.00    +0.000 A 
ATOM      5  C   UNL     1      -0.383  11.500  19.843  0.00  0.00    +0.000 A 
ATOM      6  C   UNL     1       0.942  11.057  19.758  0.00  0.00    +0.000 A 
ATOM      7  N   UNL     1       1.956  11.864  20.133  0.00  0.00    +0.000 NA
ENDROOT
BRANCH   6   8
ATOM      8  N   UNL     1       1.380   9.809  19.359  0.00  0.00    +0.000 N 
ATOM      9  C   UNL     1       1.521   9.331  17.979  0.00  0.00    +0.000 C 
ATOM     10  C   UNL     1       2.558   8.187  17.879  0.00  0.00    +0.000 C 
ATOM     11  N   UNL     1       2.342   7.134  18.886  0.00  0.00    +0.000 N 
ATOM     12  C   UNL     1       2.300   5.796  18.478  0.00  0.00    +0.000 C 
ATOM     13  O   UNL     1       2.334   5.493  17.287  0.00  0.00    +0.000 OA
ATOM     14  C   UNL     1       2.252   7.661  20.252  0.00  0.00    +0.000 C 
ATOM     15  C   UNL     1       1.198   8.767  20.383  0.00  0.00    +0.000 C 
BRANCH  12  16
ATOM     16  C   UNL     1       2.248   4.684  19.480  0.00  0.00    +0.000 A 
ATOM     17  C   UNL     1       1.021   4.342  20.074  0.00  0.00    +0.000 A 
ATOM     18  C   UNL     1       0.921   3.275  20.971  0.00  0.00    +0.000 A 
ATOM     19  C   UNL     1       2.065   2.593  21.367  0.00  0.00    +0.000 A 
ATOM     20  C   UNL     1       3.306   2.981  20.865  0.00  0.00    +0.000 A 
ATOM     21  C   UNL     1       3.404   4.014  19.916  0.00  0.00    +0.000 A 
ATOM     22 CL   UNL     1       4.997   4.356  19.332  0.00  0.00    +0.000 Cl
ENDBRANCH  12  16
ENDBRANCH   6   8
BRANCH   4  23
ATOM     23  C   UNL     1      -1.941  13.478  20.452  0.00  0.00    +0.000 C 
ATOM     24  C   UNL     1      -2.482  13.248  21.868  0.00  0.00    +0.000 C 
ATOM     25  C   UNL     1      -1.912  14.989  20.166  0.00  0.00    +0.000 C 
ENDBRANCH   4  23
BRANCH   5  26
ATOM     26  C   UNL     1      -1.575  10.596  19.633  0.00  0.00    +0.000 C 
BRANCH  26  27
ATOM     27  C   UNL     1      -2.248  10.560  18.281  0.00  0.00    +0.000 A 
ATOM     28  C   UNL     1      -1.756   9.828  17.188  0.00  0.00    +0.000 A 
ATOM     29  C   UNL     1      -2.408   9.897  15.948  0.00  0.00    +0.000 A 
ATOM     30  C   UNL     1      -3.543  10.680  15.802  0.00  0.00    +0.000 A 
ATOM     31  F   UNL     1      -4.141  10.763  14.607  0.00  0.00    +0.000 F 
ATOM     32  C   UNL     1      -4.063  11.382  16.877  0.00  0.00    +0.000 A 
ATOM     33  C   UNL     1      -3.423  11.316  18.112  0.00  0.00    +0.000 A 
ENDBRANCH  26  27
ENDBRANCH   5  26
TORSDOF 5
ENDMDL
MODEL 2
REMARK VINA RESULT:      -7.3      3.037      5.190
REMARK  Name = 
REMARK  8 active torsions:
REMARK  status: ('A' for Active; 'I' for Inactive)
REMARK    1  A    between atoms: C_1  and  C_2
REMARK    2  A    between atoms: C_4  and  C_5
REMARK    3  A    between atoms: C_5  and  C_6
REMARK    4  A    between atoms: C_5  and  C_7
REMARK    5  A    between atoms: C_8  and  C_9
REMARK    6  A    between atoms: C_9  and  C_10
REMARK    7  A    between atoms: C_17  and  N_18
REMARK    8  A    between atoms: C_22  and  C_24
REMARK                            x       y       z     vdW  Elec       q    Type
REMARK                         _______ _______ _______ _____ _____    ______ ____
ROOT
ATOM      1  C   UNL     1      -2.813  10.814  16.822  0.00  0.00    +0.000 C 
ATOM      2  C   UNL     1      -1.762  11.051  17.858  0.00  0.00    +0.000 A 
ATOM      3  N   UNL     1      -1.708  12.244  18.449  0.00  0.00    +0.000 NA
ATOM      4  C   UNL     1      -0.696  12.462  19.317  0.00  0.00    +0.000 A 
ATOM      5  C   UNL     1       0.299  11.496  19.570  0.00  0.00    +0.000 A 
ATOM      6  C   UNL     1       0.139  10.262  18.930  0.00  0.00    +0.000 A 
ATOM      7  N   UNL     1      -0.893  10.062  18.083  0.00  0.00    +0.000 NA
ENDROOT
BRANCH   6   8
ATOM      8  N   UNL     1       0.972   9.164  19.017  0.00  0.00    +0.000 N 
ATOM      9  C   UNL     1       1.449   8.523  20.247  0.00  0.00    +0.000 C 
ATOM     10  C   UNL     1       1.830   7.042  20.005  0.00  0.00    +0.000 C 
ATOM     11  N   UNL     1       2.700   6.865  18.829  0.00  0.00    +0.000 N 
ATOM     12  C   UNL     1       3.874   6.113  18.954  0.00  0.00    +0.000 C 
ATOM     13  O   UNL     1       4.244   5.691  20.049  0.00  0.00    +0.000 OA
ATOM     14  C   UNL     1       2.155   7.486  17.617  0.00  0.00    +0.000 C 
ATOM     15  C   UNL     1       1.811   8.966  17.824  0.00  0.00    +0.000 C 
BRANCH  12  16
ATOM     16  C   UNL     1       4.701   5.767  17.756  0.00  0.00    +0.000 A 
ATOM     17  C   UNL     1       5.793   6.583  17.407  0.00  0.00    +0.000 A 
ATOM     18  C   UNL     1       6.622   6.262  16.329  0.00  0.00    +0.000 A 
ATOM     19  C   UNL     1       6.317   5.176  15.519  0.00  0.00    +0.000 A 
ATOM     20  C   UNL     1       5.183   4.413  15.789  0.00  0.00    +0.000 A 
ATOM     21  C   UNL     1       4.380   4.694  16.907  0.00  0.00    +0.000 A 
ATOM     22 CL   UNL     1       3.035   3.634  17.159  0.00  0.00    +0.000 Cl
ENDBRANCH  12  16
ENDBRANCH   6   8
BRANCH   4  23
ATOM     23  C   UNL     1      -0.680  13.870  19.912  0.00  0.00    +0.000 C 
ATOM     24  C   UNL     1      -0.404  14.918  18.828  0.00  0.00    +0.000 C 
ATOM     25  C   UNL     1      -1.997  14.220  20.624  0.00  0.00    +0.000 C 
ENDBRANCH   4  23
BRANCH   5  26
ATOM     26  C   UNL     1       1.526  11.862  20.371  0.00  0.00    +0.000 C 
BRANCH  26  27
ATOM     27  C   UNL     1       2.417  12.983  19.890  0.00  0.00    +0.000 A 
ATOM     28  C   UNL     1       2.759  13.180  18.542  0.00  0.00    +0.000 A 
ATOM     29  C   UNL     1       3.642  14.209  18.186  0.00  0.00    +0.000 A 
ATOM     30  C   UNL     1       4.173  15.039  19.163  0.00  0.00    +0.000 A 
ATOM     31  F   UNL     1       5.038  16.000  18.816  0.00  0.00    +0.000 F 
ATOM     32  C   UNL     1       3.821  14.883  20.494  0.00  0.00    +0.000 A 
ATOM     33  C   UNL     1       2.942  13.864  20.854  0.00  0.00    +0.000 A 
ENDBRANCH  26  27
ENDBRANCH   5  26
TORSDOF 5
ENDMDL
MODEL 3
REMARK VINA RESULT:      -7.3      2.049      2.940
REMARK  Name = 
REMARK  8 active torsions:
REMARK  status: ('A' for Active; 'I' for Inactive)
REMARK    1  A    between atoms: C_1  and  C_2
REMARK    2  A    between atoms: C_4  and  C_5
REMARK    3  A    between atoms: C_5  and  C_6
REMARK    4  A    between atoms: C_5  and  C_7
REMARK    5  A    between atoms: C_8  and  C_9
REMARK    6  A    between atoms: C_9  and  C_10
REMARK    7  A    between atoms: C_17  and  N_18
REMARK    8  A    between atoms: C_22  and  C_24
REMARK                            x       y       z     vdW  Elec       q    Type
REMARK                         _______ _______ _______ _____ _____    ______ ____
ROOT
ATOM      1  C   UNL     1       4.013  14.780  18.372  0.00  0.00    +0.000 C 
ATOM      2  C   UNL     1       2.658  14.192  18.604  0.00  0.00    +0.000 A 
ATOM      3  N   UNL     1       1.618  15.017  18.722  0.00  0.00    +0.000 NA
ATOM      4  C   UNL     1       0.419  14.467  19.016  0.00  0.00    +0.000 A 
ATOM      5  C   UNL     1       0.260  13.085  19.238  0.00  0.00    +0.000 A 
ATOM      6  C   UNL     1       1.401  12.295  19.057  0.00  0.00    +0.000 A 
ATOM      7  N   UNL     1       2.583  12.866  18.742  0.00  0.00    +0.000 NA
ENDROOT
BRANCH   6   8
ATOM      8  N   UNL     1       1.500  10.926  19.212  0.00  0.00    +0.000 N 
ATOM      9  C   UNL     1       1.308  10.170  20.455  0.00  0.00    +0.000 C 
ATOM     10  C   UNL     1       0.902   8.704  20.170  0.00  0.00    +0.000 C 
ATOM     11  N   UNL     1       1.773   8.057  19.174  0.00  0.00    +0.000 N 
ATOM     12  C   UNL     1       2.327   6.805  19.461  0.00  0.00    +0.000 C 
ATOM     13  O   UNL     1       2.188   6.287  20.568  0.00  0.00    +0.000 OA
ATOM     14  C   UNL     1       1.896   8.832  17.935  0.00  0.00    +0.000 C 
ATOM     15  C   UNL     1       2.339  10.278  18.192  0.00  0.00    +0.000 C 
BRANCH  12  16
ATOM     16  C   UNL     1       3.080   6.036  18.420  0.00  0.00    +0.000 A 
ATOM     17  C   UNL     1       4.201   6.619  17.803  0.00  0.00    +0.000 A 
ATOM     18  C   UNL     1       4.964   5.913  16.868  0.00  0.00    +0.000 A 
ATOM     19  C   UNL     1       4.561   4.648  16.459  0.00  0.00    +0.000 A 
ATOM     20  C   UNL     1       3.396   4.093  16.986  0.00  0.00    +0.000 A 
ATOM     21  C   UNL     1       2.660   4.772  17.971  0.00  0.00    +0.000 A 
ATOM     22 CL   UNL     1       1.268   3.946  18.581  0.00  0.00    +0.000 Cl
ENDBRANCH  12  16
ENDBRANCH   6   8
BRANCH   4  23
ATOM     23  C   UNL     1      -0.708  15.487  19.182  0.00  0.00    +0.000 C 
ATOM     24  C   UNL     1      -0.883  15.874  20.655  0.00  0.00    +0.000 C 
ATOM     25  C   UNL     1      -0.471  16.761  18.354  0.00  0.00    +0.000 C 
ENDBRANCH   4  23
BRANCH   5  26
ATOM     26  C   UNL     1      -1.043  12.548  19.781  0.00  0.00    +0.000 C 
BRANCH  26  27
ATOM     27  C   UNL     1      -2.118  12.099  18.820  0.00  0.00    +0.000 A 
ATOM     28  C   UNL     1      -3.486  12.087  19.135  0.00  0.00    +0.000 A 
ATOM     29  C   UNL     1      -4.416  11.597  18.206  0.00  0.00    +0.000 A 
ATOM     30  C   UNL     1      -3.985  11.133  16.972  0.00  0.00    +0.000 A 
ATOM     31  F   UNL     1      -4.877  10.639  16.103  0.00  0.00    +0.000 F 
ATOM     32  C   UNL     1      -2.644  11.169  16.628  0.00  0.00    +0.000 A 
ATOM     33  C   UNL     1      -1.716  11.657  17.546  0.00  0.00    +0.000 A 
ENDBRANCH  26  27
ENDBRANCH   5  26
TORSDOF 5
ENDMDL
MODEL 4
REMARK VINA RESULT:      -7.3      2.399      4.361
REMARK  Name = 
REMARK  8 active torsions:
REMARK  status: ('A' for Active; 'I' for Inactive)
REMARK    1  A    between atoms: C_1  and  C_2
REMARK    2  A    between atoms: C_4  and  C_5
REMARK    3  A    between atoms: C_5  and  C_6
REMARK    4  A    between atoms: C_5  and  C_7
REMARK    5  A    between atoms: C_8  and  C_9
REMARK    6  A    between atoms: C_9  and  C_10
REMARK    7  A    between atoms: C_17  and  N_18
REMARK    8  A    between atoms: C_22  and  C_24
REMARK                            x       y       z     vdW  Elec       q    Type
REMARK                         _______ _______ _______ _____ _____    ______ ____
ROOT
ATOM      1  C   UNL     1      -3.515  11.702  18.611  0.00  0.00    +0.000 C 
ATOM      2  C   UNL     1      -2.177  11.820  19.267  0.00  0.00    +0.000 A 
ATOM      3  N   UNL     1      -1.887  12.944  19.923  0.00  0.00    +0.000 NA
ATOM      4  C   UNL     1      -0.642  13.061  20.434  0.00  0.00    +0.000 A 
ATOM      5  C   UNL     1       0.341  12.067  20.254  0.00  0.00    +0.000 A 
ATOM      6  C   UNL     1      -0.067  10.909  19.583  0.00  0.00    +0.000 A 
ATOM      7  N   UNL     1      -1.323  10.807  19.100  0.00  0.00    +0.000 NA
ENDROOT
BRANCH   6   8
ATOM      8  N   UNL     1       0.704   9.802  19.286  0.00  0.00    +0.000 N 
ATOM      9  C   UNL     1       1.286   9.466  17.982  0.00  0.00    +0.000 C 
ATOM     10  C   UNL     1       2.526   8.552  18.134  0.00  0.00    +0.000 C 
ATOM     11  N   UNL     1       2.281   7.404  19.023  0.00  0.00    +0.000 N 
ATOM     12  C   UNL     1       2.620   6.118  18.589  0.00  0.00    +0.000 C 
ATOM     13  O   UNL     1       3.016   5.918  17.442  0.00  0.00    +0.000 OA
ATOM     14  C   UNL     1       1.741   7.799  20.329  0.00  0.00    +0.000 C 
ATOM     15  C   UNL     1       0.485   8.670  20.202  0.00  0.00    +0.000 C 
BRANCH  12  16
ATOM     16  C   UNL     1       2.543   4.944  19.516  0.00  0.00    +0.000 A 
ATOM     17  C   UNL     1       1.322   4.629  20.137  0.00  0.00    +0.000 A 
ATOM     18  C   UNL     1       1.196   3.509  20.964  0.00  0.00    +0.000 A 
ATOM     19  C   UNL     1       2.314   2.741  21.265  0.00  0.00    +0.000 A 
ATOM     20  C   UNL     1       3.554   3.095  20.737  0.00  0.00    +0.000 A 
ATOM     21  C   UNL     1       3.675   4.184  19.857  0.00  0.00    +0.000 A 
ATOM     22 CL   UNL     1       5.261   4.479  19.230  0.00  0.00    +0.000 Cl
ENDBRANCH  12  16
ENDBRANCH   6   8
BRANCH   4  23
ATOM     23  C   UNL     1      -0.378  14.398  21.127  0.00  0.00    +0.000 C 
ATOM     24  C   UNL     1      -1.151  15.531  20.443  0.00  0.00    +0.000 C 
ATOM     25  C   UNL     1      -0.748  14.368  22.619  0.00  0.00    +0.000 C 
ENDBRANCH   4  23
BRANCH   5  26
ATOM     26  C   UNL     1       1.775  12.337  20.646  0.00  0.00    +0.000 C 
BRANCH  26  27
ATOM     27  C   UNL     1       2.542  13.430  19.940  0.00  0.00    +0.000 A 
ATOM     28  C   UNL     1       2.523  13.618  18.548  0.00  0.00    +0.000 A 
ATOM     29  C   UNL     1       3.312  14.620  17.965  0.00  0.00    +0.000 A 
ATOM     30  C   UNL     1       4.106  15.431  18.762  0.00  0.00    +0.000 A 
ATOM     31  F   UNL     1       4.880  16.364  18.193  0.00  0.00    +0.000 F 
ATOM     32  C   UNL     1       4.113  15.284  20.139  0.00  0.00    +0.000 A 
ATOM     33  C   UNL     1       3.329  14.293  20.725  0.00  0.00    +0.000 A 
ENDBRANCH  26  27
ENDBRANCH   5  26
TORSDOF 5
ENDMDL
MODEL 5
REMARK VINA RESULT:      -7.1      1.798      2.569
REMARK  Name = 
REMARK  8 active torsions:
REMARK  status: ('A' for Active; 'I' for Inactive)
REMARK    1  A    between atoms: C_1  and  C_2
REMARK    2  A    between atoms: C_4  and  C_5
REMARK    3  A    between atoms: C_5  and  C_6
REMARK    4  A    between atoms: C_5  and  C_7
REMARK    5  A    between atoms: C_8  and  C_9
REMARK    6  A    between atoms: C_9  and  C_10
REMARK    7  A    between atoms: C_17  and  N_18
REMARK    8  A    between atoms: C_22  and  C_24
REMARK                            x       y       z     vdW  Elec       q    Type
REMARK                         _______ _______ _______ _____ _____    ______ ____
ROOT
ATOM      1  C   UNL     1       3.109  14.707  20.630  0.00  0.00    +0.000 C 
ATOM      2  C   UNL     1       1.876  13.918  20.329  0.00  0.00    +0.000 A 
ATOM      3  N   UNL     1       0.705  14.555  20.296  0.00  0.00    +0.000 NA
ATOM      4  C   UNL     1      -0.404  13.806  20.107  0.00  0.00    +0.000 A 
ATOM      5  C   UNL     1      -0.353  12.403  19.991  0.00  0.00    +0.000 A 
ATOM      6  C   UNL     1       0.923  11.828  20.002  0.00  0.00    +0.000 A 
ATOM      7  N   UNL     1       2.017  12.600  20.171  0.00  0.00    +0.000 NA
ENDROOT
BRANCH   6   8
ATOM      8  N   UNL     1       1.233  10.486  19.903  0.00  0.00    +0.000 N 
ATOM      9  C   UNL     1       1.217   9.502  20.992  0.00  0.00    +0.000 C 
ATOM     10  C   UNL     1       1.021   8.064  20.453  0.00  0.00    +0.000 C 
ATOM     11  N   UNL     1       1.928   7.747  19.338  0.00  0.00    +0.000 N 
ATOM     12  C   UNL     1       2.677   6.565  19.380  0.00  0.00    +0.000 C 
ATOM     13  O   UNL     1       2.672   5.845  20.377  0.00  0.00    +0.000 OA
ATOM     14  C   UNL     1       1.873   8.738  18.258  0.00  0.00    +0.000 C 
ATOM     15  C   UNL     1       2.108  10.167  18.764  0.00  0.00    +0.000 C 
BRANCH  12  16
ATOM     16  C   UNL     1       3.485   6.119  18.200  0.00  0.00    +0.000 A 
ATOM     17  C   UNL     1       4.375   7.020  17.589  0.00  0.00    +0.000 A 
ATOM     18  C   UNL     1       5.187   6.625  16.522  0.00  0.00    +0.000 A 
ATOM     19  C   UNL     1       5.051   5.352  15.982  0.00  0.00    +0.000 A 
ATOM     20  C   UNL     1       4.103   4.478  16.511  0.00  0.00    +0.000 A 
ATOM     21  C   UNL     1       3.328   4.848  17.622  0.00  0.00    +0.000 A 
ATOM     22 CL   UNL     1       2.231   3.648  18.213  0.00  0.00    +0.000 Cl
ENDBRANCH  12  16
ENDBRANCH   6   8
BRANCH   4  23
ATOM     23  C   UNL     1      -1.706  14.608  20.133  0.00  0.00    +0.000 C 
ATOM     24  C   UNL     1      -2.369  14.531  21.512  0.00  0.00    +0.000 C 
ATOM     25  C   UNL     1      -1.491  16.085  19.761  0.00  0.00    +0.000 C 
ENDBRANCH   4  23
BRANCH   5  26
ATOM     26  C   UNL     1      -1.628  11.593  20.006  0.00  0.00    +0.000 C 
BRANCH  26  27
ATOM     27  C   UNL     1      -2.256  11.176  18.698  0.00  0.00    +0.000 A 
ATOM     28  C   UNL     1      -1.638  10.310  17.781  0.00  0.00    +0.000 A 
ATOM     29  C   UNL     1      -2.262  10.020  16.559  0.00  0.00    +0.000 A 
ATOM     30  C   UNL     1      -3.495  10.580  16.259  0.00  0.00    +0.000 A 
ATOM     31  F   UNL     1      -4.070  10.321  15.078  0.00  0.00    +0.000 F 
ATOM     32  C   UNL     1      -4.137  11.408  17.165  0.00  0.00    +0.000 A 
ATOM     33  C   UNL     1      -3.524  11.698  18.381  0.00  0.00    +0.000 A 
ENDBRANCH  26  27
ENDBRANCH   5  26
TORSDOF 5
ENDMDL
MODEL 6
REMARK VINA RESULT:      -7.0      1.113      1.223
REMARK  Name = 
REMARK  8 active torsions:
REMARK  status: ('A' for Active; 'I' for Inactive)
REMARK    1  A    between atoms: C_1  and  C_2
REMARK    2  A    between atoms: C_4  and  C_5
REMARK    3  A    between atoms: C_5  and  C_6
REMARK    4  A    between atoms: C_5  and  C_7
REMARK    5  A    between atoms: C_8  and  C_9
REMARK    6  A    between atoms: C_9  and  C_10
REMARK    7  A    between atoms: C_17  and  N_18
REMARK    8  A    between atoms: C_22  and  C_24
REMARK                            x       y       z     vdW  Elec       q    Type
REMARK                         _______ _______ _______ _____ _____    ______ ____
ROOT
ATOM      1  C   UNL     1       1.958  14.349  21.600  0.00  0.00    +0.000 C 
ATOM      2  C   UNL     1       0.936  13.460  20.967  0.00  0.00    +0.000 A 
ATOM      3  N   UNL     1      -0.334  13.866  20.944  0.00  0.00    +0.000 NA
ATOM      4  C   UNL     1      -1.251  13.008  20.444  0.00  0.00    +0.000 A 
ATOM      5  C   UNL     1      -0.908  11.715  20.001  0.00  0.00    +0.000 A 
ATOM      6  C   UNL     1       0.453  11.392  20.032  0.00  0.00    +0.000 A 
ATOM      7  N   UNL     1       1.353  12.274  20.516  0.00  0.00    +0.000 NA
ENDROOT
BRANCH   6   8
ATOM      8  N   UNL     1       1.035  10.198  19.653  0.00  0.00    +0.000 N 
ATOM      9  C   UNL     1       1.558   9.864  18.323  0.00  0.00    +0.000 C 
ATOM     10  C   UNL     1       2.634   8.754  18.400  0.00  0.00    +0.000 C 
ATOM     11  N   UNL     1       2.205   7.602  19.211  0.00  0.00    +0.000 N 
ATOM     12  C   UNL     1       2.332   6.310  18.686  0.00  0.00    +0.000 C 
ATOM     13  O   UNL     1       2.694   6.130  17.524  0.00  0.00    +0.000 OA
ATOM     14  C   UNL     1       1.733   7.987  20.545  0.00  0.00    +0.000 C 
ATOM     15  C   UNL     1       0.635   9.056  20.490  0.00  0.00    +0.000 C 
BRANCH  12  16
ATOM     16  C   UNL     1       2.065   5.103  19.530  0.00  0.00    +0.000 A 
ATOM     17  C   UNL     1       2.518   5.074  20.861  0.00  0.00    +0.000 A 
ATOM     18  C   UNL     1       2.240   3.989  21.698  0.00  0.00    +0.000 A 
ATOM     19  C   UNL     1       1.591   2.871  21.190  0.00  0.00    +0.000 A 
ATOM     20  C   UNL     1       1.221   2.841  19.847  0.00  0.00    +0.000 A 
ATOM     21  C   UNL     1       1.444   3.952  19.017  0.00  0.00    +0.000 A 
ATOM     22 CL   UNL     1       0.885   3.803  17.386  0.00  0.00    +0.000 Cl
ENDBRANCH  12  16
ENDBRANCH   6   8
BRANCH   4  23
ATOM     23  C   UNL     1      -2.686  13.532  20.499  0.00  0.00    +0.000 C 
ATOM     24  C   UNL     1      -3.459  12.890  21.656  0.00  0.00    +0.000 C 
ATOM     25  C   UNL     1      -2.745  15.062  20.645  0.00  0.00    +0.000 C 
ENDBRANCH   4  23
BRANCH   5  26
ATOM     26  C   UNL     1      -1.990  10.717  19.663  0.00  0.00    +0.000 C 
BRANCH  26  27
ATOM     27  C   UNL     1      -2.490  10.619  18.241  0.00  0.00    +0.000 A 
ATOM     28  C   UNL     1      -1.855   9.859  17.245  0.00  0.00    +0.000 A 
ATOM     29  C   UNL     1      -2.349   9.870  15.932  0.00  0.00    +0.000 A 
ATOM     30  C   UNL     1      -3.470  10.625  15.619  0.00  0.00    +0.000 A 
ATOM     31  F   UNL     1      -3.917  10.653  14.357  0.00  0.00    +0.000 F 
ATOM     32  C   UNL     1      -4.131  11.354  16.594  0.00  0.00    +0.000 A 
ATOM     33  C   UNL     1      -3.647  11.344  17.900  0.00  0.00    +0.000 A 
ENDBRANCH  26  27
ENDBRANCH   5  26
TORSDOF 5
ENDMDL
MODEL 7
REMARK VINA RESULT:      -7.0      3.199      4.355
REMARK  Name = 
REMARK  8 active torsions:
REMARK  status: ('A' for Active; 'I' for Inactive)
REMARK    1  A    between atoms: C_1  and  C_2
REMARK    2  A    between atoms: C_4  and  C_5
REMARK    3  A    between atoms: C_5  and  C_6
REMARK    4  A    between atoms: C_5  and  C_7
REMARK    5  A    between atoms: C_8  and  C_9
REMARK    6  A    between atoms: C_9  and  C_10
REMARK    7  A    between atoms: C_17  and  N_18
REMARK    8  A    between atoms: C_22  and  C_24
REMARK                            x       y       z     vdW  Elec       q    Type
REMARK                         _______ _______ _______ _____ _____    ______ ____
ROOT
ATOM      1  C   UNL     1       4.167  15.039  18.437  0.00  0.00    +0.000 C 
ATOM      2  C   UNL     1       2.787  14.479  18.571  0.00  0.00    +0.000 A 
ATOM      3  N   UNL     1       1.758  15.326  18.615  0.00  0.00    +0.000 NA
ATOM      4  C   UNL     1       0.531  14.801  18.823  0.00  0.00    +0.000 A 
ATOM      5  C   UNL     1       0.328  13.422  19.031  0.00  0.00    +0.000 A 
ATOM      6  C   UNL     1       1.462  12.609  18.932  0.00  0.00    +0.000 A 
ATOM      7  N   UNL     1       2.675  13.155  18.703  0.00  0.00    +0.000 NA
ENDROOT
BRANCH   6   8
ATOM      8  N   UNL     1       1.522  11.239  19.094  0.00  0.00    +0.000 N 
ATOM      9  C   UNL     1       1.260  10.491  20.329  0.00  0.00    +0.000 C 
ATOM     10  C   UNL     1       0.831   9.034  20.029  0.00  0.00    +0.000 C 
ATOM     11  N   UNL     1       1.727   8.364  19.071  0.00  0.00    +0.000 N 
ATOM     12  C   UNL     1       2.239   7.099  19.383  0.00  0.00    +0.000 C 
ATOM     13  O   UNL     1       2.041   6.588  20.483  0.00  0.00    +0.000 OA
ATOM     14  C   UNL     1       1.920   9.133  17.837  0.00  0.00    +0.000 C 
ATOM     15  C   UNL     1       2.387  10.568  18.109  0.00  0.00    +0.000 C 
BRANCH  12  16
ATOM     16  C   UNL     1       3.016   6.310  18.375  0.00  0.00    +0.000 A 
ATOM     17  C   UNL     1       4.069   6.926  17.675  0.00  0.00    +0.000 A 
ATOM     18  C   UNL     1       4.853   6.208  16.767  0.00  0.00    +0.000 A 
ATOM     19  C   UNL     1       4.536   4.888  16.470  0.00  0.00    +0.000 A 
ATOM     20  C   UNL     1       3.436   4.290  17.080  0.00  0.00    +0.000 A 
ATOM     21  C   UNL     1       2.680   4.988  18.038  0.00  0.00    +0.000 A 
ATOM     22 CL   UNL     1       1.376   4.109  18.760  0.00  0.00    +0.000 Cl
ENDBRANCH  12  16
ENDBRANCH   6   8
BRANCH   4  23
ATOM     23  C   UNL     1      -0.584  15.844  18.908  0.00  0.00    +0.000 C 
ATOM     24  C   UNL     1      -0.613  16.502  20.292  0.00  0.00    +0.000 C 
ATOM     25  C   UNL     1      -0.446  16.938  17.836  0.00  0.00    +0.000 C 
ENDBRANCH   4  23
BRANCH   5  26
ATOM     26  C   UNL     1      -1.022  12.913  19.480  0.00  0.00    +0.000 C 
BRANCH  26  27
ATOM     27  C   UNL     1      -1.513  13.241  20.870  0.00  0.00    +0.000 A 
ATOM     28  C   UNL     1      -0.690  13.228  22.008  0.00  0.00    +0.000 A 
ATOM     29  C   UNL     1      -1.238  13.486  23.273  0.00  0.00    +0.000 A 
ATOM     30  C   UNL     1      -2.591  13.762  23.400  0.00  0.00    +0.000 A 
ATOM     31  F   UNL     1      -3.110  13.978  24.615  0.00  0.00    +0.000 F 
ATOM     32  C   UNL     1      -3.412  13.814  22.287  0.00  0.00    +0.000 A 
ATOM     33  C   UNL     1      -2.874  13.562  21.027  0.00  0.00    +0.000 A 
ENDBRANCH  26  27
ENDBRANCH   5  26
TORSDOF 5
ENDMDL
MODEL 8
REMARK VINA RESULT:      -6.9      2.363      3.286
REMARK  Name = 
REMARK  8 active torsions:
REMARK  status: ('A' for Active; 'I' for Inactive)
REMARK    1  A    between atoms: C_1  and  C_2
REMARK    2  A    between atoms: C_4  and  C_5
REMARK    3  A    between atoms: C_5  and  C_6
REMARK    4  A    between atoms: C_5  and  C_7
REMARK    5  A    between atoms: C_8  and  C_9
REMARK    6  A    between atoms: C_9  and  C_10
REMARK    7  A    between atoms: C_17  and  N_18
REMARK    8  A    between atoms: C_22  and  C_24
REMARK                            x       y       z     vdW  Elec       q    Type
REMARK                         _______ _______ _______ _____ _____    ______ ____
ROOT
ATOM      1  C   UNL     1       3.321  15.128  17.682  0.00  0.00    +0.000 C 
ATOM      2  C   UNL     1       2.108  14.494  18.283  0.00  0.00    +0.000 A 
ATOM      3  N   UNL     1       1.105  15.281  18.672  0.00  0.00    +0.000 NA
ATOM      4  C   UNL     1       0.058  14.692  19.290  0.00  0.00    +0.000 A 
ATOM      5  C   UNL     1       0.026  13.310  19.564  0.00  0.00    +0.000 A 
ATOM      6  C   UNL     1       1.107  12.561  19.087  0.00  0.00    +0.000 A 
ATOM      7  N   UNL     1       2.132  13.169  18.453  0.00  0.00    +0.000 NA
ENDROOT
BRANCH   6   8
ATOM      8  N   UNL     1       1.305  11.201  19.226  0.00  0.00    +0.000 N 
ATOM      9  C   UNL     1       1.165  10.418  20.459  0.00  0.00    +0.000 C 
ATOM     10  C   UNL     1       0.866   8.930  20.154  0.00  0.00    +0.000 C 
ATOM     11  N   UNL     1       1.784   8.360  19.153  0.00  0.00    +0.000 N 
ATOM     12  C   UNL     1       2.427   7.147  19.427  0.00  0.00    +0.000 C 
ATOM     13  O   UNL     1       2.323   6.607  20.527  0.00  0.00    +0.000 OA
ATOM     14  C   UNL     1       1.854   9.157  17.924  0.00  0.00    +0.000 C 
ATOM     15  C   UNL     1       2.191  10.628  18.200  0.00  0.00    +0.000 C 
BRANCH  12  16
ATOM     16  C   UNL     1       3.236   6.448  18.379  0.00  0.00    +0.000 A 
ATOM     17  C   UNL     1       4.354   7.094  17.820  0.00  0.00    +0.000 A 
ATOM     18  C   UNL     1       5.167   6.453  16.881  0.00  0.00    +0.000 A 
ATOM     19  C   UNL     1       4.820   5.193  16.409  0.00  0.00    +0.000 A 
ATOM     20  C   UNL     1       3.662   4.578  16.878  0.00  0.00    +0.000 A 
ATOM     21  C   UNL     1       2.874   5.191  17.867  0.00  0.00    +0.000 A 
ATOM     22 CL   UNL     1       1.495   4.293  18.401  0.00  0.00    +0.000 Cl
ENDBRANCH  12  16
ENDBRANCH   6   8
BRANCH   4  23
ATOM     23  C   UNL     1      -1.024  15.671  19.746  0.00  0.00    +0.000 C 
ATOM     24  C   UNL     1      -0.755  16.158  21.174  0.00  0.00    +0.000 C 
ATOM     25  C   UNL     1      -1.142  16.889  18.814  0.00  0.00    +0.000 C 
ENDBRANCH   4  23
BRANCH   5  26
ATOM     26  C   UNL     1      -1.054  12.736  20.450  0.00  0.00    +0.000 C 
BRANCH  26  27
ATOM     27  C   UNL     1      -2.431  12.496  19.879  0.00  0.00    +0.000 A 
ATOM     28  C   UNL     1      -2.663  11.826  18.666  0.00  0.00    +0.000 A 
ATOM     29  C   UNL     1      -3.971  11.698  18.174  0.00  0.00    +0.000 A 
ATOM     30  C   UNL     1      -5.036  12.225  18.889  0.00  0.00    +0.000 A 
ATOM     31  F   UNL     1      -6.277  12.123  18.397  0.00  0.00    +0.000 F 
ATOM     32  C   UNL     1      -4.832  12.858  20.104  0.00  0.00    +0.000 A 
ATOM     33  C   UNL     1      -3.536  12.986  20.599  0.00  0.00    +0.000 A 
ENDBRANCH  26  27
ENDBRANCH   5  26
TORSDOF 5
ENDMDL
MODEL 9
REMARK VINA RESULT:      -6.8      2.537      3.582
REMARK  Name = 
REMARK  8 active torsions:
REMARK  status: ('A' for Active; 'I' for Inactive)
REMARK    1  A    between atoms: C_1  and  C_2
REMARK    2  A    between atoms: C_4  and  C_5
REMARK    3  A    between atoms: C_5  and  C_6
REMARK    4  A    between atoms: C_5  and  C_7
REMARK    5  A    between atoms: C_8  and  C_9
REMARK    6  A    between atoms: C_9  and  C_10
REMARK    7  A    between atoms: C_17  and  N_18
REMARK    8  A    between atoms: C_22  and  C_24
REMARK                            x       y       z     vdW  Elec       q    Type
REMARK                         _______ _______ _______ _____ _____    ______ ____
ROOT
ATOM      1  C   UNL     1       0.465   9.396  24.119  0.00  0.00    +0.000 C 
ATOM      2  C   UNL     1       0.558   9.586  22.639  0.00  0.00    +0.000 A 
ATOM      3  N   UNL     1       0.052  10.699  22.107  0.00  0.00    +0.000 NA
ATOM      4  C   UNL     1       0.072  10.808  20.760  0.00  0.00    +0.000 A 
ATOM      5  C   UNL     1       0.560   9.780  19.930  0.00  0.00    +0.000 A 
ATOM      6  C   UNL     1       1.102   8.665  20.580  0.00  0.00    +0.000 A 
ATOM      7  N   UNL     1       1.091   8.590  21.927  0.00  0.00    +0.000 NA
ENDROOT
BRANCH   6   8
ATOM      8  N   UNL     1       1.641   7.538  19.992  0.00  0.00    +0.000 N 
ATOM      9  C   UNL     1       1.544   6.161  20.490  0.00  0.00    +0.000 C 
ATOM     10  C   UNL     1       1.709   5.131  19.346  0.00  0.00    +0.000 C 
ATOM     11  N   UNL     1       2.881   5.408  18.497  0.00  0.00    +0.000 N 
ATOM     12  C   UNL     1       3.783   4.375  18.220  0.00  0.00    +0.000 C 
ATOM     13  O   UNL     1       3.674   3.274  18.758  0.00  0.00    +0.000 OA
ATOM     14  C   UNL     1       2.906   6.784  17.991  0.00  0.00    +0.000 C 
ATOM     15  C   UNL     1       2.787   7.822  19.113  0.00  0.00    +0.000 C 
BRANCH  12  16
ATOM     16  C   UNL     1       4.894   4.564  17.233  0.00  0.00    +0.000 A 
ATOM     17  C   UNL     1       4.700   4.190  15.892  0.00  0.00    +0.000 A 
ATOM     18  C   UNL     1       5.692   4.402  14.930  0.00  0.00    +0.000 A 
ATOM     19  C   UNL     1       6.932   4.899  15.311  0.00  0.00    +0.000 A 
ATOM     20  C   UNL     1       7.177   5.183  16.653  0.00  0.00    +0.000 A 
ATOM     21  C   UNL     1       6.164   5.030  17.615  0.00  0.00    +0.000 A 
ATOM     22 CL   UNL     1       6.583   5.472  19.234  0.00  0.00    +0.000 Cl
ENDBRANCH  12  16
ENDBRANCH   6   8
BRANCH   4  23
ATOM     23  C   UNL     1      -0.571  12.091  20.232  0.00  0.00    +0.000 C 
ATOM     24  C   UNL     1      -1.972  12.284  20.821  0.00  0.00    +0.000 C 
ATOM     25  C   UNL     1       0.277  13.338  20.535  0.00  0.00    +0.000 C 
ENDBRANCH   4  23
BRANCH   5  26
ATOM     26  C   UNL     1       0.357   9.850  18.435  0.00  0.00    +0.000 C 
BRANCH  26  27
ATOM     27  C   UNL     1      -1.014  10.173  17.888  0.00  0.00    +0.000 A 
ATOM     28  C   UNL     1      -1.278  11.270  17.053  0.00  0.00    +0.000 A 
ATOM     29  C   UNL     1      -2.592  11.535  16.637  0.00  0.00    +0.000 A 
ATOM     30  C   UNL     1      -3.629  10.708  17.044  0.00  0.00    +0.000 A 
ATOM     31  F   UNL     1      -4.883  10.986  16.667  0.00  0.00    +0.000 F 
ATOM     32  C   UNL     1      -3.383   9.601  17.839  0.00  0.00    +0.000 A 
ATOM     33  C   UNL     1      -2.081   9.331  18.253  0.00  0.00    +0.000 A 
ENDBRANCH  26  27
ENDBRANCH   5  26
TORSDOF 5
ENDMDL
