MODEL 1
REMARK VINA RESULT:      -8.8      0.000      0.000
REMARK  Name = 
REMARK  5 active torsions:
REMARK  status: ('A' for Active; 'I' for Inactive)
REMARK    1  A    between atoms: C_2  and  C_3
REMARK    2  A    between atoms: C_3  and  S_4
REMARK    3  A    between atoms: S_4  and  C_5
REMARK    4  A    between atoms: N_12  and  C_13
REMARK    5  A    between atoms: C_17  and  C_18
REMARK                            x       y       z     vdW  Elec       q    Type
REMARK                         _______ _______ _______ _____ _____    ______ ____
ROOT
ATOM      1  C   UNL     1       6.572   6.286  16.511  0.00  0.00    +0.000 A 
ATOM      2  C   UNL     1       7.042   5.426  15.516  0.00  0.00    +0.000 A 
ATOM      3  C   UNL     1       6.520   4.140  15.382  0.00  0.00    +0.000 A 
ATOM      4  C   UNL     1       5.513   3.704  16.240  0.00  0.00    +0.000 A 
ATOM      5  C   UNL     1       5.014   4.546  17.243  0.00  0.00    +0.000 A 
ATOM      6  C   UNL     1       5.561   5.837  17.373  0.00  0.00    +0.000 A 
ENDROOT
BRANCH   5   7
ATOM      7  C   UNL     1       3.948   4.102  18.141  0.00  0.00    +0.000 A 
ATOM      8  N   UNL     1       2.641   4.074  17.939  0.00  0.00    +0.000 NA
ATOM      9  C   UNL     1       2.151   3.571  19.113  0.00  0.00    +0.000 A 
ATOM     10  N   UNL     1       0.851   3.346  19.415  0.00  0.00    +0.000 NA
ATOM     11  C   UNL     1       0.662   2.847  20.662  0.00  0.00    +0.000 A 
ATOM     12  C   UNL     1       1.664   2.568  21.594  0.00  0.00    +0.000 A 
ATOM     13  C   UNL     1       2.999   2.803  21.267  0.00  0.00    +0.000 A 
ATOM     14  C   UNL     1       3.186   3.314  19.994  0.00  0.00    +0.000 A 
ATOM     15  O   UNL     1       4.351   3.650  19.378  0.00  0.00    +0.000 OA
ENDBRANCH   5   7
BRANCH   1  18
ATOM     16  O   UNL     1       8.299   7.288  18.682  0.00  0.00    +0.000 OA
ATOM     17  C   UNL     1       7.830   8.018  17.807  0.00  0.00    +0.000 C 
ATOM     18  N   UNL     1       7.098   7.581  16.715  0.00  0.00    +0.000 N 
ATOM     19  H   UNL     1       6.909   8.272  15.996  0.00  0.00    +0.000 HD
BRANCH  17  20
ATOM     20  C   UNL     1       8.156   9.505  17.835  0.00  0.00    +0.000 C 
BRANCH  20  21
ATOM     21  S   UNL     1       9.315   9.972  19.163  0.00  0.00    +0.000 S 
BRANCH  21  22
ATOM     22  C   UNL     1       9.882  11.530  18.505  0.00  0.00    +0.000 A 
ATOM     23  C   UNL     1       9.000  12.602  18.329  0.00  0.00    +0.000 A 
ATOM     24  C   UNL     1       9.459  13.813  17.799  0.00  0.00    +0.000 A 
ATOM     25  C   UNL     1      10.799  13.954  17.447  0.00  0.00    +0.000 A 
ATOM     26 CL   UNL     1      11.357  15.440  16.783  0.00  0.00    +0.000 Cl
ATOM     27  C   UNL     1      11.689  12.901  17.635  0.00  0.00    +0.000 A 
ATOM     28  C   UNL     1      11.232  11.690  18.168  0.00  0.00    +0.000 A 
ENDBRANCH  21  22
ENDBRANCH  20  21
ENDBRANCH  17  20
ENDBRANCH   1  18
TORSDOF 5
ENDMDL
MODEL 2
REMARK VINA RESULT:      -8.5      0.881      1.448
REMARK  Name = 
REMARK  5 active torsions:
REMARK  status: ('A' for Active; 'I' for Inactive)
REMARK    1  A    between atoms: C_2  and  C_3
REMARK    2  A    between atoms: C_3  and  S_4
REMARK    3  A    between atoms: S_4  and  C_5
REMARK    4  A    between atoms: N_12  and  C_13
REMARK    5  A    between atoms: C_17  and  C_18
REMARK                            x       y       z     vdW  Elec       q    Type
REMARK                         _______ _______ _______ _____ _____    ______ ____
ROOT
ATOM      1  C   UNL     1       6.715   6.373  16.641  0.00  0.00    +0.000 A 
ATOM      2  C   UNL     1       7.198   5.496  15.667  0.00  0.00    +0.000 A 
ATOM      3  C   UNL     1       6.705   4.195  15.574  0.00  0.00    +0.000 A 
ATOM      4  C   UNL     1       5.715   3.760  16.452  0.00  0.00    +0.000 A 
ATOM      5  C   UNL     1       5.205   4.618  17.435  0.00  0.00    +0.000 A 
ATOM      6  C   UNL     1       5.722   5.925  17.524  0.00  0.00    +0.000 A 
ENDROOT
BRANCH   5   7
ATOM      7  C   UNL     1       4.157   4.175  18.354  0.00  0.00    +0.000 A 
ATOM      8  N   UNL     1       4.126   4.224  19.675  0.00  0.00    +0.000 NA
ATOM      9  C   UNL     1       2.914   3.671  19.985  0.00  0.00    +0.000 A 
ATOM     10  N   UNL     1       2.401   3.490  21.224  0.00  0.00    +0.000 NA
ATOM     11  C   UNL     1       1.175   2.909  21.224  0.00  0.00    +0.000 A 
ATOM     12  C   UNL     1       0.455   2.513  20.095  0.00  0.00    +0.000 A 
ATOM     13  C   UNL     1       0.996   2.708  18.824  0.00  0.00    +0.000 A 
ATOM     14  C   UNL     1       2.248   3.300  18.830  0.00  0.00    +0.000 A 
ATOM     15  O   UNL     1       3.038   3.622  17.771  0.00  0.00    +0.000 OA
ENDBRANCH   5   7
BRANCH   1  18
ATOM     16  O   UNL     1       8.486   7.461  18.734  0.00  0.00    +0.000 OA
ATOM     17  C   UNL     1       7.968   8.161  17.863  0.00  0.00    +0.000 C 
ATOM     18  N   UNL     1       7.213   7.685  16.805  0.00  0.00    +0.000 N 
ATOM     19  H   UNL     1       6.980   8.357  16.081  0.00  0.00    +0.000 HD
BRANCH  17  20
ATOM     20  C   UNL     1       8.253   9.657  17.854  0.00  0.00    +0.000 C 
BRANCH  20  21
ATOM     21  S   UNL     1       9.268  10.213  19.263  0.00  0.00    +0.000 S 
BRANCH  21  22
ATOM     22  C   UNL     1       9.893  11.737  18.575  0.00  0.00    +0.000 A 
ATOM     23  C   UNL     1      11.063  11.755  17.808  0.00  0.00    +0.000 A 
ATOM     24  C   UNL     1      11.546  12.961  17.288  0.00  0.00    +0.000 A 
ATOM     25  C   UNL     1      10.859  14.148  17.532  0.00  0.00    +0.000 A 
ATOM     26 CL   UNL     1      11.464  15.630  16.903  0.00  0.00    +0.000 Cl
ATOM     27  C   UNL     1       9.685  14.138  18.279  0.00  0.00    +0.000 A 
ATOM     28  C   UNL     1       9.199  12.932  18.797  0.00  0.00    +0.000 A 
ENDBRANCH  21  22
ENDBRANCH  20  21
ENDBRANCH  17  20
ENDBRANCH   1  18
TORSDOF 5
ENDMDL
MODEL 3
REMARK VINA RESULT:      -8.4      6.697      9.197
REMARK  Name = 
REMARK  5 active torsions:
REMARK  status: ('A' for Active; 'I' for Inactive)
REMARK    1  A    between atoms: C_2  and  C_3
REMARK    2  A    between atoms: C_3  and  S_4
REMARK    3  A    between atoms: S_4  and  C_5
REMARK    4  A    between atoms: N_12  and  C_13
REMARK    5  A    between atoms: C_17  and  C_18
REMARK                            x       y       z     vdW  Elec       q    Type
REMARK                         _______ _______ _______ _____ _____    ______ ____
ROOT
ATOM      1  C   UNL     1       2.228   7.162  19.781  0.00  0.00    +0.000 A 
ATOM      2  C   UNL     1       2.495   7.386  18.428  0.00  0.00    +0.000 A 
ATOM      3  C   UNL     1       2.042   8.542  17.795  0.00  0.00    +0.000 A 
ATOM      4  C   UNL     1       1.322   9.494  18.513  0.00  0.00    +0.000 A 
ATOM      5  C   UNL     1       1.044   9.303  19.874  0.00  0.00    +0.000 A 
ATOM      6  C   UNL     1       1.498   8.123  20.495  0.00  0.00    +0.000 A 
ENDROOT
BRANCH   5   7
ATOM      7  C   UNL     1       0.300  10.302  20.640  0.00  0.00    +0.000 A 
ATOM      8  N   UNL     1       0.505  10.735  21.872  0.00  0.00    +0.000 NA
ATOM      9  C   UNL     1      -0.490  11.654  22.055  0.00  0.00    +0.000 A 
ATOM     10  N   UNL     1      -0.718  12.389  23.169  0.00  0.00    +0.000 NA
ATOM     11  C   UNL     1      -1.787  13.217  23.063  0.00  0.00    +0.000 A 
ATOM     12  C   UNL     1      -2.614  13.351  21.946  0.00  0.00    +0.000 A 
ATOM     13  C   UNL     1      -2.365  12.589  20.805  0.00  0.00    +0.000 A 
ATOM     14  C   UNL     1      -1.274  11.744  20.918  0.00  0.00    +0.000 A 
ATOM     15  O   UNL     1      -0.773  10.879  19.997  0.00  0.00    +0.000 OA
ENDBRANCH   5   7
BRANCH   1  18
ATOM     16  O   UNL     1       0.729   4.664  20.243  0.00  0.00    +0.000 OA
ATOM     17  C   UNL     1       1.843   4.876  20.724  0.00  0.00    +0.000 C 
ATOM     18  N   UNL     1       2.626   5.987  20.456  0.00  0.00    +0.000 N 
ATOM     19  H   UNL     1       3.581   5.956  20.798  0.00  0.00    +0.000 HD
BRANCH  17  20
ATOM     20  C   UNL     1       2.488   3.805  21.593  0.00  0.00    +0.000 C 
BRANCH  20  21
ATOM     21  S   UNL     1       3.065   2.354  20.651  0.00  0.00    +0.000 S 
BRANCH  21  22
ATOM     22  C   UNL     1       3.744   3.194  19.230  0.00  0.00    +0.000 A 
ATOM     23  C   UNL     1       4.981   3.846  19.302  0.00  0.00    +0.000 A 
ATOM     24  C   UNL     1       5.492   4.511  18.183  0.00  0.00    +0.000 A 
ATOM     25  C   UNL     1       4.771   4.523  16.991  0.00  0.00    +0.000 A 
ATOM     26 CL   UNL     1       5.397   5.354  15.622  0.00  0.00    +0.000 Cl
ATOM     27  C   UNL     1       3.549   3.863  16.904  0.00  0.00    +0.000 A 
ATOM     28  C   UNL     1       3.038   3.194  18.022  0.00  0.00    +0.000 A 
ENDBRANCH  21  22
ENDBRANCH  20  21
ENDBRANCH  17  20
ENDBRANCH   1  18
TORSDOF 5
ENDMDL
MODEL 4
REMARK VINA RESULT:      -8.3      6.558      9.064
REMARK  Name = 
REMARK  5 active torsions:
REMARK  status: ('A' for Active; 'I' for Inactive)
REMARK    1  A    between atoms: C_2  and  C_3
REMARK    2  A    between atoms: C_3  and  S_4
REMARK    3  A    between atoms: S_4  and  C_5
REMARK    4  A    between atoms: N_12  and  C_13
REMARK    5  A    between atoms: C_17  and  C_18
REMARK                            x       y       z     vdW  Elec       q    Type
REMARK                         _______ _______ _______ _____ _____    ______ ____
ROOT
ATOM      1  C   UNL     1       2.298   7.249  19.631  0.00  0.00    +0.000 A 
ATOM      2  C   UNL     1       2.724   7.497  18.324  0.00  0.00    +0.000 A 
ATOM      3  C   UNL     1       2.289   8.629  17.637  0.00  0.00    +0.000 A 
ATOM      4  C   UNL     1       1.427   9.532  18.255  0.00  0.00    +0.000 A 
ATOM      5  C   UNL     1       0.988   9.315  19.568  0.00  0.00    +0.000 A 
ATOM      6  C   UNL     1       1.427   8.160  20.244  0.00  0.00    +0.000 A 
ENDROOT
BRANCH   5   7
ATOM      7  C   UNL     1       0.093  10.263  20.231  0.00  0.00    +0.000 A 
ATOM      8  N   UNL     1      -0.557  11.296  19.723  0.00  0.00    +0.000 NA
ATOM      9  C   UNL     1      -1.228  11.809  20.799  0.00  0.00    +0.000 A 
ATOM     10  N   UNL     1      -2.045  12.888  20.802  0.00  0.00    +0.000 NA
ATOM     11  C   UNL     1      -2.568  13.169  22.022  0.00  0.00    +0.000 A 
ATOM     12  C   UNL     1      -2.331  12.456  23.199  0.00  0.00    +0.000 A 
ATOM     13  C   UNL     1      -1.488  11.345  23.179  0.00  0.00    +0.000 A 
ATOM     14  C   UNL     1      -0.956  11.064  21.932  0.00  0.00    +0.000 A 
ATOM     15  O   UNL     1      -0.107  10.063  21.579  0.00  0.00    +0.000 OA
ENDBRANCH   5   7
BRANCH   1  18
ATOM     16  O   UNL     1       0.735   4.822  20.239  0.00  0.00    +0.000 OA
ATOM     17  C   UNL     1       1.865   5.022  20.688  0.00  0.00    +0.000 C 
ATOM     18  N   UNL     1       2.675   6.094  20.353  0.00  0.00    +0.000 N 
ATOM     19  H   UNL     1       3.636   6.050  20.678  0.00  0.00    +0.000 HD
BRANCH  17  20
ATOM     20  C   UNL     1       2.495   3.972  21.594  0.00  0.00    +0.000 C 
BRANCH  20  21
ATOM     21  S   UNL     1       2.991   2.455  20.713  0.00  0.00    +0.000 S 
BRANCH  21  22
ATOM     22  C   UNL     1       3.698   3.197  19.252  0.00  0.00    +0.000 A 
ATOM     23  C   UNL     1       4.965   3.789  19.285  0.00  0.00    +0.000 A 
ATOM     24  C   UNL     1       5.498   4.378  18.133  0.00  0.00    +0.000 A 
ATOM     25  C   UNL     1       4.766   4.373  16.948  0.00  0.00    +0.000 A 
ATOM     26 CL   UNL     1       5.418   5.112  15.538  0.00  0.00    +0.000 Cl
ATOM     27  C   UNL     1       3.512   3.771  16.899  0.00  0.00    +0.000 A 
ATOM     28  C   UNL     1       2.980   3.178  18.050  0.00  0.00    +0.000 A 
ENDBRANCH  21  22
ENDBRANCH  20  21
ENDBRANCH  17  20
ENDBRANCH   1  18
TORSDOF 5
ENDMDL
MODEL 5
REMARK VINA RESULT:      -8.1      1.020      1.332
REMARK  Name = 
REMARK  5 active torsions:
REMARK  status: ('A' for Active; 'I' for Inactive)
REMARK    1  A    between atoms: C_2  and  C_3
REMARK    2  A    between atoms: C_3  and  S_4
REMARK    3  A    between atoms: S_4  and  C_5
REMARK    4  A    between atoms: N_12  and  C_13
REMARK    5  A    between atoms: C_17  and  C_18
REMARK                            x       y       z     vdW  Elec       q    Type
REMARK                         _______ _______ _______ _____ _____    ______ ____
ROOT
ATOM      1  C   UNL     1       6.703   6.444  16.658  0.00  0.00    +0.000 A 
ATOM      2  C   UNL     1       7.183   5.586  15.667  0.00  0.00    +0.000 A 
ATOM      3  C   UNL     1       6.661   4.301  15.524  0.00  0.00    +0.000 A 
ATOM      4  C   UNL     1       5.644   3.863  16.369  0.00  0.00    +0.000 A 
ATOM      5  C   UNL     1       5.135   4.703  17.368  0.00  0.00    +0.000 A 
ATOM      6  C   UNL     1       5.682   5.994  17.508  0.00  0.00    +0.000 A 
ENDROOT
BRANCH   5   7
ATOM      7  C   UNL     1       4.058   4.258  18.253  0.00  0.00    +0.000 A 
ATOM      8  N   UNL     1       2.750   4.375  18.103  0.00  0.00    +0.000 NA
ATOM      9  C   UNL     1       2.248   3.786  19.231  0.00  0.00    +0.000 A 
ATOM     10  N   UNL     1       0.942   3.649  19.559  0.00  0.00    +0.000 NA
ATOM     11  C   UNL     1       0.743   3.027  20.748  0.00  0.00    +0.000 A 
ATOM     12  C   UNL     1       1.741   2.549  21.599  0.00  0.00    +0.000 A 
ATOM     13  C   UNL     1       3.082   2.696  21.247  0.00  0.00    +0.000 A 
ATOM     14  C   UNL     1       3.280   3.332  20.034  0.00  0.00    +0.000 A 
ATOM     15  O   UNL     1       4.452   3.628  19.413  0.00  0.00    +0.000 OA
ENDBRANCH   5   7
BRANCH   1  18
ATOM     16  O   UNL     1       8.473   7.418  18.807  0.00  0.00    +0.000 OA
ATOM     17  C   UNL     1       7.982   8.160  17.955  0.00  0.00    +0.000 C 
ATOM     18  N   UNL     1       7.228   7.738  16.872  0.00  0.00    +0.000 N 
ATOM     19  H   UNL     1       7.020   8.440  16.169  0.00  0.00    +0.000 HD
BRANCH  17  20
ATOM     20  C   UNL     1       8.302   9.648  18.000  0.00  0.00    +0.000 C 
BRANCH  20  21
ATOM     21  S   UNL     1       9.434  10.108  19.353  0.00  0.00    +0.000 S 
BRANCH  21  22
ATOM     22  C   UNL     1       9.274  11.883  19.261  0.00  0.00    +0.000 A 
ATOM     23  C   UNL     1       9.319  12.548  18.030  0.00  0.00    +0.000 A 
ATOM     24  C   UNL     1       9.206  13.942  17.978  0.00  0.00    +0.000 A 
ATOM     25  C   UNL     1       9.046  14.671  19.154  0.00  0.00    +0.000 A 
ATOM     26 CL   UNL     1       8.922  16.385  19.086  0.00  0.00    +0.000 Cl
ATOM     27  C   UNL     1       8.982  14.018  20.381  0.00  0.00    +0.000 A 
ATOM     28  C   UNL     1       9.092  12.624  20.435  0.00  0.00    +0.000 A 
ENDBRANCH  21  22
ENDBRANCH  20  21
ENDBRANCH  17  20
ENDBRANCH   1  18
TORSDOF 5
ENDMDL
MODEL 6
REMARK VINA RESULT:      -8.1      5.488      7.689
REMARK  Name = 
REMARK  5 active torsions:
REMARK  status: ('A' for Active; 'I' for Inactive)
REMARK    1  A    between atoms: C_2  and  C_3
REMARK    2  A    between atoms: C_3  and  S_4
REMARK    3  A    between atoms: S_4  and  C_5
REMARK    4  A    between atoms: N_12  and  C_13
REMARK    5  A    between atoms: C_17  and  C_18
REMARK                            x       y       z     vdW  Elec       q    Type
REMARK                         _______ _______ _______ _____ _____    ______ ____
ROOT
ATOM      1  C   UNL     1       3.834   4.910  19.206  0.00  0.00    +0.000 A 
ATOM      2  C   UNL     1       3.249   3.847  19.898  0.00  0.00    +0.000 A 
ATOM      3  C   UNL     1       2.144   4.056  20.722  0.00  0.00    +0.000 A 
ATOM      4  C   UNL     1       1.605   5.334  20.855  0.00  0.00    +0.000 A 
ATOM      5  C   UNL     1       2.164   6.420  20.167  0.00  0.00    +0.000 A 
ATOM      6  C   UNL     1       3.288   6.194  19.349  0.00  0.00    +0.000 A 
ENDROOT
BRANCH   5   7
ATOM      7  C   UNL     1       1.598   7.763  20.289  0.00  0.00    +0.000 A 
ATOM      8  N   UNL     1       1.568   8.743  19.402  0.00  0.00    +0.000 NA
ATOM      9  C   UNL     1       0.924   9.751  20.064  0.00  0.00    +0.000 A 
ATOM     10  N   UNL     1       0.640  10.984  19.583  0.00  0.00    +0.000 NA
ATOM     11  C   UNL     1      -0.004  11.779  20.473  0.00  0.00    +0.000 A 
ATOM     12  C   UNL     1      -0.370  11.426  21.773  0.00  0.00    +0.000 A 
ATOM     13  C   UNL     1      -0.073  10.151  22.255  0.00  0.00    +0.000 A 
ATOM     14  C   UNL     1       0.585   9.344  21.343  0.00  0.00    +0.000 A 
ATOM     15  O   UNL     1       1.013   8.063  21.500  0.00  0.00    +0.000 OA
ENDBRANCH   5   7
BRANCH   1  18
ATOM     16  O   UNL     1       6.684   5.168  19.919  0.00  0.00    +0.000 OA
ATOM     17  C   UNL     1       6.296   4.983  18.765  0.00  0.00    +0.000 C 
ATOM     18  N   UNL     1       4.981   4.758  18.395  0.00  0.00    +0.000 N 
ATOM     19  H   UNL     1       4.828   4.469  17.434  0.00  0.00    +0.000 HD
BRANCH  17  20
ATOM     20  C   UNL     1       7.326   4.876  17.649  0.00  0.00    +0.000 C 
BRANCH  20  21
ATOM     21  S   UNL     1       7.155   6.167  16.373  0.00  0.00    +0.000 S 
BRANCH  21  22
ATOM     22  C   UNL     1       6.684   5.138  14.993  0.00  0.00    +0.000 A 
ATOM     23  C   UNL     1       7.486   5.056  13.849  0.00  0.00    +0.000 A 
ATOM     24  C   UNL     1       7.094   4.255  12.771  0.00  0.00    +0.000 A 
ATOM     25  C   UNL     1       5.905   3.533  12.836  0.00  0.00    +0.000 A 
ATOM     26 CL   UNL     1       5.421   2.561  11.503  0.00  0.00    +0.000 Cl
ATOM     27  C   UNL     1       5.110   3.593  13.977  0.00  0.00    +0.000 A 
ATOM     28  C   UNL     1       5.502   4.392  15.058  0.00  0.00    +0.000 A 
ENDBRANCH  21  22
ENDBRANCH  20  21
ENDBRANCH  17  20
ENDBRANCH   1  18
TORSDOF 5
ENDMDL
MODEL 7
REMARK VINA RESULT:      -8.0      6.800      9.088
REMARK  Name = 
REMARK  5 active torsions:
REMARK  status: ('A' for Active; 'I' for Inactive)
REMARK    1  A    between atoms: C_2  and  C_3
REMARK    2  A    between atoms: C_3  and  S_4
REMARK    3  A    between atoms: S_4  and  C_5
REMARK    4  A    between atoms: N_12  and  C_13
REMARK    5  A    between atoms: C_17  and  C_18
REMARK                            x       y       z     vdW  Elec       q    Type
REMARK                         _______ _______ _______ _____ _____    ______ ____
ROOT
ATOM      1  C   UNL     1       2.109   7.523  19.639  0.00  0.00    +0.000 A 
ATOM      2  C   UNL     1       2.179   7.722  18.258  0.00  0.00    +0.000 A 
ATOM      3  C   UNL     1       1.691   8.895  17.683  0.00  0.00    +0.000 A 
ATOM      4  C   UNL     1       1.135   9.887  18.487  0.00  0.00    +0.000 A 
ATOM      5  C   UNL     1       1.058   9.721  19.876  0.00  0.00    +0.000 A 
ATOM      6  C   UNL     1       1.544   8.525  20.440  0.00  0.00    +0.000 A 
ENDROOT
BRANCH   5   7
ATOM      7  C   UNL     1       0.488  10.762  20.730  0.00  0.00    +0.000 A 
ATOM      8  N   UNL     1       0.954  11.969  21.004  0.00  0.00    +0.000 NA
ATOM      9  C   UNL     1       0.014  12.488  21.851  0.00  0.00    +0.000 A 
ATOM     10  N   UNL     1       0.029  13.714  22.423  0.00  0.00    +0.000 NA
ATOM     11  C   UNL     1      -1.038  13.952  23.226  0.00  0.00    +0.000 A 
ATOM     12  C   UNL     1      -2.085  13.064  23.482  0.00  0.00    +0.000 A 
ATOM     13  C   UNL     1      -2.088  11.805  22.884  0.00  0.00    +0.000 A 
ATOM     14  C   UNL     1      -0.997  11.567  22.066  0.00  0.00    +0.000 A 
ATOM     15  O   UNL     1      -0.704  10.451  21.347  0.00  0.00    +0.000 OA
ENDBRANCH   5   7
BRANCH   1  18
ATOM     16  O   UNL     1       1.164   4.752  19.277  0.00  0.00    +0.000 OA
ATOM     17  C   UNL     1       2.002   5.070  20.123  0.00  0.00    +0.000 C 
ATOM     18  N   UNL     1       2.549   6.335  20.265  0.00  0.00    +0.000 N 
ATOM     19  H   UNL     1       3.337   6.415  20.898  0.00  0.00    +0.000 HD
BRANCH  17  20
ATOM     20  C   UNL     1       2.587   3.991  21.023  0.00  0.00    +0.000 C 
BRANCH  20  21
ATOM     21  S   UNL     1       3.188   2.530  20.113  0.00  0.00    +0.000 S 
BRANCH  21  22
ATOM     22  C   UNL     1       4.149   3.358  18.857  0.00  0.00    +0.000 A 
ATOM     23  C   UNL     1       5.277   4.116  19.196  0.00  0.00    +0.000 A 
ATOM     24  C   UNL     1       6.010   4.770  18.199  0.00  0.00    +0.000 A 
ATOM     25  C   UNL     1       5.620   4.665  16.867  0.00  0.00    +0.000 A 
ATOM     26 CL   UNL     1       6.516   5.482  15.647  0.00  0.00    +0.000 Cl
ATOM     27  C   UNL     1       4.511   3.900  16.518  0.00  0.00    +0.000 A 
ATOM     28  C   UNL     1       3.778   3.242  17.513  0.00  0.00    +0.000 A 
ENDBRANCH  21  22
ENDBRANCH  20  21
ENDBRANCH  17  20
ENDBRANCH   1  18
TORSDOF 5
ENDMDL
MODEL 8
REMARK VINA RESULT:      -8.0      8.239     10.201
REMARK  Name = 
REMARK  5 active torsions:
REMARK  status: ('A' for Active; 'I' for Inactive)
REMARK    1  A    between atoms: C_2  and  C_3
REMARK    2  A    between atoms: C_3  and  S_4
REMARK    3  A    between atoms: S_4  and  C_5
REMARK    4  A    between atoms: N_12  and  C_13
REMARK    5  A    between atoms: C_17  and  C_18
REMARK                            x       y       z     vdW  Elec       q    Type
REMARK                         _______ _______ _______ _____ _____    ______ ____
ROOT
ATOM      1  C   UNL     1       0.925   9.810  20.142  0.00  0.00    +0.000 A 
ATOM      2  C   UNL     1       1.110  10.345  18.866  0.00  0.00    +0.000 A 
ATOM      3  C   UNL     1       1.742   9.604  17.868  0.00  0.00    +0.000 A 
ATOM      4  C   UNL     1       2.187   8.312  18.136  0.00  0.00    +0.000 A 
ATOM      5  C   UNL     1       2.009   7.743  19.404  0.00  0.00    +0.000 A 
ATOM      6  C   UNL     1       1.381   8.510  20.405  0.00  0.00    +0.000 A 
ENDROOT
BRANCH   5   7
ATOM      7  C   UNL     1       2.462   6.382  19.692  0.00  0.00    +0.000 A 
ATOM      8  N   UNL     1       3.442   5.691  19.135  0.00  0.00    +0.000 NA
ATOM      9  C   UNL     1       3.401   4.494  19.796  0.00  0.00    +0.000 A 
ATOM     10  N   UNL     1       4.211   3.429  19.591  0.00  0.00    +0.000 NA
ATOM     11  C   UNL     1       3.930   2.372  20.393  0.00  0.00    +0.000 A 
ATOM     12  C   UNL     1       2.922   2.319  21.358  0.00  0.00    +0.000 A 
ATOM     13  C   UNL     1       2.097   3.426  21.559  0.00  0.00    +0.000 A 
ATOM     14  C   UNL     1       2.386   4.501  20.737  0.00  0.00    +0.000 A 
ATOM     15  O   UNL     1       1.775   5.714  20.681  0.00  0.00    +0.000 OA
ENDBRANCH   5   7
BRANCH   1  18
ATOM     16  O   UNL     1      -0.708   8.840  22.399  0.00  0.00    +0.000 OA
ATOM     17  C   UNL     1      -0.506  10.036  22.183  0.00  0.00    +0.000 C 
ATOM     18  N   UNL     1       0.331  10.536  21.199  0.00  0.00    +0.000 N 
ATOM     19  H   UNL     1       0.522  11.532  21.235  0.00  0.00    +0.000 HD
BRANCH  17  20
ATOM     20  C   UNL     1      -1.117  11.069  23.120  0.00  0.00    +0.000 C 
BRANCH  20  21
ATOM     21  S   UNL     1      -1.563  12.630  22.291  0.00  0.00    +0.000 S 
BRANCH  21  22
ATOM     22  C   UNL     1      -3.264  12.751  22.817  0.00  0.00    +0.000 A 
ATOM     23  C   UNL     1      -3.634  12.455  24.134  0.00  0.00    +0.000 A 
ATOM     24  C   UNL     1      -4.975  12.542  24.526  0.00  0.00    +0.000 A 
ATOM     25  C   UNL     1      -5.945  12.926  23.603  0.00  0.00    +0.000 A 
ATOM     26 CL   UNL     1      -7.594  13.017  24.085  0.00  0.00    +0.000 Cl
ATOM     27  C   UNL     1      -5.586  13.239  22.296  0.00  0.00    +0.000 A 
ATOM     28  C   UNL     1      -4.244  13.156  21.904  0.00  0.00    +0.000 A 
ENDBRANCH  21  22
ENDBRANCH  20  21
ENDBRANCH  17  20
ENDBRANCH   1  18
TORSDOF 5
ENDMDL
MODEL 9
REMARK VINA RESULT:      -7.9      6.086      8.639
REMARK  Name = 
REMARK  5 active torsions:
REMARK  status: ('A' for Active; 'I' for Inactive)
REMARK    1  A    between atoms: C_2  and  C_3
REMARK    2  A    between atoms: C_3  and  S_4
REMARK    3  A    between atoms: S_4  and  C_5
REMARK    4  A    between atoms: N_12  and  C_13
REMARK    5  A    between atoms: C_17  and  C_18
REMARK                            x       y       z     vdW  Elec       q    Type
REMARK                         _______ _______ _______ _____ _____    ______ ____
ROOT
ATOM      1  C   UNL     1       3.167   5.748  19.341  0.00  0.00    +0.000 A 
ATOM      2  C   UNL     1       3.025   4.537  20.022  0.00  0.00    +0.000 A 
ATOM      3  C   UNL     1       3.633   3.377  19.544  0.00  0.00    +0.000 A 
ATOM      4  C   UNL     1       4.398   3.419  18.381  0.00  0.00    +0.000 A 
ATOM      5  C   UNL     1       4.566   4.620  17.679  0.00  0.00    +0.000 A 
ATOM      6  C   UNL     1       3.935   5.781  18.168  0.00  0.00    +0.000 A 
ENDROOT
BRANCH   5   7
ATOM      7  C   UNL     1       5.377   4.677  16.464  0.00  0.00    +0.000 A 
ATOM      8  N   UNL     1       6.478   5.371  16.224  0.00  0.00    +0.000 NA
ATOM      9  C   UNL     1       6.788   5.036  14.935  0.00  0.00    +0.000 A 
ATOM     10  N   UNL     1       7.841   5.487  14.213  0.00  0.00    +0.000 NA
ATOM     11  C   UNL     1       7.891   4.985  12.954  0.00  0.00    +0.000 A 
ATOM     12  C   UNL     1       6.981   4.087  12.393  0.00  0.00    +0.000 A 
ATOM     13  C   UNL     1       5.903   3.629  13.150  0.00  0.00    +0.000 A 
ATOM     14  C   UNL     1       5.855   4.146  14.433  0.00  0.00    +0.000 A 
ATOM     15  O   UNL     1       4.942   3.904  15.410  0.00  0.00    +0.000 OA
ENDBRANCH   5   7
BRANCH   1  18
ATOM     16  O   UNL     1       1.847   7.838  17.730  0.00  0.00    +0.000 OA
ATOM     17  C   UNL     1       2.013   7.934  18.946  0.00  0.00    +0.000 C 
ATOM     18  N   UNL     1       2.535   6.941  19.759  0.00  0.00    +0.000 N 
ATOM     19  H   UNL     1       2.470   7.099  20.760  0.00  0.00    +0.000 HD
BRANCH  17  20
ATOM     20  C   UNL     1       1.512   9.181  19.662  0.00  0.00    +0.000 C 
BRANCH  20  21
ATOM     21  S   UNL     1       1.452  10.658  18.595  0.00  0.00    +0.000 S 
BRANCH  21  22
ATOM     22  C   UNL     1      -0.319  10.830  18.453  0.00  0.00    +0.000 A 
ATOM     23  C   UNL     1      -1.002  11.840  19.142  0.00  0.00    +0.000 A 
ATOM     24  C   UNL     1      -2.392  11.951  19.030  0.00  0.00    +0.000 A 
ATOM     25  C   UNL     1      -3.099  11.057  18.230  0.00  0.00    +0.000 A 
ATOM     26 CL   UNL     1      -4.810  11.190  18.107  0.00  0.00    +0.000 Cl
ATOM     27  C   UNL     1      -2.428  10.061  17.527  0.00  0.00    +0.000 A 
ATOM     28  C   UNL     1      -1.037   9.950  17.635  0.00  0.00    +0.000 A 
ENDBRANCH  21  22
ENDBRANCH  20  21
ENDBRANCH  17  20
ENDBRANCH   1  18
TORSDOF 5
ENDMDL
