MODEL 1
REMARK VINA RESULT:      -6.9      0.000      0.000
REMARK  Name = 
REMARK  7 active torsions:
REMARK  status: ('A' for Active; 'I' for Inactive)
REMARK    1  A    between atoms: N_1  and  S_2
REMARK    2  A    between atoms: S_2  and  C_5
REMARK    3  A    between atoms: C_8  and  N_9
REMARK    4  A    between atoms: N_9  and  C_10
REMARK    5  A    between atoms: C_13  and  O_14
REMARK    6  A    between atoms: C_15  and  O_16
REMARK    7  A    between atoms: C_17  and  O_18
REMARK                            x       y       z     vdW  Elec       q    Type
REMARK                         _______ _______ _______ _____ _____    ______ ____
ROOT
ATOM      1  N   UNL     1       3.667   5.555  18.537  0.00  0.00    +0.000 N 
ATOM      2  H   UNL     1       3.335   4.605  18.661  0.00  0.00    +0.000 HD
ENDROOT
BRANCH   1   6
ATOM      3  C   UNL     1       1.277   8.598  20.140  0.00  0.00    +0.000 A 
ATOM      4  C   UNL     1       1.813   8.769  18.863  0.00  0.00    +0.000 A 
ATOM      5  C   UNL     1       2.607   7.756  18.307  0.00  0.00    +0.000 A 
ATOM      6  C   UNL     1       2.851   6.564  19.000  0.00  0.00    +0.000 A 
ATOM      7  C   UNL     1       2.305   6.431  20.285  0.00  0.00    +0.000 A 
ATOM      8  C   UNL     1       1.537   7.435  20.862  0.00  0.00    +0.000 A 
BRANCH   3   9
ATOM      9  S   UNL     1       0.214   9.820  20.836  0.00  0.00    +0.000 S 
ATOM     10  O   UNL     1      -0.831  10.136  19.892  0.00  0.00    +0.000 OA
ATOM     11  O   UNL     1       1.009  10.835  21.488  0.00  0.00    +0.000 OA
BRANCH   9  12
ATOM     12  N   UNL     1      -0.511   8.968  22.091  0.00  0.00    +0.000 NA
ATOM     13  H   UNL     1      -1.505   9.208  22.128  0.00  0.00    +0.000 HD
ATOM     14  H   UNL     1      -0.016   9.139  22.965  0.00  0.00    +0.000 HD
ENDBRANCH   9  12
ENDBRANCH   3   9
ENDBRANCH   1   6
BRANCH   1  15
ATOM     15  C   UNL     1       4.831   5.725  17.700  0.00  0.00    +0.000 C 
ATOM     16  O   UNL     1       4.505   5.359  16.365  0.00  0.00    +0.000 OA
ATOM     17  C   UNL     1       5.603   5.540  15.475  0.00  0.00    +0.000 C 
ATOM     18  C   UNL     1       6.782   4.645  15.854  0.00  0.00    +0.000 C 
ATOM     19  C   UNL     1       7.195   4.919  17.309  0.00  0.00    +0.000 C 
ATOM     20  C   UNL     1       5.979   4.826  18.244  0.00  0.00    +0.000 C 
BRANCH  18  21
ATOM     21  O   UNL     1       7.858   4.862  14.943  0.00  0.00    +0.000 OA
ATOM     22  H   UNL     1       8.698   4.647  15.387  0.00  0.00    +0.000 HD
ENDBRANCH  18  21
BRANCH  19  23
ATOM     23  O   UNL     1       8.235   4.017  17.704  0.00  0.00    +0.000 OA
ATOM     24  H   UNL     1       8.519   3.509  16.922  0.00  0.00    +0.000 HD
ENDBRANCH  19  23
BRANCH  20  25
ATOM     25  O   UNL     1       6.359   5.170  19.586  0.00  0.00    +0.000 OA
ATOM     26  H   UNL     1       5.991   4.506  20.193  0.00  0.00    +0.000 HD
ENDBRANCH  20  25
ENDBRANCH   1  15
TORSDOF 7
ENDMDL
MODEL 2
REMARK VINA RESULT:      -6.8      2.889      3.558
REMARK  Name = 
REMARK  7 active torsions:
REMARK  status: ('A' for Active; 'I' for Inactive)
REMARK    1  A    between atoms: N_1  and  S_2
REMARK    2  A    between atoms: S_2  and  C_5
REMARK    3  A    between atoms: C_8  and  N_9
REMARK    4  A    between atoms: N_9  and  C_10
REMARK    5  A    between atoms: C_13  and  O_14
REMARK    6  A    between atoms: C_15  and  O_16
REMARK    7  A    between atoms: C_17  and  O_18
REMARK                            x       y       z     vdW  Elec       q    Type
REMARK                         _______ _______ _______ _____ _____    ______ ____
ROOT
ATOM      1  N   UNL     1       2.725   6.647  19.993  0.00  0.00    +0.000 N 
ATOM      2  H   UNL     1       3.127   6.625  20.923  0.00  0.00    +0.000 HD
ENDROOT
BRANCH   1   6
ATOM      3  C   UNL     1       0.562  10.135  19.162  0.00  0.00    +0.000 A 
ATOM      4  C   UNL     1       1.287   9.534  18.132  0.00  0.00    +0.000 A 
ATOM      5  C   UNL     1       2.008   8.361  18.390  0.00  0.00    +0.000 A 
ATOM      6  C   UNL     1       1.994   7.765  19.657  0.00  0.00    +0.000 A 
ATOM      7  C   UNL     1       1.264   8.402  20.671  0.00  0.00    +0.000 A 
ATOM      8  C   UNL     1       0.563   9.580  20.440  0.00  0.00    +0.000 A 
BRANCH   3   9
ATOM      9  S   UNL     1      -0.415  11.569  18.852  0.00  0.00    +0.000 S 
ATOM     10  O   UNL     1       0.451  12.665  18.488  0.00  0.00    +0.000 OA
ATOM     11  O   UNL     1      -1.435  11.686  19.868  0.00  0.00    +0.000 OA
BRANCH   9  12
ATOM     12  N   UNL     1      -1.242  11.126  17.458  0.00  0.00    +0.000 NA
ATOM     13  H   UNL     1      -1.805  10.293  17.652  0.00  0.00    +0.000 HD
ATOM     14  H   UNL     1      -0.590  11.006  16.684  0.00  0.00    +0.000 HD
ENDBRANCH   9  12
ENDBRANCH   3   9
ENDBRANCH   1   6
BRANCH   1  15
ATOM     15  C   UNL     1       2.784   5.417  19.239  0.00  0.00    +0.000 C 
ATOM     16  O   UNL     1       1.609   4.657  19.490  0.00  0.00    +0.000 OA
ATOM     17  C   UNL     1       1.585   3.443  18.744  0.00  0.00    +0.000 C 
ATOM     18  C   UNL     1       2.741   2.524  19.135  0.00  0.00    +0.000 C 
ATOM     19  C   UNL     1       4.076   3.263  18.950  0.00  0.00    +0.000 C 
ATOM     20  C   UNL     1       4.049   4.619  19.672  0.00  0.00    +0.000 C 
BRANCH  18  21
ATOM     21  O   UNL     1       2.682   1.326  18.362  0.00  0.00    +0.000 OA
ATOM     22  H   UNL     1       3.342   0.696  18.702  0.00  0.00    +0.000 HD
ENDBRANCH  18  21
BRANCH  19  23
ATOM     23  O   UNL     1       5.159   2.444  19.407  0.00  0.00    +0.000 OA
ATOM     24  H   UNL     1       4.871   1.513  19.395  0.00  0.00    +0.000 HD
ENDBRANCH  19  23
BRANCH  20  25
ATOM     25  O   UNL     1       5.266   5.338  19.420  0.00  0.00    +0.000 OA
ATOM     26  H   UNL     1       5.311   6.096  20.027  0.00  0.00    +0.000 HD
ENDBRANCH  20  25
ENDBRANCH   1  15
TORSDOF 7
ENDMDL
MODEL 3
REMARK VINA RESULT:      -6.8      0.156      1.088
REMARK  Name = 
REMARK  7 active torsions:
REMARK  status: ('A' for Active; 'I' for Inactive)
REMARK    1  A    between atoms: N_1  and  S_2
REMARK    2  A    between atoms: S_2  and  C_5
REMARK    3  A    between atoms: C_8  and  N_9
REMARK    4  A    between atoms: N_9  and  C_10
REMARK    5  A    between atoms: C_13  and  O_14
REMARK    6  A    between atoms: C_15  and  O_16
REMARK    7  A    between atoms: C_17  and  O_18
REMARK                            x       y       z     vdW  Elec       q    Type
REMARK                         _______ _______ _______ _____ _____    ______ ____
ROOT
ATOM      1  N   UNL     1       3.624   5.580  18.595  0.00  0.00    +0.000 N 
ATOM      2  H   UNL     1       3.253   4.636  18.606  0.00  0.00    +0.000 HD
ENDROOT
BRANCH   1   6
ATOM      3  C   UNL     1       1.200   8.593  20.201  0.00  0.00    +0.000 A 
ATOM      4  C   UNL     1       1.397   7.426  20.940  0.00  0.00    +0.000 A 
ATOM      5  C   UNL     1       2.214   6.412  20.423  0.00  0.00    +0.000 A 
ATOM      6  C   UNL     1       2.856   6.558  19.187  0.00  0.00    +0.000 A 
ATOM      7  C   UNL     1       2.626   7.739  18.466  0.00  0.00    +0.000 A 
ATOM      8  C   UNL     1       1.799   8.745  18.953  0.00  0.00    +0.000 A 
BRANCH   3   9
ATOM      9  S   UNL     1       0.239   9.918  20.857  0.00  0.00    +0.000 S 
ATOM     10  O   UNL     1      -0.815  10.246  19.927  0.00  0.00    +0.000 OA
ATOM     11  O   UNL     1       1.117  10.915  21.424  0.00  0.00    +0.000 OA
BRANCH   9  12
ATOM     12  N   UNL     1      -0.496   9.186  22.179  0.00  0.00    +0.000 NA
ATOM     13  H   UNL     1      -1.170   8.492  21.847  0.00  0.00    +0.000 HD
ATOM     14  H   UNL     1      -0.904   9.893  22.791  0.00  0.00    +0.000 HD
ENDBRANCH   9  12
ENDBRANCH   3   9
ENDBRANCH   1   6
BRANCH   1  15
ATOM     15  C   UNL     1       4.789   5.801  17.770  0.00  0.00    +0.000 C 
ATOM     16  O   UNL     1       4.460   5.531  16.413  0.00  0.00    +0.000 OA
ATOM     17  C   UNL     1       5.558   5.767  15.537  0.00  0.00    +0.000 C 
ATOM     18  C   UNL     1       6.733   4.842  15.852  0.00  0.00    +0.000 C 
ATOM     19  C   UNL     1       7.148   5.014  17.322  0.00  0.00    +0.000 C 
ATOM     20  C   UNL     1       5.933   4.862  18.250  0.00  0.00    +0.000 C 
BRANCH  18  21
ATOM     21  O   UNL     1       7.810   5.117  14.956  0.00  0.00    +0.000 OA
ATOM     22  H   UNL     1       7.757   4.505  14.201  0.00  0.00    +0.000 HD
ENDBRANCH  18  21
BRANCH  19  23
ATOM     23  O   UNL     1       8.185   4.082  17.653  0.00  0.00    +0.000 OA
ATOM     24  H   UNL     1       8.744   4.474  18.349  0.00  0.00    +0.000 HD
ENDBRANCH  19  23
BRANCH  20  25
ATOM     25  O   UNL     1       6.316   5.111  19.611  0.00  0.00    +0.000 OA
ATOM     26  H   UNL     1       7.283   5.033  19.681  0.00  0.00    +0.000 HD
ENDBRANCH  20  25
ENDBRANCH   1  15
TORSDOF 7
ENDMDL
MODEL 4
REMARK VINA RESULT:      -6.8      0.943      1.176
REMARK  Name = 
REMARK  7 active torsions:
REMARK  status: ('A' for Active; 'I' for Inactive)
REMARK    1  A    between atoms: N_1  and  S_2
REMARK    2  A    between atoms: S_2  and  C_5
REMARK    3  A    between atoms: C_8  and  N_9
REMARK    4  A    between atoms: N_9  and  C_10
REMARK    5  A    between atoms: C_13  and  O_14
REMARK    6  A    between atoms: C_15  and  O_16
REMARK    7  A    between atoms: C_17  and  O_18
REMARK                            x       y       z     vdW  Elec       q    Type
REMARK                         _______ _______ _______ _____ _____    ______ ____
ROOT
ATOM      1  N   UNL     1       3.796   5.826  18.740  0.00  0.00    +0.000 N 
ATOM      2  H   UNL     1       3.553   4.897  19.064  0.00  0.00    +0.000 HD
ENDROOT
BRANCH   1   6
ATOM      3  C   UNL     1       1.136   8.898  19.750  0.00  0.00    +0.000 A 
ATOM      4  C   UNL     1       1.752   8.929  18.499  0.00  0.00    +0.000 A 
ATOM      5  C   UNL     1       2.637   7.904  18.140  0.00  0.00    +0.000 A 
ATOM      6  C   UNL     1       2.896   6.834  19.005  0.00  0.00    +0.000 A 
ATOM      7  C   UNL     1       2.268   6.841  20.259  0.00  0.00    +0.000 A 
ATOM      8  C   UNL     1       1.407   7.862  20.642  0.00  0.00    +0.000 A 
BRANCH   3   9
ATOM      9  S   UNL     1      -0.038  10.132  20.202  0.00  0.00    +0.000 S 
ATOM     10  O   UNL     1      -0.367   9.987  21.600  0.00  0.00    +0.000 OA
ATOM     11  O   UNL     1      -1.046  10.239  19.172  0.00  0.00    +0.000 OA
BRANCH   9  12
ATOM     12  N   UNL     1       0.872  11.538  20.065  0.00  0.00    +0.000 NA
ATOM     13  H   UNL     1       1.199  11.633  19.100  0.00  0.00    +0.000 HD
ATOM     14  H   UNL     1       1.624  11.540  20.753  0.00  0.00    +0.000 HD
ENDBRANCH   9  12
ENDBRANCH   3   9
ENDBRANCH   1   6
BRANCH   1  15
ATOM     15  C   UNL     1       4.935   5.919  17.856  0.00  0.00    +0.000 C 
ATOM     16  O   UNL     1       4.537   5.557  16.539  0.00  0.00    +0.000 OA
ATOM     17  C   UNL     1       5.608   5.665  15.606  0.00  0.00    +0.000 C 
ATOM     18  C   UNL     1       6.748   4.708  15.952  0.00  0.00    +0.000 C 
ATOM     19  C   UNL     1       7.232   4.975  17.385  0.00  0.00    +0.000 C 
ATOM     20  C   UNL     1       6.051   4.962  18.368  0.00  0.00    +0.000 C 
BRANCH  18  21
ATOM     21  O   UNL     1       7.798   4.853  14.996  0.00  0.00    +0.000 OA
ATOM     22  H   UNL     1       7.408   4.982  14.113  0.00  0.00    +0.000 HD
ENDBRANCH  18  21
BRANCH  19  23
ATOM     23  O   UNL     1       8.234   4.019  17.753  0.00  0.00    +0.000 OA
ATOM     24  H   UNL     1       8.276   3.972  18.725  0.00  0.00    +0.000 HD
ENDBRANCH  19  23
BRANCH  20  25
ATOM     25  O   UNL     1       6.502   5.299  19.689  0.00  0.00    +0.000 OA
ATOM     26  H   UNL     1       6.066   4.708  20.327  0.00  0.00    +0.000 HD
ENDBRANCH  20  25
ENDBRANCH   1  15
TORSDOF 7
ENDMDL
MODEL 5
REMARK VINA RESULT:      -6.7      2.911      3.728
REMARK  Name = 
REMARK  7 active torsions:
REMARK  status: ('A' for Active; 'I' for Inactive)
REMARK    1  A    between atoms: N_1  and  S_2
REMARK    2  A    between atoms: S_2  and  C_5
REMARK    3  A    between atoms: C_8  and  N_9
REMARK    4  A    between atoms: N_9  and  C_10
REMARK    5  A    between atoms: C_13  and  O_14
REMARK    6  A    between atoms: C_15  and  O_16
REMARK    7  A    between atoms: C_17  and  O_18
REMARK                            x       y       z     vdW  Elec       q    Type
REMARK                         _______ _______ _______ _____ _____    ______ ____
ROOT
ATOM      1  N   UNL     1       2.689   6.634  20.188  0.00  0.00    +0.000 N 
ATOM      2  H   UNL     1       3.136   6.561  21.094  0.00  0.00    +0.000 HD
ENDROOT
BRANCH   1   6
ATOM      3  C   UNL     1       0.391  10.011  19.264  0.00  0.00    +0.000 A 
ATOM      4  C   UNL     1       0.317   9.482  20.553  0.00  0.00    +0.000 A 
ATOM      5  C   UNL     1       1.087   8.359  20.882  0.00  0.00    +0.000 A 
ATOM      6  C   UNL     1       1.949   7.771  19.948  0.00  0.00    +0.000 A 
ATOM      7  C   UNL     1       1.990   8.322  18.659  0.00  0.00    +0.000 A 
ATOM      8  C   UNL     1       1.215   9.421  18.307  0.00  0.00    +0.000 A 
BRANCH   3   9
ATOM      9  S   UNL     1      -0.507  11.467  18.839  0.00  0.00    +0.000 S 
ATOM     10  O   UNL     1       0.423  12.519  18.505  0.00  0.00    +0.000 OA
ATOM     11  O   UNL     1      -1.591  11.654  19.775  0.00  0.00    +0.000 OA
BRANCH   9  12
ATOM     12  N   UNL     1      -1.249  11.006  17.404  0.00  0.00    +0.000 NA
ATOM     13  H   UNL     1      -1.026  10.026  17.211  0.00  0.00    +0.000 HD
ATOM     14  H   UNL     1      -0.987  11.642  16.651  0.00  0.00    +0.000 HD
ENDBRANCH   9  12
ENDBRANCH   3   9
ENDBRANCH   1   6
BRANCH   1  15
ATOM     15  C   UNL     1       2.705   5.446  19.367  0.00  0.00    +0.000 C 
ATOM     16  O   UNL     1       1.538   4.678  19.632  0.00  0.00    +0.000 OA
ATOM     17  C   UNL     1       1.471   3.505  18.825  0.00  0.00    +0.000 C 
ATOM     18  C   UNL     1       2.639   2.563  19.111  0.00  0.00    +0.000 C 
ATOM     19  C   UNL     1       3.968   3.306  18.902  0.00  0.00    +0.000 C 
ATOM     20  C   UNL     1       3.984   4.622  19.696  0.00  0.00    +0.000 C 
BRANCH  18  21
ATOM     21  O   UNL     1       2.536   1.409  18.278  0.00  0.00    +0.000 OA
ATOM     22  H   UNL     1       2.271   0.647  18.824  0.00  0.00    +0.000 HD
ENDBRANCH  18  21
BRANCH  19  23
ATOM     23  O   UNL     1       5.067   2.460  19.262  0.00  0.00    +0.000 OA
ATOM     24  H   UNL     1       5.849   3.019  19.421  0.00  0.00    +0.000 HD
ENDBRANCH  19  23
BRANCH  20  25
ATOM     25  O   UNL     1       5.192   5.349  19.424  0.00  0.00    +0.000 OA
ATOM     26  H   UNL     1       5.721   5.389  20.240  0.00  0.00    +0.000 HD
ENDBRANCH  20  25
ENDBRANCH   1  15
TORSDOF 7
ENDMDL
MODEL 6
REMARK VINA RESULT:      -6.7      1.281      1.764
REMARK  Name = 
REMARK  7 active torsions:
REMARK  status: ('A' for Active; 'I' for Inactive)
REMARK    1  A    between atoms: N_1  and  S_2
REMARK    2  A    between atoms: S_2  and  C_5
REMARK    3  A    between atoms: C_8  and  N_9
REMARK    4  A    between atoms: N_9  and  C_10
REMARK    5  A    between atoms: C_13  and  O_14
REMARK    6  A    between atoms: C_15  and  O_16
REMARK    7  A    between atoms: C_17  and  O_18
REMARK                            x       y       z     vdW  Elec       q    Type
REMARK                         _______ _______ _______ _____ _____    ______ ____
ROOT
ATOM      1  N   UNL     1       3.764   6.033  18.605  0.00  0.00    +0.000 N 
ATOM      2  H   UNL     1       3.434   5.122  18.904  0.00  0.00    +0.000 HD
ENDROOT
BRANCH   1   6
ATOM      3  C   UNL     1       1.192   9.287  19.177  0.00  0.00    +0.000 A 
ATOM      4  C   UNL     1       1.334   8.355  20.206  0.00  0.00    +0.000 A 
ATOM      5  C   UNL     1       2.198   7.266  20.036  0.00  0.00    +0.000 A 
ATOM      6  C   UNL     1       2.942   7.108  18.860  0.00  0.00    +0.000 A 
ATOM      7  C   UNL     1       2.767   8.057  17.843  0.00  0.00    +0.000 A 
ATOM      8  C   UNL     1       1.895   9.130  17.985  0.00  0.00    +0.000 A 
BRANCH   3   9
ATOM      9  S   UNL     1       0.170  10.708  19.389  0.00  0.00    +0.000 S 
ATOM     10  O   UNL     1       0.993  11.894  19.357  0.00  0.00    +0.000 OA
ATOM     11  O   UNL     1      -0.794  10.457  20.434  0.00  0.00    +0.000 OA
BRANCH   9  12
ATOM     12  N   UNL     1      -0.724  10.703  17.966  0.00  0.00    +0.000 NA
ATOM     13  H   UNL     1      -1.533  10.088  18.081  0.00  0.00    +0.000 HD
ATOM     14  H   UNL     1      -0.128  10.452  17.177  0.00  0.00    +0.000 HD
ENDBRANCH   9  12
ENDBRANCH   3   9
ENDBRANCH   1   6
BRANCH   1  15
ATOM     15  C   UNL     1       4.936   6.044  17.761  0.00  0.00    +0.000 C 
ATOM     16  O   UNL     1       4.564   5.681  16.437  0.00  0.00    +0.000 OA
ATOM     17  C   UNL     1       5.671   5.710  15.540  0.00  0.00    +0.000 C 
ATOM     18  C   UNL     1       6.742   4.697  15.943  0.00  0.00    +0.000 C 
ATOM     19  C   UNL     1       7.191   4.964  17.388  0.00  0.00    +0.000 C 
ATOM     20  C   UNL     1       5.977   5.036  18.328  0.00  0.00    +0.000 C 
BRANCH  18  21
ATOM     21  O   UNL     1       7.831   4.765  15.024  0.00  0.00    +0.000 OA
ATOM     22  H   UNL     1       8.290   3.905  15.013  0.00  0.00    +0.000 HD
ENDBRANCH  18  21
BRANCH  19  23
ATOM     23  O   UNL     1       8.124   3.961  17.807  0.00  0.00    +0.000 OA
ATOM     24  H   UNL     1       7.804   3.568  18.640  0.00  0.00    +0.000 HD
ENDBRANCH  19  23
BRANCH  20  25
ATOM     25  O   UNL     1       6.401   5.373  19.659  0.00  0.00    +0.000 OA
ATOM     26  H   UNL     1       7.373   5.354  19.689  0.00  0.00    +0.000 HD
ENDBRANCH  20  25
ENDBRANCH   1  15
TORSDOF 7
ENDMDL
MODEL 7
REMARK VINA RESULT:      -6.7      1.099      1.128
REMARK  Name = 
REMARK  7 active torsions:
REMARK  status: ('A' for Active; 'I' for Inactive)
REMARK    1  A    between atoms: N_1  and  S_2
REMARK    2  A    between atoms: S_2  and  C_5
REMARK    3  A    between atoms: C_8  and  N_9
REMARK    4  A    between atoms: N_9  and  C_10
REMARK    5  A    between atoms: C_13  and  O_14
REMARK    6  A    between atoms: C_15  and  O_16
REMARK    7  A    between atoms: C_17  and  O_18
REMARK                            x       y       z     vdW  Elec       q    Type
REMARK                         _______ _______ _______ _____ _____    ______ ____
ROOT
ATOM      1  N   UNL     1       3.566   6.000  18.570  0.00  0.00    +0.000 N 
ATOM      2  H   UNL     1       3.235   5.081  18.840  0.00  0.00    +0.000 HD
ENDROOT
BRANCH   1   6
ATOM      3  C   UNL     1       1.104   9.247  19.538  0.00  0.00    +0.000 A 
ATOM      4  C   UNL     1       1.665   9.188  18.261  0.00  0.00    +0.000 A 
ATOM      5  C   UNL     1       2.482   8.103  17.917  0.00  0.00    +0.000 A 
ATOM      6  C   UNL     1       2.728   7.064  18.823  0.00  0.00    +0.000 A 
ATOM      7  C   UNL     1       2.158   7.162  20.100  0.00  0.00    +0.000 A 
ATOM      8  C   UNL     1       1.365   8.242  20.467  0.00  0.00    +0.000 A 
BRANCH   3   9
ATOM      9  S   UNL     1       0.011  10.558  19.977  0.00  0.00    +0.000 S 
ATOM     10  O   UNL     1       0.598  11.817  19.585  0.00  0.00    +0.000 OA
ATOM     11  O   UNL     1      -0.517  10.323  21.301  0.00  0.00    +0.000 OA
BRANCH   9  12
ATOM     12  N   UNL     1      -1.283  10.287  18.941  0.00  0.00    +0.000 NA
ATOM     13  H   UNL     1      -2.040  10.936  19.173  0.00  0.00    +0.000 HD
ATOM     14  H   UNL     1      -1.561   9.307  18.972  0.00  0.00    +0.000 HD
ENDBRANCH   9  12
ENDBRANCH   3   9
ENDBRANCH   1   6
BRANCH   1  15
ATOM     15  C   UNL     1       4.762   6.039  17.761  0.00  0.00    +0.000 C 
ATOM     16  O   UNL     1       4.441   5.650  16.432  0.00  0.00    +0.000 OA
ATOM     17  C   UNL     1       5.574   5.703  15.568  0.00  0.00    +0.000 C 
ATOM     18  C   UNL     1       6.662   4.728  16.015  0.00  0.00    +0.000 C 
ATOM     19  C   UNL     1       7.059   5.024  17.469  0.00  0.00    +0.000 C 
ATOM     20  C   UNL     1       5.816   5.069  18.372  0.00  0.00    +0.000 C 
BRANCH  18  21
ATOM     21  O   UNL     1       7.776   4.819  15.127  0.00  0.00    +0.000 OA
ATOM     22  H   UNL     1       7.614   4.246  14.356  0.00  0.00    +0.000 HD
ENDBRANCH  18  21
BRANCH  19  23
ATOM     23  O   UNL     1       8.008   4.054  17.928  0.00  0.00    +0.000 OA
ATOM     24  H   UNL     1       8.905   4.421  17.818  0.00  0.00    +0.000 HD
ENDBRANCH  19  23
BRANCH  20  25
ATOM     25  O   UNL     1       6.189   5.433  19.710  0.00  0.00    +0.000 OA
ATOM     26  H   UNL     1       7.149   5.583  19.735  0.00  0.00    +0.000 HD
ENDBRANCH  20  25
ENDBRANCH   1  15
TORSDOF 7
ENDMDL
MODEL 8
REMARK VINA RESULT:      -6.6      2.868      3.441
REMARK  Name = 
REMARK  7 active torsions:
REMARK  status: ('A' for Active; 'I' for Inactive)
REMARK    1  A    between atoms: N_1  and  S_2
REMARK    2  A    between atoms: S_2  and  C_5
REMARK    3  A    between atoms: C_8  and  N_9
REMARK    4  A    between atoms: N_9  and  C_10
REMARK    5  A    between atoms: C_13  and  O_14
REMARK    6  A    between atoms: C_15  and  O_16
REMARK    7  A    between atoms: C_17  and  O_18
REMARK                            x       y       z     vdW  Elec       q    Type
REMARK                         _______ _______ _______ _____ _____    ______ ____
ROOT
ATOM      1  N   UNL     1       2.735   6.638  19.985  0.00  0.00    +0.000 N 
ATOM      2  H   UNL     1       3.125   6.617  20.921  0.00  0.00    +0.000 HD
ENDROOT
BRANCH   1   6
ATOM      3  C   UNL     1       0.603  10.135  19.113  0.00  0.00    +0.000 A 
ATOM      4  C   UNL     1       1.329   9.521  18.093  0.00  0.00    +0.000 A 
ATOM      5  C   UNL     1       2.040   8.344  18.364  0.00  0.00    +0.000 A 
ATOM      6  C   UNL     1       2.015   7.759  19.636  0.00  0.00    +0.000 A 
ATOM      7  C   UNL     1       1.284   8.410  20.641  0.00  0.00    +0.000 A 
ATOM      8  C   UNL     1       0.594   9.591  20.396  0.00  0.00    +0.000 A 
BRANCH   3   9
ATOM      9  S   UNL     1      -0.361  11.575  18.786  0.00  0.00    +0.000 S 
ATOM     10  O   UNL     1      -1.446  11.228  17.899  0.00  0.00    +0.000 OA
ATOM     11  O   UNL     1       0.516  12.697  18.545  0.00  0.00    +0.000 OA
BRANCH   9  12
ATOM     12  N   UNL     1      -1.046  11.877  20.291  0.00  0.00    +0.000 NA
ATOM     13  H   UNL     1      -1.010  11.024  20.853  0.00  0.00    +0.000 HD
ATOM     14  H   UNL     1      -1.987  12.254  20.180  0.00  0.00    +0.000 HD
ENDBRANCH   9  12
ENDBRANCH   3   9
ENDBRANCH   1   6
BRANCH   1  15
ATOM     15  C   UNL     1       2.797   5.405  19.236  0.00  0.00    +0.000 C 
ATOM     16  O   UNL     1       1.621   4.645  19.486  0.00  0.00    +0.000 OA
ATOM     17  C   UNL     1       1.600   3.428  18.744  0.00  0.00    +0.000 C 
ATOM     18  C   UNL     1       2.756   2.512  19.143  0.00  0.00    +0.000 C 
ATOM     19  C   UNL     1       4.091   3.251  18.960  0.00  0.00    +0.000 C 
ATOM     20  C   UNL     1       4.061   4.610  19.676  0.00  0.00    +0.000 C 
BRANCH  18  21
ATOM     21  O   UNL     1       2.700   1.311  18.374  0.00  0.00    +0.000 OA
ATOM     22  H   UNL     1       3.486   1.265  17.800  0.00  0.00    +0.000 HD
ENDBRANCH  18  21
BRANCH  19  23
ATOM     23  O   UNL     1       5.173   2.435  19.423  0.00  0.00    +0.000 OA
ATOM     24  H   UNL     1       4.815   1.753  20.020  0.00  0.00    +0.000 HD
ENDBRANCH  19  23
BRANCH  20  25
ATOM     25  O   UNL     1       5.279   5.329  19.425  0.00  0.00    +0.000 OA
ATOM     26  H   UNL     1       5.631   5.051  18.562  0.00  0.00    +0.000 HD
ENDBRANCH  20  25
ENDBRANCH   1  15
TORSDOF 7
ENDMDL
MODEL 9
REMARK VINA RESULT:      -6.6      2.936      7.756
REMARK  Name = 
REMARK  7 active torsions:
REMARK  status: ('A' for Active; 'I' for Inactive)
REMARK    1  A    between atoms: N_1  and  S_2
REMARK    2  A    between atoms: S_2  and  C_5
REMARK    3  A    between atoms: C_8  and  N_9
REMARK    4  A    between atoms: N_9  and  C_10
REMARK    5  A    between atoms: C_13  and  O_14
REMARK    6  A    between atoms: C_15  and  O_16
REMARK    7  A    between atoms: C_17  and  O_18
REMARK                            x       y       z     vdW  Elec       q    Type
REMARK                         _______ _______ _______ _____ _____    ______ ____
ROOT
ATOM      1  N   UNL     1       2.052   6.960  18.524  0.00  0.00    +0.000 N 
ATOM      2  H   UNL     1       1.187   6.433  18.473  0.00  0.00    +0.000 HD
ENDROOT
BRANCH   1   6
ATOM      3  C   UNL     1       5.566   5.358  16.905  0.00  0.00    +0.000 A 
ATOM      4  C   UNL     1       4.642   4.492  17.491  0.00  0.00    +0.000 A 
ATOM      5  C   UNL     1       3.456   5.010  18.029  0.00  0.00    +0.000 A 
ATOM      6  C   UNL     1       3.169   6.379  17.966  0.00  0.00    +0.000 A 
ATOM      7  C   UNL     1       4.125   7.221  17.380  0.00  0.00    +0.000 A 
ATOM      8  C   UNL     1       5.318   6.728  16.865  0.00  0.00    +0.000 A 
BRANCH   3   9
ATOM      9  S   UNL     1       7.032   4.731  16.154  0.00  0.00    +0.000 S 
ATOM     10  O   UNL     1       7.955   4.319  17.184  0.00  0.00    +0.000 OA
ATOM     11  O   UNL     1       7.419   5.590  15.059  0.00  0.00    +0.000 OA
BRANCH   9  12
ATOM     12  N   UNL     1       6.469   3.327  15.423  0.00  0.00    +0.000 NA
ATOM     13  H   UNL     1       5.445   3.340  15.416  0.00  0.00    +0.000 HD
ATOM     14  H   UNL     1       6.864   2.507  15.882  0.00  0.00    +0.000 HD
ENDBRANCH   9  12
ENDBRANCH   3   9
ENDBRANCH   1   6
BRANCH   1  15
ATOM     15  C   UNL     1       2.038   8.134  19.364  0.00  0.00    +0.000 C 
ATOM     16  O   UNL     1       1.439   7.810  20.612  0.00  0.00    +0.000 OA
ATOM     17  C   UNL     1       1.428   8.919  21.507  0.00  0.00    +0.000 C 
ATOM     18  C   UNL     1       0.594  10.074  20.954  0.00  0.00    +0.000 C 
ATOM     19  C   UNL     1       1.125  10.482  19.571  0.00  0.00    +0.000 C 
ATOM     20  C   UNL     1       1.232   9.257  18.649  0.00  0.00    +0.000 C 
BRANCH  18  21
ATOM     21  O   UNL     1       0.616  11.163  21.878  0.00  0.00    +0.000 OA
ATOM     22  H   UNL     1       0.384  10.831  22.764  0.00  0.00    +0.000 HD
ENDBRANCH  18  21
BRANCH  19  23
ATOM     23  O   UNL     1       0.290  11.498  19.003  0.00  0.00    +0.000 OA
ATOM     24  H   UNL     1       0.118  11.273  18.071  0.00  0.00    +0.000 HD
ENDBRANCH  19  23
BRANCH  20  25
ATOM     25  O   UNL     1       1.811   9.635  17.390  0.00  0.00    +0.000 OA
ATOM     26  H   UNL     1       1.656   8.920  16.750  0.00  0.00    +0.000 HD
ENDBRANCH  20  25
ENDBRANCH   1  15
TORSDOF 7
ENDMDL
