MODEL 1
REMARK VINA RESULT:      -6.6      0.000      0.000
REMARK  Name = 
REMARK  4 active torsions:
REMARK  status: ('A' for Active; 'I' for Inactive)
REMARK    1  A    between atoms: C_1  and  O_2
REMARK    2  A    between atoms: O_2  and  C_3
REMARK    3  A    between atoms: C_3  and  C_5
REMARK    4  A    between atoms: C_6  and  C_7
REMARK                            x       y       z     vdW  Elec       q    Type
REMARK                         _______ _______ _______ _____ _____    ______ ____
ROOT
ATOM      1  C   UNL     1       3.786   3.659  17.725  0.00  0.00    +0.000 A 
ATOM      2  C   UNL     1       2.454   3.964  17.363  0.00  0.00    +0.000 A 
ATOM      3  C   UNL     1       1.402   3.815  18.272  0.00  0.00    +0.000 A 
ATOM      4  C   UNL     1       1.706   3.353  19.531  0.00  0.00    +0.000 A 
ATOM      5  C   UNL     1       2.993   3.036  19.892  0.00  0.00    +0.000 A 
ATOM      6  C   UNL     1       4.050   3.166  19.014  0.00  0.00    +0.000 A 
ATOM      7  O   UNL     1       3.075   2.595  21.177  0.00  0.00    +0.000 OA
ATOM      8  C   UNL     1       1.702   2.732  21.599  0.00  0.00    +0.000 C 
ATOM      9  O   UNL     1       0.817   3.154  20.540  0.00  0.00    +0.000 OA
ENDROOT
BRANCH   1  11
ATOM     10  C   UNL     1       5.491   4.957  16.465  0.00  0.00    +0.000 C 
ATOM     11  C   UNL     1       4.899   3.791  16.773  0.00  0.00    +0.000 C 
BRANCH  10  12
ATOM     12  C   UNL     1       6.595   4.991  15.486  0.00  0.00    +0.000 C 
ATOM     13  O   UNL     1       6.674   4.298  14.486  0.00  0.00    +0.000 OA
BRANCH  12  15
ATOM     14  C   UNL     1       7.195   6.479  17.176  0.00  0.00    +0.000 C 
ATOM     15  O   UNL     1       7.489   5.927  15.893  0.00  0.00    +0.000 OA
ENDBRANCH  12  15
ENDBRANCH  10  12
ENDBRANCH   1  11
TORSDOF 3
ENDMDL
MODEL 2
REMARK VINA RESULT:      -6.5      0.845      1.477
REMARK  Name = 
REMARK  4 active torsions:
REMARK  status: ('A' for Active; 'I' for Inactive)
REMARK    1  A    between atoms: C_1  and  O_2
REMARK    2  A    between atoms: O_2  and  C_3
REMARK    3  A    between atoms: C_3  and  C_5
REMARK    4  A    between atoms: C_6  and  C_7
REMARK                            x       y       z     vdW  Elec       q    Type
REMARK                         _______ _______ _______ _____ _____    ______ ____
ROOT
ATOM      1  C   UNL     1       4.125   3.843  18.168  0.00  0.00    +0.000 A 
ATOM      2  C   UNL     1       2.877   4.222  17.623  0.00  0.00    +0.000 A 
ATOM      3  C   UNL     1       1.689   4.058  18.343  0.00  0.00    +0.000 A 
ATOM      4  C   UNL     1       1.776   3.507  19.600  0.00  0.00    +0.000 A 
ATOM      5  C   UNL     1       2.979   3.117  20.136  0.00  0.00    +0.000 A 
ATOM      6  C   UNL     1       4.166   3.261  19.445  0.00  0.00    +0.000 A 
ATOM      7  O   UNL     1       2.843   2.594  21.385  0.00  0.00    +0.000 OA
ATOM      8  C   UNL     1       1.425   2.759  21.594  0.00  0.00    +0.000 C 
ATOM      9  O   UNL     1       0.732   3.281  20.441  0.00  0.00    +0.000 OA
ENDROOT
BRANCH   1  11
ATOM     10  C   UNL     1       5.477   4.629  16.236  0.00  0.00    +0.000 C 
ATOM     11  C   UNL     1       5.379   3.990  17.412  0.00  0.00    +0.000 C 
BRANCH  10  12
ATOM     12  C   UNL     1       6.779   4.715  15.546  0.00  0.00    +0.000 C 
ATOM     13  O   UNL     1       7.869   4.581  16.077  0.00  0.00    +0.000 OA
BRANCH  12  15
ATOM     14  C   UNL     1       6.194   3.794  13.488  0.00  0.00    +0.000 C 
ATOM     15  O   UNL     1       6.545   4.960  14.233  0.00  0.00    +0.000 OA
ENDBRANCH  12  15
ENDBRANCH  10  12
ENDBRANCH   1  11
TORSDOF 3
ENDMDL
MODEL 3
REMARK VINA RESULT:      -6.5      1.435      2.005
REMARK  Name = 
REMARK  4 active torsions:
REMARK  status: ('A' for Active; 'I' for Inactive)
REMARK    1  A    between atoms: C_1  and  O_2
REMARK    2  A    between atoms: O_2  and  C_3
REMARK    3  A    between atoms: C_3  and  C_5
REMARK    4  A    between atoms: C_6  and  C_7
REMARK                            x       y       z     vdW  Elec       q    Type
REMARK                         _______ _______ _______ _____ _____    ______ ____
ROOT
ATOM      1  C   UNL     1       4.030   4.192  17.451  0.00  0.00    +0.000 A 
ATOM      2  C   UNL     1       3.384   5.433  17.653  0.00  0.00    +0.000 A 
ATOM      3  C   UNL     1       2.358   5.575  18.593  0.00  0.00    +0.000 A 
ATOM      4  C   UNL     1       1.993   4.460  19.312  0.00  0.00    +0.000 A 
ATOM      5  C   UNL     1       2.600   3.244  19.115  0.00  0.00    +0.000 A 
ATOM      6  C   UNL     1       3.609   3.073  18.189  0.00  0.00    +0.000 A 
ATOM      7  O   UNL     1       2.088   2.275  19.923  0.00  0.00    +0.000 OA
ATOM      8  C   UNL     1       1.136   3.039  20.693  0.00  0.00    +0.000 C 
ATOM      9  O   UNL     1       1.027   4.414  20.268  0.00  0.00    +0.000 OA
ENDROOT
BRANCH   1  11
ATOM     10  C   UNL     1       5.509   4.998  15.624  0.00  0.00    +0.000 C 
ATOM     11  C   UNL     1       5.095   4.025  16.451  0.00  0.00    +0.000 C 
BRANCH  10  12
ATOM     12  C   UNL     1       6.579   4.731  14.643  0.00  0.00    +0.000 C 
ATOM     13  O   UNL     1       7.556   5.438  14.455  0.00  0.00    +0.000 OA
BRANCH  12  15
ATOM     14  C   UNL     1       6.356   3.670  12.582  0.00  0.00    +0.000 C 
ATOM     15  O   UNL     1       6.287   3.571  14.004  0.00  0.00    +0.000 OA
ENDBRANCH  12  15
ENDBRANCH  10  12
ENDBRANCH   1  11
TORSDOF 3
ENDMDL
MODEL 4
REMARK VINA RESULT:      -6.4      1.103      6.183
REMARK  Name = 
REMARK  4 active torsions:
REMARK  status: ('A' for Active; 'I' for Inactive)
REMARK    1  A    between atoms: C_1  and  O_2
REMARK    2  A    between atoms: O_2  and  C_3
REMARK    3  A    between atoms: C_3  and  C_5
REMARK    4  A    between atoms: C_6  and  C_7
REMARK                            x       y       z     vdW  Elec       q    Type
REMARK                         _______ _______ _______ _____ _____    ______ ____
ROOT
ATOM      1  C   UNL     1       3.623   4.688  17.483  0.00  0.00    +0.000 A 
ATOM      2  C   UNL     1       4.154   5.934  17.890  0.00  0.00    +0.000 A 
ATOM      3  C   UNL     1       5.350   6.423  17.358  0.00  0.00    +0.000 A 
ATOM      4  C   UNL     1       6.000   5.646  16.427  0.00  0.00    +0.000 A 
ATOM      5  C   UNL     1       5.506   4.426  16.034  0.00  0.00    +0.000 A 
ATOM      6  C   UNL     1       4.331   3.915  16.548  0.00  0.00    +0.000 A 
ATOM      7  O   UNL     1       6.301   3.821  15.110  0.00  0.00    +0.000 OA
ATOM      8  C   UNL     1       7.316   4.829  14.923  0.00  0.00    +0.000 C 
ATOM      9  O   UNL     1       7.164   5.964  15.801  0.00  0.00    +0.000 OA
ENDROOT
BRANCH   1  11
ATOM     10  C   UNL     1       2.324   3.357  19.132  0.00  0.00    +0.000 C 
ATOM     11  C   UNL     1       2.376   4.152  18.051  0.00  0.00    +0.000 C 
BRANCH  10  12
ATOM     12  C   UNL     1       1.024   2.859  19.622  0.00  0.00    +0.000 C 
ATOM     13  O   UNL     1       0.159   2.345  18.932  0.00  0.00    +0.000 OA
BRANCH  12  15
ATOM     14  C   UNL     1       2.246   3.005  21.600  0.00  0.00    +0.000 C 
ATOM     15  O   UNL     1       0.971   3.066  20.962  0.00  0.00    +0.000 OA
ENDBRANCH  12  15
ENDBRANCH  10  12
ENDBRANCH   1  11
TORSDOF 3
ENDMDL
MODEL 5
REMARK VINA RESULT:      -6.4      1.307      6.358
REMARK  Name = 
REMARK  4 active torsions:
REMARK  status: ('A' for Active; 'I' for Inactive)
REMARK    1  A    between atoms: C_1  and  O_2
REMARK    2  A    between atoms: O_2  and  C_3
REMARK    3  A    between atoms: C_3  and  C_5
REMARK    4  A    between atoms: C_6  and  C_7
REMARK                            x       y       z     vdW  Elec       q    Type
REMARK                         _______ _______ _______ _____ _____    ______ ____
ROOT
ATOM      1  C   UNL     1       4.810   4.650  18.651  0.00  0.00    +0.000 A 
ATOM      2  C   UNL     1       6.109   5.082  19.004  0.00  0.00    +0.000 A 
ATOM      3  C   UNL     1       7.126   5.184  18.050  0.00  0.00    +0.000 A 
ATOM      4  C   UNL     1       6.821   4.843  16.752  0.00  0.00    +0.000 A 
ATOM      5  C   UNL     1       5.568   4.405  16.397  0.00  0.00    +0.000 A 
ATOM      6  C   UNL     1       4.547   4.288  17.319  0.00  0.00    +0.000 A 
ATOM      7  O   UNL     1       5.479   4.117  15.070  0.00  0.00    +0.000 OA
ATOM      8  C   UNL     1       6.801   4.484  14.624  0.00  0.00    +0.000 C 
ATOM      9  O   UNL     1       7.677   4.887  15.698  0.00  0.00    +0.000 OA
ENDROOT
BRANCH   1  11
ATOM     10  C   UNL     1       3.136   3.358  19.956  0.00  0.00    +0.000 C 
ATOM     11  C   UNL     1       3.737   4.518  19.649  0.00  0.00    +0.000 C 
BRANCH  10  12
ATOM     12  C   UNL     1       2.059   3.326  20.965  0.00  0.00    +0.000 C 
ATOM     13  O   UNL     1       2.224   3.239  22.171  0.00  0.00    +0.000 OA
BRANCH  12  15
ATOM     14  C   UNL     1       0.785   2.582  19.163  0.00  0.00    +0.000 C 
ATOM     15  O   UNL     1       0.871   3.417  20.318  0.00  0.00    +0.000 OA
ENDBRANCH  12  15
ENDBRANCH  10  12
ENDBRANCH   1  11
TORSDOF 3
ENDMDL
MODEL 6
REMARK VINA RESULT:      -6.3      1.199      6.356
REMARK  Name = 
REMARK  4 active torsions:
REMARK  status: ('A' for Active; 'I' for Inactive)
REMARK    1  A    between atoms: C_1  and  O_2
REMARK    2  A    between atoms: O_2  and  C_3
REMARK    3  A    between atoms: C_3  and  C_5
REMARK    4  A    between atoms: C_6  and  C_7
REMARK                            x       y       z     vdW  Elec       q    Type
REMARK                         _______ _______ _______ _____ _____    ______ ____
ROOT
ATOM      1  C   UNL     1       4.623   4.125  17.637  0.00  0.00    +0.000 A 
ATOM      2  C   UNL     1       5.795   4.656  18.223  0.00  0.00    +0.000 A 
ATOM      3  C   UNL     1       6.888   5.042  17.441  0.00  0.00    +0.000 A 
ATOM      4  C   UNL     1       6.788   4.880  16.079  0.00  0.00    +0.000 A 
ATOM      5  C   UNL     1       5.663   4.349  15.497  0.00  0.00    +0.000 A 
ATOM      6  C   UNL     1       4.571   3.953  16.244  0.00  0.00    +0.000 A 
ATOM      7  O   UNL     1       5.770   4.271  14.142  0.00  0.00    +0.000 OA
ATOM      8  C   UNL     1       7.066   4.872  13.938  0.00  0.00    +0.000 C 
ATOM      9  O   UNL     1       7.743   5.204  15.169  0.00  0.00    +0.000 OA
ENDROOT
BRANCH   1  11
ATOM     10  C   UNL     1       2.256   3.435  17.951  0.00  0.00    +0.000 C 
ATOM     11  C   UNL     1       3.474   3.696  18.450  0.00  0.00    +0.000 C 
BRANCH  10  12
ATOM     12  C   UNL     1       1.160   3.021  18.848  0.00  0.00    +0.000 C 
ATOM     13  O   UNL     1       0.285   2.217  18.570  0.00  0.00    +0.000 OA
BRANCH  12  15
ATOM     14  C   UNL     1       1.280   2.824  21.167  0.00  0.00    +0.000 C 
ATOM     15  O   UNL     1       1.306   3.680  20.025  0.00  0.00    +0.000 OA
ENDBRANCH  12  15
ENDBRANCH  10  12
ENDBRANCH   1  11
TORSDOF 3
ENDMDL
MODEL 7
REMARK VINA RESULT:      -6.3      0.901      1.467
REMARK  Name = 
REMARK  4 active torsions:
REMARK  status: ('A' for Active; 'I' for Inactive)
REMARK    1  A    between atoms: C_1  and  O_2
REMARK    2  A    between atoms: O_2  and  C_3
REMARK    3  A    between atoms: C_3  and  C_5
REMARK    4  A    between atoms: C_6  and  C_7
REMARK                            x       y       z     vdW  Elec       q    Type
REMARK                         _______ _______ _______ _____ _____    ______ ____
ROOT
ATOM      1  C   UNL     1       3.698   4.560  18.118  0.00  0.00    +0.000 A 
ATOM      2  C   UNL     1       2.349   4.597  17.697  0.00  0.00    +0.000 A 
ATOM      3  C   UNL     1       1.328   4.050  18.481  0.00  0.00    +0.000 A 
ATOM      4  C   UNL     1       1.682   3.467  19.675  0.00  0.00    +0.000 A 
ATOM      5  C   UNL     1       2.991   3.408  20.089  0.00  0.00    +0.000 A 
ATOM      6  C   UNL     1       4.020   3.933  19.332  0.00  0.00    +0.000 A 
ATOM      7  O   UNL     1       3.124   2.787  21.293  0.00  0.00    +0.000 OA
ATOM      8  C   UNL     1       1.743   2.521  21.614  0.00  0.00    +0.000 C 
ATOM      9  O   UNL     1       0.827   2.895  20.563  0.00  0.00    +0.000 OA
ENDROOT
BRANCH   1  11
ATOM     10  C   UNL     1       6.070   5.154  17.674  0.00  0.00    +0.000 C 
ATOM     11  C   UNL     1       4.784   5.112  17.293  0.00  0.00    +0.000 C 
BRANCH  10  12
ATOM     12  C   UNL     1       7.089   5.739  16.780  0.00  0.00    +0.000 C 
ATOM     13  O   UNL     1       7.438   6.908  16.778  0.00  0.00    +0.000 OA
BRANCH  12  15
ATOM     14  C   UNL     1       7.048   4.796  14.650  0.00  0.00    +0.000 C 
ATOM     15  O   UNL     1       7.565   4.752  15.980  0.00  0.00    +0.000 OA
ENDBRANCH  12  15
ENDBRANCH  10  12
ENDBRANCH   1  11
TORSDOF 3
ENDMDL
MODEL 8
REMARK VINA RESULT:      -6.3      1.832      5.881
REMARK  Name = 
REMARK  4 active torsions:
REMARK  status: ('A' for Active; 'I' for Inactive)
REMARK    1  A    between atoms: C_1  and  O_2
REMARK    2  A    between atoms: O_2  and  C_3
REMARK    3  A    between atoms: C_3  and  C_5
REMARK    4  A    between atoms: C_6  and  C_7
REMARK                            x       y       z     vdW  Elec       q    Type
REMARK                         _______ _______ _______ _____ _____    ______ ____
ROOT
ATOM      1  C   UNL     1       3.883   4.920  18.203  0.00  0.00    +0.000 A 
ATOM      2  C   UNL     1       4.212   5.604  17.010  0.00  0.00    +0.000 A 
ATOM      3  C   UNL     1       5.475   6.175  16.824  0.00  0.00    +0.000 A 
ATOM      4  C   UNL     1       6.387   6.054  17.847  0.00  0.00    +0.000 A 
ATOM      5  C   UNL     1       6.076   5.407  19.018  0.00  0.00    +0.000 A 
ATOM      6  C   UNL     1       4.835   4.840  19.232  0.00  0.00    +0.000 A 
ATOM      7  O   UNL     1       7.115   5.403  19.897  0.00  0.00    +0.000 OA
ATOM      8  C   UNL     1       8.132   6.066  19.118  0.00  0.00    +0.000 C 
ATOM      9  O   UNL     1       7.658   6.537  17.838  0.00  0.00    +0.000 OA
ENDROOT
BRANCH   1  11
ATOM     10  C   UNL     1       2.322   3.244  19.169  0.00  0.00    +0.000 C 
ATOM     11  C   UNL     1       2.551   4.334  18.419  0.00  0.00    +0.000 C 
BRANCH  10  12
ATOM     12  C   UNL     1       0.950   2.722  19.318  0.00  0.00    +0.000 C 
ATOM     13  O   UNL     1       0.295   2.195  18.434  0.00  0.00    +0.000 OA
BRANCH  12  15
ATOM     14  C   UNL     1       1.590   2.691  21.558  0.00  0.00    +0.000 C 
ATOM     15  O   UNL     1       0.558   2.927  20.601  0.00  0.00    +0.000 OA
ENDBRANCH  12  15
ENDBRANCH  10  12
ENDBRANCH   1  11
TORSDOF 3
ENDMDL
MODEL 9
REMARK VINA RESULT:      -6.2      1.100      1.286
REMARK  Name = 
REMARK  4 active torsions:
REMARK  status: ('A' for Active; 'I' for Inactive)
REMARK    1  A    between atoms: C_1  and  O_2
REMARK    2  A    between atoms: O_2  and  C_3
REMARK    3  A    between atoms: C_3  and  C_5
REMARK    4  A    between atoms: C_6  and  C_7
REMARK                            x       y       z     vdW  Elec       q    Type
REMARK                         _______ _______ _______ _____ _____    ______ ____
ROOT
ATOM      1  C   UNL     1       3.609   4.970  18.376  0.00  0.00    +0.000 A 
ATOM      2  C   UNL     1       2.487   4.559  17.619  0.00  0.00    +0.000 A 
ATOM      3  C   UNL     1       1.454   3.814  18.196  0.00  0.00    +0.000 A 
ATOM      4  C   UNL     1       1.569   3.488  19.527  0.00  0.00    +0.000 A 
ATOM      5  C   UNL     1       2.660   3.865  20.271  0.00  0.00    +0.000 A 
ATOM      6  C   UNL     1       3.698   4.594  19.726  0.00  0.00    +0.000 A 
ATOM      7  O   UNL     1       2.579   3.438  21.561  0.00  0.00    +0.000 OA
ATOM      8  C   UNL     1       1.282   2.806  21.555  0.00  0.00    +0.000 C 
ATOM      9  O   UNL     1       0.663   2.779  20.252  0.00  0.00    +0.000 OA
ENDROOT
BRANCH   1  11
ATOM     10  C   UNL     1       5.610   5.216  16.922  0.00  0.00    +0.000 C 
ATOM     11  C   UNL     1       4.713   5.735  17.775  0.00  0.00    +0.000 C 
BRANCH  10  12
ATOM     12  C   UNL     1       6.691   6.061  16.380  0.00  0.00    +0.000 C 
ATOM     13  O   UNL     1       7.570   5.683  15.622  0.00  0.00    +0.000 OA
BRANCH  12  15
ATOM     14  C   UNL     1       7.665   7.808  17.575  0.00  0.00    +0.000 C 
ATOM     15  O   UNL     1       6.528   7.318  16.864  0.00  0.00    +0.000 OA
ENDBRANCH  12  15
ENDBRANCH  10  12
ENDBRANCH   1  11
TORSDOF 3
ENDMDL
