MODEL 1
REMARK VINA RESULT:      -8.9      0.000      0.000
REMARK  Name = 
REMARK  6 active torsions:
REMARK  status: ('A' for Active; 'I' for Inactive)
REMARK    1  A    between atoms: C_1  and  C_2
REMARK    2  A    between atoms: N_5  and  C_6
REMARK    3  A    between atoms: C_6  and  C_7
REMARK    4  A    between atoms: C_7  and  N_8
REMARK    5  A    between atoms: N_17  and  C_18
REMARK    6  A    between atoms: C_18  and  C_19
REMARK                            x       y       z     vdW  Elec       q    Type
REMARK                         _______ _______ _______ _____ _____    ______ ____
ROOT
ATOM      1  C   UNL     1       6.911   5.240  14.251  0.00  0.00    +0.000 C 
ATOM      2  C   UNL     1       6.751   5.360  15.739  0.00  0.00    +0.000 A 
ATOM      3  N   UNL     1       7.404   6.389  16.339  0.00  0.00    +0.000 NA
ATOM      4  C   UNL     1       7.385   6.497  17.693  0.00  0.00    +0.000 A 
ATOM      5  N   UNL     1       8.018   7.548  18.350  0.00  0.00    +0.000 N 
ATOM      6  C   UNL     1       6.685   5.522  18.412  0.00  0.00    +0.000 A 
ATOM      7  N   UNL     1       6.487   5.315  19.753  0.00  0.00    +0.000 NA
ATOM      8  N   UNL     1       5.671   4.277  19.888  0.00  0.00    +0.000 NA
ATOM      9  N   UNL     1       5.314   3.878  18.643  0.00  0.00    +0.000 N 
ATOM     10  C   UNL     1       5.994   4.574  17.683  0.00  0.00    +0.000 A 
ATOM     11  N   UNL     1       5.985   4.423  16.347  0.00  0.00    +0.000 NA
ATOM     12  H   UNL     1       8.759   7.202  18.946  0.00  0.00    +0.000 HD
ENDROOT
BRANCH   5  13
ATOM     13  C   UNL     1       8.358   8.718  17.566  0.00  0.00    +0.000 C 
BRANCH  13  14
ATOM     14  C   UNL     1       8.736   9.893  18.491  0.00  0.00    +0.000 C 
BRANCH  14  15
ATOM     15  N   UNL     1       9.325  11.085  17.884  0.00  0.00    +0.000 NA
ATOM     16  C   UNL     1      10.711  11.410  18.204  0.00  0.00    +0.000 C 
ATOM     17  C   UNL     1      10.864  12.640  19.108  0.00  0.00    +0.000 C 
ATOM     18  O   UNL     1      10.181  13.769  18.552  0.00  0.00    +0.000 OA
ATOM     19  C   UNL     1       8.778  13.500  18.459  0.00  0.00    +0.000 C 
ATOM     20  C   UNL     1       8.474  12.243  17.622  0.00  0.00    +0.000 C 
ENDBRANCH  14  15
ENDBRANCH  13  14
ENDBRANCH   5  13
BRANCH   9  21
ATOM     21  C   UNL     1       4.316   2.840  18.471  0.00  0.00    +0.000 C 
BRANCH  21  22
ATOM     22  C   UNL     1       3.168   2.986  19.451  0.00  0.00    +0.000 A 
ATOM     23  C   UNL     1       3.255   2.377  20.721  0.00  0.00    +0.000 A 
ATOM     24  C   UNL     1       2.217   2.485  21.652  0.00  0.00    +0.000 A 
ATOM     25  C   UNL     1       1.070   3.198  21.329  0.00  0.00    +0.000 A 
ATOM     26  C   UNL     1       0.951   3.789  20.074  0.00  0.00    +0.000 A 
ATOM     27  C   UNL     1       1.988   3.682  19.139  0.00  0.00    +0.000 A 
ATOM     28 CL   UNL     1       1.732   4.420  17.598  0.00  0.00    +0.000 Cl
ENDBRANCH  21  22
ENDBRANCH   9  21
TORSDOF 5
ENDMDL
MODEL 2
REMARK VINA RESULT:      -8.5      6.911      8.478
REMARK  Name = 
REMARK  6 active torsions:
REMARK  status: ('A' for Active; 'I' for Inactive)
REMARK    1  A    between atoms: C_1  and  C_2
REMARK    2  A    between atoms: N_5  and  C_6
REMARK    3  A    between atoms: C_6  and  C_7
REMARK    4  A    between atoms: C_7  and  N_8
REMARK    5  A    between atoms: N_17  and  C_18
REMARK    6  A    between atoms: C_18  and  C_19
REMARK                            x       y       z     vdW  Elec       q    Type
REMARK                         _______ _______ _______ _____ _____    ______ ____
ROOT
ATOM      1  C   UNL     1       0.146   9.250  22.621  0.00  0.00    +0.000 C 
ATOM      2  C   UNL     1       0.752   9.183  21.249  0.00  0.00    +0.000 A 
ATOM      3  N   UNL     1       0.519  10.243  20.431  0.00  0.00    +0.000 NA
ATOM      4  C   UNL     1       0.952  10.204  19.144  0.00  0.00    +0.000 A 
ATOM      5  N   UNL     1       0.760  11.275  18.276  0.00  0.00    +0.000 N 
ATOM      6  C   UNL     1       1.622   9.051  18.719  0.00  0.00    +0.000 A 
ATOM      7  N   UNL     1       2.156   8.673  17.514  0.00  0.00    +0.000 NA
ATOM      8  N   UNL     1       2.752   7.499  17.683  0.00  0.00    +0.000 NA
ATOM      9  N   UNL     1       2.645   7.177  18.995  0.00  0.00    +0.000 N 
ATOM     10  C   UNL     1       1.869   8.078  19.668  0.00  0.00    +0.000 A 
ATOM     11  N   UNL     1       1.458   8.069  20.949  0.00  0.00    +0.000 NA
ATOM     12  H   UNL     1       0.170  11.003  17.499  0.00  0.00    +0.000 HD
ENDROOT
BRANCH   5  13
ATOM     13  C   UNL     1       0.447  12.562  18.864  0.00  0.00    +0.000 C 
BRANCH  13  14
ATOM     14  C   UNL     1      -1.021  12.941  18.573  0.00  0.00    +0.000 C 
BRANCH  14  15
ATOM     15  N   UNL     1      -2.073  12.084  19.115  0.00  0.00    +0.000 NA
ATOM     16  C   UNL     1      -2.807  11.224  18.192  0.00  0.00    +0.000 C 
ATOM     17  C   UNL     1      -4.253  11.672  17.949  0.00  0.00    +0.000 C 
ATOM     18  O   UNL     1      -4.955  11.822  19.188  0.00  0.00    +0.000 OA
ATOM     19  C   UNL     1      -4.339  12.840  19.985  0.00  0.00    +0.000 C 
ATOM     20  C   UNL     1      -2.851  12.552  20.260  0.00  0.00    +0.000 C 
ENDBRANCH  14  15
ENDBRANCH  13  14
ENDBRANCH   5  13
BRANCH   9  21
ATOM     21  C   UNL     1       3.323   6.003  19.512  0.00  0.00    +0.000 C 
BRANCH  21  22
ATOM     22  C   UNL     1       2.534   4.733  19.259  0.00  0.00    +0.000 A 
ATOM     23  C   UNL     1       1.539   4.337  20.178  0.00  0.00    +0.000 A 
ATOM     24  C   UNL     1       0.792   3.171  19.983  0.00  0.00    +0.000 A 
ATOM     25  C   UNL     1       1.028   2.375  18.871  0.00  0.00    +0.000 A 
ATOM     26  C   UNL     1       2.020   2.732  17.961  0.00  0.00    +0.000 A 
ATOM     27  C   UNL     1       2.771   3.899  18.153  0.00  0.00    +0.000 A 
ATOM     28 CL   UNL     1       4.001   4.238  16.988  0.00  0.00    +0.000 Cl
ENDBRANCH  21  22
ENDBRANCH   9  21
TORSDOF 5
ENDMDL
MODEL 3
REMARK VINA RESULT:      -8.3      1.063      1.409
REMARK  Name = 
REMARK  6 active torsions:
REMARK  status: ('A' for Active; 'I' for Inactive)
REMARK    1  A    between atoms: C_1  and  C_2
REMARK    2  A    between atoms: N_5  and  C_6
REMARK    3  A    between atoms: C_6  and  C_7
REMARK    4  A    between atoms: C_7  and  N_8
REMARK    5  A    between atoms: N_17  and  C_18
REMARK    6  A    between atoms: C_18  and  C_19
REMARK                            x       y       z     vdW  Elec       q    Type
REMARK                         _______ _______ _______ _____ _____    ______ ____
ROOT
ATOM      1  C   UNL     1       7.175   5.183  14.275  0.00  0.00    +0.000 C 
ATOM      2  C   UNL     1       6.888   5.336  15.740  0.00  0.00    +0.000 A 
ATOM      3  N   UNL     1       7.503   6.368  16.374  0.00  0.00    +0.000 NA
ATOM      4  C   UNL     1       7.367   6.505  17.720  0.00  0.00    +0.000 A 
ATOM      5  N   UNL     1       7.957   7.561  18.409  0.00  0.00    +0.000 N 
ATOM      6  C   UNL     1       6.591   5.556  18.393  0.00  0.00    +0.000 A 
ATOM      7  N   UNL     1       6.273   5.380  19.715  0.00  0.00    +0.000 NA
ATOM      8  N   UNL     1       5.432   4.356  19.799  0.00  0.00    +0.000 NA
ATOM      9  N   UNL     1       5.179   3.937  18.536  0.00  0.00    +0.000 N 
ATOM     10  C   UNL     1       5.951   4.602  17.626  0.00  0.00    +0.000 A 
ATOM     11  N   UNL     1       6.057   4.424  16.297  0.00  0.00    +0.000 NA
ATOM     12  H   UNL     1       8.637   7.216  19.074  0.00  0.00    +0.000 HD
ENDROOT
BRANCH   5  13
ATOM     13  C   UNL     1       8.383   8.709  17.634  0.00  0.00    +0.000 C 
BRANCH  13  14
ATOM     14  C   UNL     1       8.866   9.838  18.569  0.00  0.00    +0.000 C 
BRANCH  14  15
ATOM     15  N   UNL     1       9.445  11.034  17.961  0.00  0.00    +0.000 NA
ATOM     16  C   UNL     1      10.823  11.380  18.293  0.00  0.00    +0.000 C 
ATOM     17  C   UNL     1      10.949  12.617  19.191  0.00  0.00    +0.000 C 
ATOM     18  O   UNL     1      10.256  13.733  18.622  0.00  0.00    +0.000 OA
ATOM     19  C   UNL     1       8.858  13.444  18.515  0.00  0.00    +0.000 C 
ATOM     20  C   UNL     1       8.580  12.178  17.683  0.00  0.00    +0.000 C 
ENDBRANCH  14  15
ENDBRANCH  13  14
ENDBRANCH   5  13
BRANCH   9  21
ATOM     21  C   UNL     1       4.183   2.909  18.298  0.00  0.00    +0.000 C 
BRANCH  21  22
ATOM     22  C   UNL     1       3.112   2.895  19.371  0.00  0.00    +0.000 A 
ATOM     23  C   UNL     1       1.886   3.555  19.140  0.00  0.00    +0.000 A 
ATOM     24  C   UNL     1       0.874   3.567  20.105  0.00  0.00    +0.000 A 
ATOM     25  C   UNL     1       1.069   2.926  21.321  0.00  0.00    +0.000 A 
ATOM     26  C   UNL     1       2.279   2.287  21.582  0.00  0.00    +0.000 A 
ATOM     27  C   UNL     1       3.294   2.273  20.618  0.00  0.00    +0.000 A 
ATOM     28 CL   UNL     1       4.770   1.484  21.048  0.00  0.00    +0.000 Cl
ENDBRANCH  21  22
ENDBRANCH   9  21
TORSDOF 5
ENDMDL
MODEL 4
REMARK VINA RESULT:      -8.3      4.689      8.054
REMARK  Name = 
REMARK  6 active torsions:
REMARK  status: ('A' for Active; 'I' for Inactive)
REMARK    1  A    between atoms: C_1  and  C_2
REMARK    2  A    between atoms: N_5  and  C_6
REMARK    3  A    between atoms: C_6  and  C_7
REMARK    4  A    between atoms: C_7  and  N_8
REMARK    5  A    between atoms: N_17  and  C_18
REMARK    6  A    between atoms: C_18  and  C_19
REMARK                            x       y       z     vdW  Elec       q    Type
REMARK                         _______ _______ _______ _____ _____    ______ ____
ROOT
ATOM      1  C   UNL     1       2.482   8.327  17.706  0.00  0.00    +0.000 C 
ATOM      2  C   UNL     1       3.401   7.196  18.069  0.00  0.00    +0.000 A 
ATOM      3  N   UNL     1       3.041   6.442  19.140  0.00  0.00    +0.000 NA
ATOM      4  C   UNL     1       3.876   5.467  19.585  0.00  0.00    +0.000 A 
ATOM      5  N   UNL     1       3.540   4.652  20.662  0.00  0.00    +0.000 N 
ATOM      6  C   UNL     1       5.088   5.292  18.907  0.00  0.00    +0.000 A 
ATOM      7  N   UNL     1       6.148   4.443  19.097  0.00  0.00    +0.000 NA
ATOM      8  N   UNL     1       7.013   4.646  18.110  0.00  0.00    +0.000 NA
ATOM      9  N   UNL     1       6.469   5.567  17.278  0.00  0.00    +0.000 N 
ATOM     10  C   UNL     1       5.301   6.066  17.783  0.00  0.00    +0.000 A 
ATOM     11  N   UNL     1       4.509   7.043  17.307  0.00  0.00    +0.000 NA
ATOM     12  H   UNL     1       4.191   4.784  21.426  0.00  0.00    +0.000 HD
ENDROOT
BRANCH   5  13
ATOM     13  C   UNL     1       2.144   4.599  21.048  0.00  0.00    +0.000 C 
BRANCH  13  14
ATOM     14  C   UNL     1       1.608   3.157  20.923  0.00  0.00    +0.000 C 
BRANCH  14  15
ATOM     15  N   UNL     1       1.408   2.612  19.582  0.00  0.00    +0.000 NA
ATOM     16  C   UNL     1       2.405   1.684  19.058  0.00  0.00    +0.000 C 
ATOM     17  C   UNL     1       3.270   2.274  17.938  0.00  0.00    +0.000 C 
ATOM     18  O   UNL     1       2.452   2.805  16.889  0.00  0.00    +0.000 OA
ATOM     19  C   UNL     1       1.640   3.873  17.387  0.00  0.00    +0.000 C 
ATOM     20  C   UNL     1       0.754   3.437  18.569  0.00  0.00    +0.000 C 
ENDBRANCH  14  15
ENDBRANCH  13  14
ENDBRANCH   5  13
BRANCH   9  21
ATOM     21  C   UNL     1       7.128   5.896  16.029  0.00  0.00    +0.000 C 
BRANCH  21  22
ATOM     22  C   UNL     1       6.623   5.048  14.878  0.00  0.00    +0.000 A 
ATOM     23  C   UNL     1       5.456   4.272  15.045  0.00  0.00    +0.000 A 
ATOM     24  C   UNL     1       4.958   3.474  14.010  0.00  0.00    +0.000 A 
ATOM     25  C   UNL     1       5.620   3.431  12.790  0.00  0.00    +0.000 A 
ATOM     26  C   UNL     1       6.786   4.170  12.608  0.00  0.00    +0.000 A 
ATOM     27  C   UNL     1       7.287   4.970  13.642  0.00  0.00    +0.000 A 
ATOM     28 CL   UNL     1       8.758   5.823  13.331  0.00  0.00    +0.000 Cl
ENDBRANCH  21  22
ENDBRANCH   9  21
TORSDOF 5
ENDMDL
MODEL 5
REMARK VINA RESULT:      -8.0      5.660      6.838
REMARK  Name = 
REMARK  6 active torsions:
REMARK  status: ('A' for Active; 'I' for Inactive)
REMARK    1  A    between atoms: C_1  and  C_2
REMARK    2  A    between atoms: N_5  and  C_6
REMARK    3  A    between atoms: C_6  and  C_7
REMARK    4  A    between atoms: C_7  and  N_8
REMARK    5  A    between atoms: N_17  and  C_18
REMARK    6  A    between atoms: C_18  and  C_19
REMARK                            x       y       z     vdW  Elec       q    Type
REMARK                         _______ _______ _______ _____ _____    ______ ____
ROOT
ATOM      1  C   UNL     1      -0.057   9.397  22.942  0.00  0.00    +0.000 C 
ATOM      2  C   UNL     1       0.494   9.369  21.546  0.00  0.00    +0.000 A 
ATOM      3  N   UNL     1       0.192  10.430  20.753  0.00  0.00    +0.000 NA
ATOM      4  C   UNL     1       0.573  10.423  19.449  0.00  0.00    +0.000 A 
ATOM      5  N   UNL     1       0.310  11.498  18.606  0.00  0.00    +0.000 N 
ATOM      6  C   UNL     1       1.264   9.300  18.981  0.00  0.00    +0.000 A 
ATOM      7  N   UNL     1       1.761   8.957  17.750  0.00  0.00    +0.000 NA
ATOM      8  N   UNL     1       2.403   7.802  17.878  0.00  0.00    +0.000 NA
ATOM      9  N   UNL     1       2.361   7.459  19.188  0.00  0.00    +0.000 N 
ATOM     10  C   UNL     1       1.582   8.323  19.905  0.00  0.00    +0.000 A 
ATOM     11  N   UNL     1       1.226   8.284  21.201  0.00  0.00    +0.000 NA
ATOM     12  H   UNL     1      -0.302  11.217  17.849  0.00  0.00    +0.000 HD
ENDROOT
BRANCH   5  13
ATOM     13  C   UNL     1      -0.023  12.766  19.224  0.00  0.00    +0.000 C 
BRANCH  13  14
ATOM     14  C   UNL     1       0.668  13.925  18.476  0.00  0.00    +0.000 C 
BRANCH  14  15
ATOM     15  N   UNL     1       1.859  14.520  19.079  0.00  0.00    +0.000 NA
ATOM     16  C   UNL     1       1.864  15.959  19.323  0.00  0.00    +0.000 C 
ATOM     17  C   UNL     1       2.793  16.740  18.386  0.00  0.00    +0.000 C 
ATOM     18  O   UNL     1       4.120  16.203  18.420  0.00  0.00    +0.000 OA
ATOM     19  C   UNL     1       4.116  14.848  17.958  0.00  0.00    +0.000 C 
ATOM     20  C   UNL     1       3.169  13.950  18.775  0.00  0.00    +0.000 C 
ENDBRANCH  14  15
ENDBRANCH  13  14
ENDBRANCH   5  13
BRANCH   9  21
ATOM     21  C   UNL     1       3.099   6.302  19.660  0.00  0.00    +0.000 C 
BRANCH  21  22
ATOM     22  C   UNL     1       2.360   5.006  19.389  0.00  0.00    +0.000 A 
ATOM     23  C   UNL     1       1.410   4.538  20.321  0.00  0.00    +0.000 A 
ATOM     24  C   UNL     1       0.710   3.347  20.110  0.00  0.00    +0.000 A 
ATOM     25  C   UNL     1       0.950   2.596  18.967  0.00  0.00    +0.000 A 
ATOM     26  C   UNL     1       1.899   3.025  18.043  0.00  0.00    +0.000 A 
ATOM     27  C   UNL     1       2.602   4.218  18.251  0.00  0.00    +0.000 A 
ATOM     28 CL   UNL     1       3.783   4.648  17.065  0.00  0.00    +0.000 Cl
ENDBRANCH  21  22
ENDBRANCH   9  21
TORSDOF 5
ENDMDL
MODEL 6
REMARK VINA RESULT:      -8.0      6.889      8.537
REMARK  Name = 
REMARK  6 active torsions:
REMARK  status: ('A' for Active; 'I' for Inactive)
REMARK    1  A    between atoms: C_1  and  C_2
REMARK    2  A    between atoms: N_5  and  C_6
REMARK    3  A    between atoms: C_6  and  C_7
REMARK    4  A    between atoms: C_7  and  N_8
REMARK    5  A    between atoms: N_17  and  C_18
REMARK    6  A    between atoms: C_18  and  C_19
REMARK                            x       y       z     vdW  Elec       q    Type
REMARK                         _______ _______ _______ _____ _____    ______ ____
ROOT
ATOM      1  C   UNL     1       0.120   9.206  22.583  0.00  0.00    +0.000 C 
ATOM      2  C   UNL     1       0.750   9.108  21.223  0.00  0.00    +0.000 A 
ATOM      3  N   UNL     1       0.498  10.128  20.363  0.00  0.00    +0.000 NA
ATOM      4  C   UNL     1       0.953  10.056  19.084  0.00  0.00    +0.000 A 
ATOM      5  N   UNL     1       0.742  11.087  18.175  0.00  0.00    +0.000 N 
ATOM      6  C   UNL     1       1.665   8.910  18.714  0.00  0.00    +0.000 A 
ATOM      7  N   UNL     1       2.231   8.505  17.532  0.00  0.00    +0.000 NA
ATOM      8  N   UNL     1       2.860   7.357  17.754  0.00  0.00    +0.000 NA
ATOM      9  N   UNL     1       2.742   7.080  19.074  0.00  0.00    +0.000 N 
ATOM     10  C   UNL     1       1.927   7.980  19.701  0.00  0.00    +0.000 A 
ATOM     11  N   UNL     1       1.496   8.006  20.975  0.00  0.00    +0.000 NA
ATOM     12  H   UNL     1       0.174  10.769  17.400  0.00  0.00    +0.000 HD
ENDROOT
BRANCH   5  13
ATOM     13  C   UNL     1       0.379  12.385  18.709  0.00  0.00    +0.000 C 
BRANCH  13  14
ATOM     14  C   UNL     1      -1.075  12.734  18.328  0.00  0.00    +0.000 C 
BRANCH  14  15
ATOM     15  N   UNL     1      -2.148  11.913  18.884  0.00  0.00    +0.000 NA
ATOM     16  C   UNL     1      -2.964  11.128  17.963  0.00  0.00    +0.000 C 
ATOM     17  C   UNL     1      -4.393  11.659  17.799  0.00  0.00    +0.000 C 
ATOM     18  O   UNL     1      -5.034  11.798  19.072  0.00  0.00    +0.000 OA
ATOM     19  C   UNL     1      -4.332  12.751  19.877  0.00  0.00    +0.000 C 
ATOM     20  C   UNL     1      -2.852  12.376  20.077  0.00  0.00    +0.000 C 
ENDBRANCH  14  15
ENDBRANCH  13  14
ENDBRANCH   5  13
BRANCH   9  21
ATOM     21  C   UNL     1       3.447   5.948  19.645  0.00  0.00    +0.000 C 
BRANCH  21  22
ATOM     22  C   UNL     1       3.098   4.649  18.946  0.00  0.00    +0.000 A 
ATOM     23  C   UNL     1       3.921   4.178  17.900  0.00  0.00    +0.000 A 
ATOM     24  C   UNL     1       3.633   2.987  17.228  0.00  0.00    +0.000 A 
ATOM     25  C   UNL     1       2.514   2.245  17.583  0.00  0.00    +0.000 A 
ATOM     26  C   UNL     1       1.674   2.700  18.596  0.00  0.00    +0.000 A 
ATOM     27  C   UNL     1       1.959   3.893  19.271  0.00  0.00    +0.000 A 
ATOM     28 CL   UNL     1       0.839   4.390  20.489  0.00  0.00    +0.000 Cl
ENDBRANCH  21  22
ENDBRANCH   9  21
TORSDOF 5
ENDMDL
MODEL 7
REMARK VINA RESULT:      -8.0      6.724      7.890
REMARK  Name = 
REMARK  6 active torsions:
REMARK  status: ('A' for Active; 'I' for Inactive)
REMARK    1  A    between atoms: C_1  and  C_2
REMARK    2  A    between atoms: N_5  and  C_6
REMARK    3  A    between atoms: C_6  and  C_7
REMARK    4  A    between atoms: C_7  and  N_8
REMARK    5  A    between atoms: N_17  and  C_18
REMARK    6  A    between atoms: C_18  and  C_19
REMARK                            x       y       z     vdW  Elec       q    Type
REMARK                         _______ _______ _______ _____ _____    ______ ____
ROOT
ATOM      1  C   UNL     1      -0.012   9.089  22.599  0.00  0.00    +0.000 C 
ATOM      2  C   UNL     1       0.652   9.087  21.252  0.00  0.00    +0.000 A 
ATOM      3  N   UNL     1       0.446  10.181  20.473  0.00  0.00    +0.000 NA
ATOM      4  C   UNL     1       0.934  10.202  19.205  0.00  0.00    +0.000 A 
ATOM      5  N   UNL     1       0.771  11.309  18.378  0.00  0.00    +0.000 N 
ATOM      6  C   UNL     1       1.631   9.073  18.759  0.00  0.00    +0.000 A 
ATOM      7  N   UNL     1       2.219   8.753  17.563  0.00  0.00    +0.000 NA
ATOM      8  N   UNL     1       2.817   7.576  17.705  0.00  0.00    +0.000 NA
ATOM      9  N   UNL     1       2.657   7.195  18.995  0.00  0.00    +0.000 N 
ATOM     10  C   UNL     1       1.845   8.060  19.673  0.00  0.00    +0.000 A 
ATOM     11  N   UNL     1       1.380   7.992  20.934  0.00  0.00    +0.000 NA
ATOM     12  H   UNL     1       0.218  11.069  17.565  0.00  0.00    +0.000 HD
ENDROOT
BRANCH   5  13
ATOM     13  C   UNL     1       0.422  12.567  19.008  0.00  0.00    +0.000 C 
BRANCH  13  14
ATOM     14  C   UNL     1      -1.111  12.743  19.042  0.00  0.00    +0.000 C 
BRANCH  14  15
ATOM     15  N   UNL     1      -1.710  13.318  20.244  0.00  0.00    +0.000 NA
ATOM     16  C   UNL     1      -1.258  14.635  20.680  0.00  0.00    +0.000 C 
ATOM     17  C   UNL     1      -0.408  14.606  21.955  0.00  0.00    +0.000 C 
ATOM     18  O   UNL     1      -1.092  13.918  23.008  0.00  0.00    +0.000 OA
ATOM     19  C   UNL     1      -1.325  12.554  22.638  0.00  0.00    +0.000 C 
ATOM     20  C   UNL     1      -2.123  12.428  21.327  0.00  0.00    +0.000 C 
ENDBRANCH  14  15
ENDBRANCH  13  14
ENDBRANCH   5  13
BRANCH   9  21
ATOM     21  C   UNL     1       3.321   6.003  19.488  0.00  0.00    +0.000 C 
BRANCH  21  22
ATOM     22  C   UNL     1       2.510   4.749  19.226  0.00  0.00    +0.000 A 
ATOM     23  C   UNL     1       1.499   4.371  20.135  0.00  0.00    +0.000 A 
ATOM     24  C   UNL     1       0.731   3.221  19.931  0.00  0.00    +0.000 A 
ATOM     25  C   UNL     1       0.962   2.423  18.818  0.00  0.00    +0.000 A 
ATOM     26  C   UNL     1       1.969   2.762  17.919  0.00  0.00    +0.000 A 
ATOM     27  C   UNL     1       2.740   3.914  18.120  0.00  0.00    +0.000 A 
ATOM     28 CL   UNL     1       3.988   4.232  16.967  0.00  0.00    +0.000 Cl
ENDBRANCH  21  22
ENDBRANCH   9  21
TORSDOF 5
ENDMDL
MODEL 8
REMARK VINA RESULT:      -8.0      5.441      6.517
REMARK  Name = 
REMARK  6 active torsions:
REMARK  status: ('A' for Active; 'I' for Inactive)
REMARK    1  A    between atoms: C_1  and  C_2
REMARK    2  A    between atoms: N_5  and  C_6
REMARK    3  A    between atoms: C_6  and  C_7
REMARK    4  A    between atoms: C_7  and  N_8
REMARK    5  A    between atoms: N_17  and  C_18
REMARK    6  A    between atoms: C_18  and  C_19
REMARK                            x       y       z     vdW  Elec       q    Type
REMARK                         _______ _______ _______ _____ _____    ______ ____
ROOT
ATOM      1  C   UNL     1      -0.133   9.152  22.381  0.00  0.00    +0.000 C 
ATOM      2  C   UNL     1       0.613   9.111  21.079  0.00  0.00    +0.000 A 
ATOM      3  N   UNL     1       0.475  10.191  20.267  0.00  0.00    +0.000 NA
ATOM      4  C   UNL     1       1.041  10.178  19.031  0.00  0.00    +0.000 A 
ATOM      5  N   UNL     1       0.948  11.270  18.174  0.00  0.00    +0.000 N 
ATOM      6  C   UNL     1       1.745   9.029  18.653  0.00  0.00    +0.000 A 
ATOM      7  N   UNL     1       2.401   8.675  17.503  0.00  0.00    +0.000 NA
ATOM      8  N   UNL     1       2.970   7.492  17.706  0.00  0.00    +0.000 NA
ATOM      9  N   UNL     1       2.723   7.141  18.991  0.00  0.00    +0.000 N 
ATOM     10  C   UNL     1       1.885   8.033  19.599  0.00  0.00    +0.000 A 
ATOM     11  N   UNL     1       1.341   7.998  20.829  0.00  0.00    +0.000 NA
ATOM     12  H   UNL     1       0.442  11.021  17.333  0.00  0.00    +0.000 HD
ENDROOT
BRANCH   5  13
ATOM     13  C   UNL     1       0.582  12.546  18.756  0.00  0.00    +0.000 C 
BRANCH  13  14
ATOM     14  C   UNL     1       1.609  13.629  18.364  0.00  0.00    +0.000 C 
BRANCH  14  15
ATOM     15  N   UNL     1       2.680  13.935  19.310  0.00  0.00    +0.000 NA
ATOM     16  C   UNL     1       2.500  13.550  20.706  0.00  0.00    +0.000 C 
ATOM     17  C   UNL     1       2.267  14.736  21.649  0.00  0.00    +0.000 C 
ATOM     18  O   UNL     1       3.307  15.710  21.509  0.00  0.00    +0.000 OA
ATOM     19  C   UNL     1       3.314  16.238  20.179  0.00  0.00    +0.000 C 
ATOM     20  C   UNL     1       3.480  15.141  19.110  0.00  0.00    +0.000 C 
ENDBRANCH  14  15
ENDBRANCH  13  14
ENDBRANCH   5  13
BRANCH   9  21
ATOM     21  C   UNL     1       3.335   5.950  19.549  0.00  0.00    +0.000 C 
BRANCH  21  22
ATOM     22  C   UNL     1       2.497   4.711  19.303  0.00  0.00    +0.000 A 
ATOM     23  C   UNL     1       1.498   4.351  20.232  0.00  0.00    +0.000 A 
ATOM     24  C   UNL     1       0.706   3.214  20.045  0.00  0.00    +0.000 A 
ATOM     25  C   UNL     1       0.900   2.412  18.929  0.00  0.00    +0.000 A 
ATOM     26  C   UNL     1       1.895   2.733  18.009  0.00  0.00    +0.000 A 
ATOM     27  C   UNL     1       2.690   3.870  18.193  0.00  0.00    +0.000 A 
ATOM     28 CL   UNL     1       3.920   4.166  17.016  0.00  0.00    +0.000 Cl
ENDBRANCH  21  22
ENDBRANCH   9  21
TORSDOF 5
ENDMDL
MODEL 9
REMARK VINA RESULT:      -8.0      6.000      7.044
REMARK  Name = 
REMARK  6 active torsions:
REMARK  status: ('A' for Active; 'I' for Inactive)
REMARK    1  A    between atoms: C_1  and  C_2
REMARK    2  A    between atoms: N_5  and  C_6
REMARK    3  A    between atoms: C_6  and  C_7
REMARK    4  A    between atoms: C_7  and  N_8
REMARK    5  A    between atoms: N_17  and  C_18
REMARK    6  A    between atoms: C_18  and  C_19
REMARK                            x       y       z     vdW  Elec       q    Type
REMARK                         _______ _______ _______ _____ _____    ______ ____
ROOT
ATOM      1  C   UNL     1      -0.035   9.231  22.600  0.00  0.00    +0.000 C 
ATOM      2  C   UNL     1       0.608   9.209  21.244  0.00  0.00    +0.000 A 
ATOM      3  N   UNL     1       0.379  10.283  20.445  0.00  0.00    +0.000 NA
ATOM      4  C   UNL     1       0.847  10.283  19.169  0.00  0.00    +0.000 A 
ATOM      5  N   UNL     1       0.659  11.371  18.323  0.00  0.00    +0.000 N 
ATOM      6  C   UNL     1       1.549   9.153  18.736  0.00  0.00    +0.000 A 
ATOM      7  N   UNL     1       2.122   8.815  17.537  0.00  0.00    +0.000 NA
ATOM      8  N   UNL     1       2.735   7.647  17.695  0.00  0.00    +0.000 NA
ATOM      9  N   UNL     1       2.599   7.291  18.995  0.00  0.00    +0.000 N 
ATOM     10  C   UNL     1       1.788   8.162  19.668  0.00  0.00    +0.000 A 
ATOM     11  N   UNL     1       1.344   8.114  20.936  0.00  0.00    +0.000 NA
ATOM     12  H   UNL     1       0.095  11.109  17.524  0.00  0.00    +0.000 HD
ENDROOT
BRANCH   5  13
ATOM     13  C   UNL     1       0.306  12.638  18.932  0.00  0.00    +0.000 C 
BRANCH  13  14
ATOM     14  C   UNL     1       1.557  13.531  19.076  0.00  0.00    +0.000 C 
BRANCH  14  15
ATOM     15  N   UNL     1       1.457  14.927  18.656  0.00  0.00    +0.000 NA
ATOM     16  C   UNL     1       2.655  15.757  18.728  0.00  0.00    +0.000 C 
ATOM     17  C   UNL     1       2.609  16.810  19.842  0.00  0.00    +0.000 C 
ATOM     18  O   UNL     1       1.427  17.612  19.738  0.00  0.00    +0.000 OA
ATOM     19  C   UNL     1       0.262  16.796  19.896  0.00  0.00    +0.000 C 
ATOM     20  C   UNL     1       0.204  15.646  18.873  0.00  0.00    +0.000 C 
ENDBRANCH  14  15
ENDBRANCH  13  14
ENDBRANCH   5  13
BRANCH   9  21
ATOM     21  C   UNL     1       3.283   6.117  19.502  0.00  0.00    +0.000 C 
BRANCH  21  22
ATOM     22  C   UNL     1       2.477   4.851  19.288  0.00  0.00    +0.000 A 
ATOM     23  C   UNL     1       1.505   4.476  20.239  0.00  0.00    +0.000 A 
ATOM     24  C   UNL     1       0.742   3.315  20.081  0.00  0.00    +0.000 A 
ATOM     25  C   UNL     1       0.941   2.502  18.973  0.00  0.00    +0.000 A 
ATOM     26  C   UNL     1       1.911   2.838  18.032  0.00  0.00    +0.000 A 
ATOM     27  C   UNL     1       2.676   4.001  18.187  0.00  0.00    +0.000 A 
ATOM     28 CL   UNL     1       3.877   4.314  16.984  0.00  0.00    +0.000 Cl
ENDBRANCH  21  22
ENDBRANCH   9  21
TORSDOF 5
ENDMDL
