MODEL 1
REMARK VINA RESULT:      -8.2      0.000      0.000
REMARK  Name = 
REMARK  1 active torsions:
REMARK  status: ('A' for Active; 'I' for Inactive)
REMARK    1  A    between atoms: C_4  and  C_5
REMARK                            x       y       z     vdW  Elec       q    Type
REMARK                         _______ _______ _______ _____ _____    ______ ____
ROOT
ATOM      1  O   UNL     1       2.068   5.978  17.861  0.00  0.00    +0.000 OA
ATOM      2  C   UNL     1       2.741   4.955  17.949  0.00  0.00    +0.000 C 
ATOM      3  C   UNL     1       3.487   4.382  16.774  0.00  0.00    +0.000 C 
ATOM      4  C   UNL     1       4.795   3.740  17.239  0.00  0.00    +0.000 C 
ATOM      5  N   UNL     1       4.491   2.705  18.239  0.00  0.00    +0.000 N 
ATOM      6  C   UNL     1       3.654   3.085  19.301  0.00  0.00    +0.000 A 
ATOM      7  C   UNL     1       3.621   2.312  20.465  0.00  0.00    +0.000 A 
ATOM      8  C   UNL     1       2.798   2.670  21.539  0.00  0.00    +0.000 A 
ATOM      9  C   UNL     1       1.973   3.791  21.448  0.00  0.00    +0.000 A 
ATOM     10  C   UNL     1       1.956   4.545  20.279  0.00  0.00    +0.000 A 
ATOM     11  C   UNL     1       2.780   4.179  19.208  0.00  0.00    +0.000 A 
ATOM     12  H   UNL     1       5.290   2.142  18.514  0.00  0.00    +0.000 HD
ENDROOT
BRANCH   4  13
ATOM     13  C   UNL     1       5.857   4.739  17.693  0.00  0.00    +0.000 A 
ATOM     14  C   UNL     1       6.396   4.777  18.993  0.00  0.00    +0.000 A 
ATOM     15  C   UNL     1       7.337   5.747  19.351  0.00  0.00    +0.000 A 
ATOM     16  C   UNL     1       7.759   6.681  18.414  0.00  0.00    +0.000 A 
ATOM     17  F   UNL     1       8.655   7.611  18.767  0.00  0.00    +0.000 F 
ATOM     18  C   UNL     1       7.272   6.654  17.118  0.00  0.00    +0.000 A 
ATOM     19  C   UNL     1       6.339   5.683  16.770  0.00  0.00    +0.000 A 
ATOM     20  F   UNL     1       5.903   5.653  15.502  0.00  0.00    +0.000 F 
ENDBRANCH   4  13
TORSDOF 1
ENDMDL
MODEL 2
REMARK VINA RESULT:      -7.9      1.115      1.264
REMARK  Name = 
REMARK  1 active torsions:
REMARK  status: ('A' for Active; 'I' for Inactive)
REMARK    1  A    between atoms: C_4  and  C_5
REMARK                            x       y       z     vdW  Elec       q    Type
REMARK                         _______ _______ _______ _____ _____    ______ ____
ROOT
ATOM      1  O   UNL     1       2.049   7.114  19.880  0.00  0.00    +0.000 OA
ATOM      2  C   UNL     1       2.381   6.118  19.244  0.00  0.00    +0.000 C 
ATOM      3  C   UNL     1       2.609   6.154  17.757  0.00  0.00    +0.000 C 
ATOM      4  C   UNL     1       3.734   5.192  17.370  0.00  0.00    +0.000 C 
ATOM      5  N   UNL     1       3.385   3.838  17.827  0.00  0.00    +0.000 N 
ATOM      6  C   UNL     1       2.987   3.712  19.168  0.00  0.00    +0.000 A 
ATOM      7  C   UNL     1       3.006   2.455  19.779  0.00  0.00    +0.000 A 
ATOM      8  C   UNL     1       2.617   2.301  21.115  0.00  0.00    +0.000 A 
ATOM      9  C   UNL     1       2.174   3.402  21.848  0.00  0.00    +0.000 A 
ATOM     10  C   UNL     1       2.101   4.653  21.242  0.00  0.00    +0.000 A 
ATOM     11  C   UNL     1       2.489   4.797  19.905  0.00  0.00    +0.000 A 
ATOM     12  H   UNL     1       4.018   3.113  17.506  0.00  0.00    +0.000 HD
ENDROOT
BRANCH   4  13
ATOM     13  C   UNL     1       5.125   5.647  17.806  0.00  0.00    +0.000 A 
ATOM     14  C   UNL     1       5.801   5.141  18.931  0.00  0.00    +0.000 A 
ATOM     15  C   UNL     1       7.059   5.633  19.296  0.00  0.00    +0.000 A 
ATOM     16  C   UNL     1       7.659   6.626  18.534  0.00  0.00    +0.000 A 
ATOM     17  F   UNL     1       8.859   7.099  18.892  0.00  0.00    +0.000 F 
ATOM     18  C   UNL     1       7.035   7.126  17.402  0.00  0.00    +0.000 A 
ATOM     19  C   UNL     1       5.787   6.627  17.046  0.00  0.00    +0.000 A 
ATOM     20  F   UNL     1       5.214   7.100  15.930  0.00  0.00    +0.000 F 
ENDBRANCH   4  13
TORSDOF 1
ENDMDL
MODEL 3
REMARK VINA RESULT:      -7.9      1.253      1.346
REMARK  Name = 
REMARK  1 active torsions:
REMARK  status: ('A' for Active; 'I' for Inactive)
REMARK    1  A    between atoms: C_4  and  C_5
REMARK                            x       y       z     vdW  Elec       q    Type
REMARK                         _______ _______ _______ _____ _____    ______ ____
ROOT
ATOM      1  O   UNL     1       1.056   4.375  17.265  0.00  0.00    +0.000 OA
ATOM      2  C   UNL     1       1.955   3.643  17.669  0.00  0.00    +0.000 C 
ATOM      3  C   UNL     1       2.886   2.923  16.731  0.00  0.00    +0.000 C 
ATOM      4  C   UNL     1       4.284   2.822  17.345  0.00  0.00    +0.000 C 
ATOM      5  N   UNL     1       4.188   2.133  18.641  0.00  0.00    +0.000 N 
ATOM      6  C   UNL     1       3.224   2.617  19.540  0.00  0.00    +0.000 A 
ATOM      7  C   UNL     1       3.315   2.289  20.895  0.00  0.00    +0.000 A 
ATOM      8  C   UNL     1       2.369   2.760  21.812  0.00  0.00    +0.000 A 
ATOM      9  C   UNL     1       1.299   3.542  21.378  0.00  0.00    +0.000 A 
ATOM     10  C   UNL     1       1.163   3.839  20.025  0.00  0.00    +0.000 A 
ATOM     11  C   UNL     1       2.113   3.361  19.114  0.00  0.00    +0.000 A 
ATOM     12  H   UNL     1       5.084   1.914  19.065  0.00  0.00    +0.000 HD
ENDROOT
BRANCH   4  13
ATOM     13  C   UNL     1       5.037   4.150  17.410  0.00  0.00    +0.000 A 
ATOM     14  C   UNL     1       5.518   4.723  18.602  0.00  0.00    +0.000 A 
ATOM     15  C   UNL     1       6.165   5.963  18.591  0.00  0.00    +0.000 A 
ATOM     16  C   UNL     1       6.349   6.637  17.392  0.00  0.00    +0.000 A 
ATOM     17  F   UNL     1       6.962   7.827  17.390  0.00  0.00    +0.000 F 
ATOM     18  C   UNL     1       5.915   6.087  16.197  0.00  0.00    +0.000 A 
ATOM     19  C   UNL     1       5.276   4.852  16.217  0.00  0.00    +0.000 A 
ATOM     20  F   UNL     1       4.892   4.322  15.046  0.00  0.00    +0.000 F 
ENDBRANCH   4  13
TORSDOF 1
ENDMDL
MODEL 4
REMARK VINA RESULT:      -7.8      2.872      5.680
REMARK  Name = 
REMARK  1 active torsions:
REMARK  status: ('A' for Active; 'I' for Inactive)
REMARK    1  A    between atoms: C_4  and  C_5
REMARK                            x       y       z     vdW  Elec       q    Type
REMARK                         _______ _______ _______ _____ _____    ______ ____
ROOT
ATOM      1  O   UNL     1       3.806   7.329  17.559  0.00  0.00    +0.000 OA
ATOM      2  C   UNL     1       4.540   6.382  17.824  0.00  0.00    +0.000 C 
ATOM      3  C   UNL     1       4.810   5.946  19.239  0.00  0.00    +0.000 C 
ATOM      4  C   UNL     1       4.976   4.427  19.303  0.00  0.00    +0.000 C 
ATOM      5  N   UNL     1       6.066   4.026  18.400  0.00  0.00    +0.000 N 
ATOM      6  C   UNL     1       6.008   4.520  17.087  0.00  0.00    +0.000 A 
ATOM      7  C   UNL     1       6.762   3.906  16.083  0.00  0.00    +0.000 A 
ATOM      8  C   UNL     1       6.720   4.378  14.766  0.00  0.00    +0.000 A 
ATOM      9  C   UNL     1       5.944   5.491  14.443  0.00  0.00    +0.000 A 
ATOM     10  C   UNL     1       5.225   6.146  15.438  0.00  0.00    +0.000 A 
ATOM     11  C   UNL     1       5.275   5.670  16.754  0.00  0.00    +0.000 A 
ATOM     12  H   UNL     1       6.327   3.048  18.470  0.00  0.00    +0.000 HD
ENDROOT
BRANCH   4  13
ATOM     13  C   UNL     1       3.681   3.645  19.086  0.00  0.00    +0.000 A 
ATOM     14  C   UNL     1       3.489   2.715  18.047  0.00  0.00    +0.000 A 
ATOM     15  C   UNL     1       2.262   2.065  17.884  0.00  0.00    +0.000 A 
ATOM     16  C   UNL     1       1.219   2.327  18.762  0.00  0.00    +0.000 A 
ATOM     17  F   UNL     1       0.044   1.707  18.596  0.00  0.00    +0.000 F 
ATOM     18  C   UNL     1       1.383   3.214  19.813  0.00  0.00    +0.000 A 
ATOM     19  C   UNL     1       2.608   3.853  19.969  0.00  0.00    +0.000 A 
ATOM     20  F   UNL     1       2.758   4.683  21.011  0.00  0.00    +0.000 F 
ENDBRANCH   4  13
TORSDOF 1
ENDMDL
MODEL 5
REMARK VINA RESULT:      -7.8      3.050      5.304
REMARK  Name = 
REMARK  1 active torsions:
REMARK  status: ('A' for Active; 'I' for Inactive)
REMARK    1  A    between atoms: C_4  and  C_5
REMARK                            x       y       z     vdW  Elec       q    Type
REMARK                         _______ _______ _______ _____ _____    ______ ____
ROOT
ATOM      1  O   UNL     1       6.710   5.127  19.709  0.00  0.00    +0.000 OA
ATOM      2  C   UNL     1       5.817   4.675  18.998  0.00  0.00    +0.000 C 
ATOM      3  C   UNL     1       4.612   3.978  19.569  0.00  0.00    +0.000 C 
ATOM      4  C   UNL     1       3.376   4.269  18.715  0.00  0.00    +0.000 C 
ATOM      5  N   UNL     1       3.639   3.842  17.332  0.00  0.00    +0.000 N 
ATOM      6  C   UNL     1       4.833   4.298  16.750  0.00  0.00    +0.000 A 
ATOM      7  C   UNL     1       4.982   4.265  15.361  0.00  0.00    +0.000 A 
ATOM      8  C   UNL     1       6.160   4.716  14.756  0.00  0.00    +0.000 A 
ATOM      9  C   UNL     1       7.219   5.178  15.537  0.00  0.00    +0.000 A 
ATOM     10  C   UNL     1       7.109   5.172  16.924  0.00  0.00    +0.000 A 
ATOM     11  C   UNL     1       5.928   4.717  17.522  0.00  0.00    +0.000 A 
ATOM     12  H   UNL     1       2.830   3.885  16.721  0.00  0.00    +0.000 HD
ENDROOT
BRANCH   4  13
ATOM     13  C   UNL     1       2.861   5.703  18.826  0.00  0.00    +0.000 A 
ATOM     14  C   UNL     1       2.921   6.643  17.781  0.00  0.00    +0.000 A 
ATOM     15  C   UNL     1       2.466   7.952  17.967  0.00  0.00    +0.000 A 
ATOM     16  C   UNL     1       1.937   8.333  19.193  0.00  0.00    +0.000 A 
ATOM     17  F   UNL     1       1.510   9.590  19.366  0.00  0.00    +0.000 F 
ATOM     18  C   UNL     1       1.835   7.424  20.233  0.00  0.00    +0.000 A 
ATOM     19  C   UNL     1       2.287   6.124  20.038  0.00  0.00    +0.000 A 
ATOM     20  F   UNL     1       2.150   5.251  21.047  0.00  0.00    +0.000 F 
ENDBRANCH   4  13
TORSDOF 1
ENDMDL
MODEL 6
REMARK VINA RESULT:      -7.6      3.508      4.609
REMARK  Name = 
REMARK  1 active torsions:
REMARK  status: ('A' for Active; 'I' for Inactive)
REMARK    1  A    between atoms: C_4  and  C_5
REMARK                            x       y       z     vdW  Elec       q    Type
REMARK                         _______ _______ _______ _____ _____    ______ ____
ROOT
ATOM      1  O   UNL     1       1.004   4.421  17.133  0.00  0.00    +0.000 OA
ATOM      2  C   UNL     1       1.862   4.707  17.964  0.00  0.00    +0.000 C 
ATOM      3  C   UNL     1       3.033   5.593  17.637  0.00  0.00    +0.000 C 
ATOM      4  C   UNL     1       3.414   6.439  18.853  0.00  0.00    +0.000 C 
ATOM      5  N   UNL     1       3.714   5.546  19.983  0.00  0.00    +0.000 N 
ATOM      6  C   UNL     1       2.759   4.559  20.273  0.00  0.00    +0.000 A 
ATOM      7  C   UNL     1       2.771   3.932  21.523  0.00  0.00    +0.000 A 
ATOM      8  C   UNL     1       1.828   2.947  21.839  0.00  0.00    +0.000 A 
ATOM      9  C   UNL     1       0.880   2.554  20.896  0.00  0.00    +0.000 A 
ATOM     10  C   UNL     1       0.883   3.131  19.629  0.00  0.00    +0.000 A 
ATOM     11  C   UNL     1       1.830   4.114  19.320  0.00  0.00    +0.000 A 
ATOM     12  H   UNL     1       4.094   6.017  20.798  0.00  0.00    +0.000 HD
ENDROOT
BRANCH   4  13
ATOM     13  C   UNL     1       2.408   7.538  19.191  0.00  0.00    +0.000 A 
ATOM     14  C   UNL     1       1.774   7.666  20.440  0.00  0.00    +0.000 A 
ATOM     15  C   UNL     1       0.832   8.675  20.667  0.00  0.00    +0.000 A 
ATOM     16  C   UNL     1       0.522   9.572  19.654  0.00  0.00    +0.000 A 
ATOM     17  F   UNL     1      -0.386  10.530  19.875  0.00  0.00    +0.000 F 
ATOM     18  C   UNL     1       1.150   9.493  18.422  0.00  0.00    +0.000 A 
ATOM     19  C   UNL     1       2.088   8.489  18.207  0.00  0.00    +0.000 A 
ATOM     20  F   UNL     1       2.707   8.449  17.019  0.00  0.00    +0.000 F 
ENDBRANCH   4  13
TORSDOF 1
ENDMDL
MODEL 7
REMARK VINA RESULT:      -7.6      3.017      5.313
REMARK  Name = 
REMARK  1 active torsions:
REMARK  status: ('A' for Active; 'I' for Inactive)
REMARK    1  A    between atoms: C_4  and  C_5
REMARK                            x       y       z     vdW  Elec       q    Type
REMARK                         _______ _______ _______ _____ _____    ______ ____
ROOT
ATOM      1  O   UNL     1       5.474   3.477  19.692  0.00  0.00    +0.000 OA
ATOM      2  C   UNL     1       5.196   4.265  18.793  0.00  0.00    +0.000 C 
ATOM      3  C   UNL     1       3.995   4.078  17.905  0.00  0.00    +0.000 C 
ATOM      4  C   UNL     1       3.402   5.436  17.523  0.00  0.00    +0.000 C 
ATOM      5  N   UNL     1       4.440   6.242  16.861  0.00  0.00    +0.000 N 
ATOM      6  C   UNL     1       5.673   6.345  17.525  0.00  0.00    +0.000 A 
ATOM      7  C   UNL     1       6.560   7.368  17.179  0.00  0.00    +0.000 A 
ATOM      8  C   UNL     1       7.795   7.494  17.826  0.00  0.00    +0.000 A 
ATOM      9  C   UNL     1       8.170   6.578  18.809  0.00  0.00    +0.000 A 
ATOM     10  C   UNL     1       7.321   5.525  19.132  0.00  0.00    +0.000 A 
ATOM     11  C   UNL     1       6.089   5.403  18.478  0.00  0.00    +0.000 A 
ATOM     12  H   UNL     1       4.101   7.113  16.464  0.00  0.00    +0.000 HD
ENDROOT
BRANCH   4  13
ATOM     13  C   UNL     1       2.703   6.160  18.671  0.00  0.00    +0.000 A 
ATOM     14  C   UNL     1       2.294   5.532  19.862  0.00  0.00    +0.000 A 
ATOM     15  C   UNL     1       1.621   6.249  20.858  0.00  0.00    +0.000 A 
ATOM     16  C   UNL     1       1.361   7.601  20.679  0.00  0.00    +0.000 A 
ATOM     17  F   UNL     1       0.709   8.280  21.632  0.00  0.00    +0.000 F 
ATOM     18  C   UNL     1       1.776   8.257  19.532  0.00  0.00    +0.000 A 
ATOM     19  C   UNL     1       2.447   7.536  18.550  0.00  0.00    +0.000 A 
ATOM     20  F   UNL     1       2.869   8.196  17.462  0.00  0.00    +0.000 F 
ENDBRANCH   4  13
TORSDOF 1
ENDMDL
MODEL 8
REMARK VINA RESULT:      -7.5      1.407      1.686
REMARK  Name = 
REMARK  1 active torsions:
REMARK  status: ('A' for Active; 'I' for Inactive)
REMARK    1  A    between atoms: C_4  and  C_5
REMARK                            x       y       z     vdW  Elec       q    Type
REMARK                         _______ _______ _______ _____ _____    ______ ____
ROOT
ATOM      1  O   UNL     1       1.010   4.374  17.185  0.00  0.00    +0.000 OA
ATOM      2  C   UNL     1       2.001   3.756  17.563  0.00  0.00    +0.000 C 
ATOM      3  C   UNL     1       3.010   3.190  16.601  0.00  0.00    +0.000 C 
ATOM      4  C   UNL     1       4.414   3.256  17.205  0.00  0.00    +0.000 C 
ATOM      5  N   UNL     1       4.420   2.525  18.482  0.00  0.00    +0.000 N 
ATOM      6  C   UNL     1       3.409   2.854  19.398  0.00  0.00    +0.000 A 
ATOM      7  C   UNL     1       3.554   2.503  20.743  0.00  0.00    +0.000 A 
ATOM      8  C   UNL     1       2.561   2.820  21.678  0.00  0.00    +0.000 A 
ATOM      9  C   UNL     1       1.395   3.467  21.271  0.00  0.00    +0.000 A 
ATOM     10  C   UNL     1       1.210   3.780  19.928  0.00  0.00    +0.000 A 
ATOM     11  C   UNL     1       2.206   3.457  18.999  0.00  0.00    +0.000 A 
ATOM     12  H   UNL     1       5.341   2.413  18.894  0.00  0.00    +0.000 HD
ENDROOT
BRANCH   4  13
ATOM     13  C   UNL     1       4.988   4.669  17.304  0.00  0.00    +0.000 A 
ATOM     14  C   UNL     1       4.204   5.837  17.294  0.00  0.00    +0.000 A 
ATOM     15  C   UNL     1       4.800   7.102  17.348  0.00  0.00    +0.000 A 
ATOM     16  C   UNL     1       6.182   7.211  17.424  0.00  0.00    +0.000 A 
ATOM     17  F   UNL     1       6.746   8.425  17.467  0.00  0.00    +0.000 F 
ATOM     18  C   UNL     1       6.981   6.081  17.466  0.00  0.00    +0.000 A 
ATOM     19  C   UNL     1       6.379   4.829  17.416  0.00  0.00    +0.000 A 
ATOM     20  F   UNL     1       7.168   3.747  17.491  0.00  0.00    +0.000 F 
ENDBRANCH   4  13
TORSDOF 1
ENDMDL
MODEL 9
REMARK VINA RESULT:      -7.5      2.838      5.695
REMARK  Name = 
REMARK  1 active torsions:
REMARK  status: ('A' for Active; 'I' for Inactive)
REMARK    1  A    between atoms: C_4  and  C_5
REMARK                            x       y       z     vdW  Elec       q    Type
REMARK                         _______ _______ _______ _____ _____    ______ ____
ROOT
ATOM      1  O   UNL     1       4.109   7.420  17.466  0.00  0.00    +0.000 OA
ATOM      2  C   UNL     1       4.748   6.396  17.690  0.00  0.00    +0.000 C 
ATOM      3  C   UNL     1       5.021   5.910  19.088  0.00  0.00    +0.000 C 
ATOM      4  C   UNL     1       5.026   4.381  19.126  0.00  0.00    +0.000 C 
ATOM      5  N   UNL     1       6.034   3.882  18.177  0.00  0.00    +0.000 N 
ATOM      6  C   UNL     1       5.980   4.402  16.873  0.00  0.00    +0.000 A 
ATOM      7  C   UNL     1       6.626   3.729  15.833  0.00  0.00    +0.000 A 
ATOM      8  C   UNL     1       6.586   4.224  14.525  0.00  0.00    +0.000 A 
ATOM      9  C   UNL     1       5.922   5.419  14.246  0.00  0.00    +0.000 A 
ATOM     10  C   UNL     1       5.315   6.129  15.277  0.00  0.00    +0.000 A 
ATOM     11  C   UNL     1       5.362   5.628  16.583  0.00  0.00    +0.000 A 
ATOM     12  H   UNL     1       6.192   2.881  18.224  0.00  0.00    +0.000 HD
ENDROOT
BRANCH   4  13
ATOM     13  C   UNL     1       3.649   3.745  18.949  0.00  0.00    +0.000 A 
ATOM     14  C   UNL     1       2.535   4.419  18.416  0.00  0.00    +0.000 A 
ATOM     15  C   UNL     1       1.291   3.786  18.320  0.00  0.00    +0.000 A 
ATOM     16  C   UNL     1       1.150   2.472  18.744  0.00  0.00    +0.000 A 
ATOM     17  F   UNL     1      -0.045   1.875  18.657  0.00  0.00    +0.000 F 
ATOM     18  C   UNL     1       2.233   1.769  19.246  0.00  0.00    +0.000 A 
ATOM     19  C   UNL     1       3.466   2.406  19.334  0.00  0.00    +0.000 A 
ATOM     20  F   UNL     1       4.509   1.699  19.792  0.00  0.00    +0.000 F 
ENDBRANCH   4  13
TORSDOF 1
ENDMDL
