MODEL 1
REMARK VINA RESULT:      -8.4      0.000      0.000
REMARK  Name = 
REMARK  5 active torsions:
REMARK  status: ('A' for Active; 'I' for Inactive)
REMARK    1  A    between atoms: C_1  and  C_2
REMARK    2  A    between atoms: C_4  and  C_5
REMARK    3  A    between atoms: N_13  and  S_14
REMARK    4  A    between atoms: S_14  and  O_17
REMARK    5  A    between atoms: O_17  and  C_18
REMARK                            x       y       z     vdW  Elec       q    Type
REMARK                         _______ _______ _______ _____ _____    ______ ____
ROOT
ATOM      1  C   UNL     1       4.121   7.433  17.904  0.00  0.00    +0.000 C 
ATOM      2  C   UNL     1       4.796   6.388  17.096  0.00  0.00    +0.000 A 
ATOM      3  C   UNL     1       5.070   6.393  15.743  0.00  0.00    +0.000 A 
ATOM      4  C   UNL     1       5.732   5.172  15.458  0.00  0.00    +0.000 A 
ATOM      5  N   UNL     1       5.835   4.424  16.564  0.00  0.00    +0.000 NA
ATOM      6  N   UNL     1       5.355   5.213  17.574  0.00  0.00    +0.000 N 
ENDROOT
BRANCH   4   7
ATOM      7  C   UNL     1       6.265   4.728  14.167  0.00  0.00    +0.000 A 
ATOM      8  C   UNL     1       7.353   5.390  13.578  0.00  0.00    +0.000 A 
ATOM      9  C   UNL     1       7.837   4.996  12.328  0.00  0.00    +0.000 A 
ATOM     10  C   UNL     1       7.243   3.931  11.653  0.00  0.00    +0.000 A 
ATOM     11  C   UNL     1       6.168   3.263  12.236  0.00  0.00    +0.000 A 
ATOM     12 CL   UNL     1       5.432   1.945  11.408  0.00  0.00    +0.000 Cl
ATOM     13  C   UNL     1       5.677   3.654  13.483  0.00  0.00    +0.000 A 
ENDBRANCH   4   7
BRANCH   6  14
ATOM     14  S   UNL     1       5.400   4.724  19.268  0.00  0.00    +0.000 S 
ATOM     15  O   UNL     1       5.388   3.270  19.210  0.00  0.00    +0.000 OA
ATOM     16  O   UNL     1       6.525   5.429  19.854  0.00  0.00    +0.000 OA
BRANCH  14  17
ATOM     17  O   UNL     1       4.016   5.253  19.970  0.00  0.00    +0.000 OA
BRANCH  17  18
ATOM     18  C   UNL     1       2.898   4.450  19.999  0.00  0.00    +0.000 A 
ATOM     19  C   UNL     1       2.224   4.273  18.788  0.00  0.00    +0.000 A 
ATOM     20  C   UNL     1       1.076   3.474  18.725  0.00  0.00    +0.000 A 
ATOM     21  C   UNL     1       0.607   2.835  19.874  0.00  0.00    +0.000 A 
ATOM     22  C   UNL     1       1.289   2.990  21.077  0.00  0.00    +0.000 A 
ATOM     23  C   UNL     1       2.434   3.789  21.138  0.00  0.00    +0.000 A 
ENDBRANCH  17  18
ENDBRANCH  14  17
ENDBRANCH   6  14
TORSDOF 4
ENDMDL
MODEL 2
REMARK VINA RESULT:      -8.4      3.289      7.110
REMARK  Name = 
REMARK  5 active torsions:
REMARK  status: ('A' for Active; 'I' for Inactive)
REMARK    1  A    between atoms: C_1  and  C_2
REMARK    2  A    between atoms: C_4  and  C_5
REMARK    3  A    between atoms: N_13  and  S_14
REMARK    4  A    between atoms: S_14  and  O_17
REMARK    5  A    between atoms: O_17  and  C_18
REMARK                            x       y       z     vdW  Elec       q    Type
REMARK                         _______ _______ _______ _____ _____    ______ ____
ROOT
ATOM      1  C   UNL     1       7.813   5.814  19.167  0.00  0.00    +0.000 C 
ATOM      2  C   UNL     1       6.455   5.389  18.751  0.00  0.00    +0.000 A 
ATOM      3  C   UNL     1       5.507   4.705  19.484  0.00  0.00    +0.000 A 
ATOM      4  C   UNL     1       4.377   4.547  18.642  0.00  0.00    +0.000 A 
ATOM      5  N   UNL     1       4.616   5.069  17.433  0.00  0.00    +0.000 NA
ATOM      6  N   UNL     1       5.842   5.668  17.539  0.00  0.00    +0.000 N 
ENDROOT
BRANCH   4   7
ATOM      7  C   UNL     1       3.095   3.922  18.980  0.00  0.00    +0.000 A 
ATOM      8  C   UNL     1       2.097   3.771  18.005  0.00  0.00    +0.000 A 
ATOM      9  C   UNL     1       0.857   3.215  18.332  0.00  0.00    +0.000 A 
ATOM     10  C   UNL     1       0.604   2.796  19.637  0.00  0.00    +0.000 A 
ATOM     11  C   UNL     1       1.594   2.933  20.608  0.00  0.00    +0.000 A 
ATOM     12 CL   UNL     1       1.286   2.415  22.220  0.00  0.00    +0.000 Cl
ATOM     13  C   UNL     1       2.832   3.492  20.288  0.00  0.00    +0.000 A 
ENDBRANCH   4   7
BRANCH   6  14
ATOM     14  S   UNL     1       6.553   6.621  16.235  0.00  0.00    +0.000 S 
ATOM     15  O   UNL     1       5.426   6.904  15.359  0.00  0.00    +0.000 OA
ATOM     16  O   UNL     1       7.273   7.702  16.882  0.00  0.00    +0.000 OA
BRANCH  14  17
ATOM     17  O   UNL     1       7.625   5.661  15.452  0.00  0.00    +0.000 OA
BRANCH  17  18
ATOM     18  C   UNL     1       7.261   5.008  14.296  0.00  0.00    +0.000 A 
ATOM     19  C   UNL     1       6.244   4.056  14.408  0.00  0.00    +0.000 A 
ATOM     20  C   UNL     1       5.812   3.344  13.283  0.00  0.00    +0.000 A 
ATOM     21  C   UNL     1       6.386   3.593  12.035  0.00  0.00    +0.000 A 
ATOM     22  C   UNL     1       7.384   4.556  11.915  0.00  0.00    +0.000 A 
ATOM     23  C   UNL     1       7.815   5.266  13.039  0.00  0.00    +0.000 A 
ENDBRANCH  17  18
ENDBRANCH  14  17
ENDBRANCH   6  14
TORSDOF 4
ENDMDL
MODEL 3
REMARK VINA RESULT:      -8.0      2.005      2.813
REMARK  Name = 
REMARK  5 active torsions:
REMARK  status: ('A' for Active; 'I' for Inactive)
REMARK    1  A    between atoms: C_1  and  C_2
REMARK    2  A    between atoms: C_4  and  C_5
REMARK    3  A    between atoms: N_13  and  S_14
REMARK    4  A    between atoms: S_14  and  O_17
REMARK    5  A    between atoms: O_17  and  C_18
REMARK                            x       y       z     vdW  Elec       q    Type
REMARK                         _______ _______ _______ _____ _____    ______ ____
ROOT
ATOM      1  C   UNL     1       7.102   5.455  19.407  0.00  0.00    +0.000 C 
ATOM      2  C   UNL     1       6.625   5.054  18.061  0.00  0.00    +0.000 A 
ATOM      3  C   UNL     1       7.288   5.143  16.854  0.00  0.00    +0.000 A 
ATOM      4  C   UNL     1       6.411   4.623  15.868  0.00  0.00    +0.000 A 
ATOM      5  N   UNL     1       5.246   4.262  16.421  0.00  0.00    +0.000 NA
ATOM      6  N   UNL     1       5.421   4.432  17.767  0.00  0.00    +0.000 N 
ENDROOT
BRANCH   4   7
ATOM      7  C   UNL     1       6.675   4.464  14.436  0.00  0.00    +0.000 A 
ATOM      8  C   UNL     1       7.570   5.320  13.776  0.00  0.00    +0.000 A 
ATOM      9  C   UNL     1       7.793   5.198  12.401  0.00  0.00    +0.000 A 
ATOM     10  C   UNL     1       7.129   4.214  11.672  0.00  0.00    +0.000 A 
ATOM     11  C   UNL     1       6.246   3.355  12.322  0.00  0.00    +0.000 A 
ATOM     12 CL   UNL     1       5.425   2.136  11.426  0.00  0.00    +0.000 Cl
ATOM     13  C   UNL     1       6.016   3.474  13.694  0.00  0.00    +0.000 A 
ENDBRANCH   4   7
BRANCH   6  14
ATOM     14  S   UNL     1       4.203   3.963  18.954  0.00  0.00    +0.000 S 
ATOM     15  O   UNL     1       3.035   3.649  18.145  0.00  0.00    +0.000 OA
ATOM     16  O   UNL     1       4.824   2.944  19.778  0.00  0.00    +0.000 OA
BRANCH  14  17
ATOM     17  O   UNL     1       3.886   5.277  19.880  0.00  0.00    +0.000 OA
BRANCH  17  18
ATOM     18  C   UNL     1       3.233   6.365  19.347  0.00  0.00    +0.000 A 
ATOM     19  C   UNL     1       2.281   6.985  20.162  0.00  0.00    +0.000 A 
ATOM     20  C   UNL     1       1.569   8.098  19.699  0.00  0.00    +0.000 A 
ATOM     21  C   UNL     1       1.817   8.605  18.423  0.00  0.00    +0.000 A 
ATOM     22  C   UNL     1       2.780   8.005  17.618  0.00  0.00    +0.000 A 
ATOM     23  C   UNL     1       3.490   6.894  18.079  0.00  0.00    +0.000 A 
ENDBRANCH  17  18
ENDBRANCH  14  17
ENDBRANCH   6  14
TORSDOF 4
ENDMDL
MODEL 4
REMARK VINA RESULT:      -7.9      4.230      7.148
REMARK  Name = 
REMARK  5 active torsions:
REMARK  status: ('A' for Active; 'I' for Inactive)
REMARK    1  A    between atoms: C_1  and  C_2
REMARK    2  A    between atoms: C_4  and  C_5
REMARK    3  A    between atoms: N_13  and  S_14
REMARK    4  A    between atoms: S_14  and  O_17
REMARK    5  A    between atoms: O_17  and  C_18
REMARK                            x       y       z     vdW  Elec       q    Type
REMARK                         _______ _______ _______ _____ _____    ______ ____
ROOT
ATOM      1  C   UNL     1       2.396   3.108  21.550  0.00  0.00    +0.000 C 
ATOM      2  C   UNL     1       2.427   4.275  20.636  0.00  0.00    +0.000 A 
ATOM      3  C   UNL     1       1.862   5.522  20.816  0.00  0.00    +0.000 A 
ATOM      4  C   UNL     1       2.178   6.283  19.663  0.00  0.00    +0.000 A 
ATOM      5  N   UNL     1       2.872   5.543  18.788  0.00  0.00    +0.000 NA
ATOM      6  N   UNL     1       3.106   4.357  19.430  0.00  0.00    +0.000 N 
ENDROOT
BRANCH   4   7
ATOM      7  C   UNL     1       1.839   7.683  19.399  0.00  0.00    +0.000 A 
ATOM      8  C   UNL     1       2.157   8.275  18.166  0.00  0.00    +0.000 A 
ATOM      9  C   UNL     1       1.873   9.622  17.925  0.00  0.00    +0.000 A 
ATOM     10  C   UNL     1       1.262  10.393  18.912  0.00  0.00    +0.000 A 
ATOM     11  C   UNL     1       0.934   9.810  20.135  0.00  0.00    +0.000 A 
ATOM     12 CL   UNL     1       0.176  10.757  21.356  0.00  0.00    +0.000 Cl
ATOM     13  C   UNL     1       1.219   8.466  20.383  0.00  0.00    +0.000 A 
ENDBRANCH   4   7
BRANCH   6  14
ATOM     14  S   UNL     1       4.107   3.080  18.738  0.00  0.00    +0.000 S 
ATOM     15  O   UNL     1       5.098   2.819  19.772  0.00  0.00    +0.000 OA
ATOM     16  O   UNL     1       3.187   2.039  18.319  0.00  0.00    +0.000 OA
BRANCH  14  17
ATOM     17  O   UNL     1       4.850   3.699  17.415  0.00  0.00    +0.000 OA
BRANCH  17  18
ATOM     18  C   UNL     1       5.723   4.757  17.536  0.00  0.00    +0.000 A 
ATOM     19  C   UNL     1       5.352   5.950  16.911  0.00  0.00    +0.000 A 
ATOM     20  C   UNL     1       6.181   7.076  16.982  0.00  0.00    +0.000 A 
ATOM     21  C   UNL     1       7.380   7.017  17.694  0.00  0.00    +0.000 A 
ATOM     22  C   UNL     1       7.742   5.837  18.337  0.00  0.00    +0.000 A 
ATOM     23  C   UNL     1       6.915   4.713  18.265  0.00  0.00    +0.000 A 
ENDBRANCH  17  18
ENDBRANCH  14  17
ENDBRANCH   6  14
TORSDOF 4
ENDMDL
MODEL 5
REMARK VINA RESULT:      -7.8      1.608      1.999
REMARK  Name = 
REMARK  5 active torsions:
REMARK  status: ('A' for Active; 'I' for Inactive)
REMARK    1  A    between atoms: C_1  and  C_2
REMARK    2  A    between atoms: C_4  and  C_5
REMARK    3  A    between atoms: N_13  and  S_14
REMARK    4  A    between atoms: S_14  and  O_17
REMARK    5  A    between atoms: O_17  and  C_18
REMARK                            x       y       z     vdW  Elec       q    Type
REMARK                         _______ _______ _______ _____ _____    ______ ____
ROOT
ATOM      1  C   UNL     1       6.553   5.489  19.401  0.00  0.00    +0.000 C 
ATOM      2  C   UNL     1       6.217   5.460  17.957  0.00  0.00    +0.000 A 
ATOM      3  C   UNL     1       6.978   4.985  16.908  0.00  0.00    +0.000 A 
ATOM      4  C   UNL     1       6.211   5.175  15.730  0.00  0.00    +0.000 A 
ATOM      5  N   UNL     1       5.047   5.770  16.019  0.00  0.00    +0.000 NA
ATOM      6  N   UNL     1       5.015   5.848  17.385  0.00  0.00    +0.000 N 
ENDROOT
BRANCH   4   7
ATOM      7  C   UNL     1       6.570   4.791  14.362  0.00  0.00    +0.000 A 
ATOM      8  C   UNL     1       7.610   5.447  13.686  0.00  0.00    +0.000 A 
ATOM      9  C   UNL     1       7.927   5.113  12.367  0.00  0.00    +0.000 A 
ATOM     10  C   UNL     1       7.213   4.113  11.710  0.00  0.00    +0.000 A 
ATOM     11  C   UNL     1       6.186   3.450  12.378  0.00  0.00    +0.000 A 
ATOM     12 CL   UNL     1       5.302   2.213  11.571  0.00  0.00    +0.000 Cl
ATOM     13  C   UNL     1       5.861   3.782  13.694  0.00  0.00    +0.000 A 
ENDBRANCH   4   7
BRANCH   6  14
ATOM     14  S   UNL     1       3.612   6.443  18.273  0.00  0.00    +0.000 S 
ATOM     15  O   UNL     1       3.886   6.061  19.650  0.00  0.00    +0.000 OA
ATOM     16  O   UNL     1       3.477   7.841  17.909  0.00  0.00    +0.000 OA
BRANCH  14  17
ATOM     17  O   UNL     1       2.301   5.622  17.730  0.00  0.00    +0.000 OA
BRANCH  17  18
ATOM     18  C   UNL     1       2.025   4.359  18.203  0.00  0.00    +0.000 A 
ATOM     19  C   UNL     1       2.602   3.291  17.510  0.00  0.00    +0.000 A 
ATOM     20  C   UNL     1       2.372   1.973  17.921  0.00  0.00    +0.000 A 
ATOM     21  C   UNL     1       1.576   1.718  19.039  0.00  0.00    +0.000 A 
ATOM     22  C   UNL     1       1.018   2.780  19.744  0.00  0.00    +0.000 A 
ATOM     23  C   UNL     1       1.247   4.095  19.333  0.00  0.00    +0.000 A 
ENDBRANCH  17  18
ENDBRANCH  14  17
ENDBRANCH   6  14
TORSDOF 4
ENDMDL
MODEL 6
REMARK VINA RESULT:      -7.8      5.330      6.649
REMARK  Name = 
REMARK  5 active torsions:
REMARK  status: ('A' for Active; 'I' for Inactive)
REMARK    1  A    between atoms: C_1  and  C_2
REMARK    2  A    between atoms: C_4  and  C_5
REMARK    3  A    between atoms: N_13  and  S_14
REMARK    4  A    between atoms: S_14  and  O_17
REMARK    5  A    between atoms: O_17  and  C_18
REMARK                            x       y       z     vdW  Elec       q    Type
REMARK                         _______ _______ _______ _____ _____    ______ ____
ROOT
ATOM      1  C   UNL     1       7.963   5.281  19.175  0.00  0.00    +0.000 C 
ATOM      2  C   UNL     1       7.957   6.652  18.609  0.00  0.00    +0.000 A 
ATOM      3  C   UNL     1       8.577   7.785  19.096  0.00  0.00    +0.000 A 
ATOM      4  C   UNL     1       8.274   8.836  18.193  0.00  0.00    +0.000 A 
ATOM      5  N   UNL     1       7.476   8.396  17.212  0.00  0.00    +0.000 NA
ATOM      6  N   UNL     1       7.371   7.046  17.416  0.00  0.00    +0.000 N 
ENDROOT
BRANCH   4   7
ATOM      7  C   UNL     1       8.738  10.224  18.254  0.00  0.00    +0.000 A 
ATOM      8  C   UNL     1       8.086  11.227  17.521  0.00  0.00    +0.000 A 
ATOM      9  C   UNL     1       8.551  12.545  17.543  0.00  0.00    +0.000 A 
ATOM     10  C   UNL     1       9.671  12.877  18.302  0.00  0.00    +0.000 A 
ATOM     11  C   UNL     1      10.319  11.888  19.039  0.00  0.00    +0.000 A 
ATOM     12 CL   UNL     1      11.702  12.293  19.981  0.00  0.00    +0.000 Cl
ATOM     13  C   UNL     1       9.861  10.569  19.019  0.00  0.00    +0.000 A 
ENDBRANCH   4   7
BRANCH   6  14
ATOM     14  S   UNL     1       6.520   5.977  16.299  0.00  0.00    +0.000 S 
ATOM     15  O   UNL     1       5.417   6.792  15.812  0.00  0.00    +0.000 OA
ATOM     16  O   UNL     1       7.529   5.479  15.382  0.00  0.00    +0.000 OA
BRANCH  14  17
ATOM     17  O   UNL     1       5.928   4.723  17.172  0.00  0.00    +0.000 OA
BRANCH  17  18
ATOM     18  C   UNL     1       4.619   4.727  17.598  0.00  0.00    +0.000 A 
ATOM     19  C   UNL     1       4.305   5.596  18.647  0.00  0.00    +0.000 A 
ATOM     20  C   UNL     1       2.998   5.663  19.145  0.00  0.00    +0.000 A 
ATOM     21  C   UNL     1       1.995   4.872  18.583  0.00  0.00    +0.000 A 
ATOM     22  C   UNL     1       2.299   4.023  17.523  0.00  0.00    +0.000 A 
ATOM     23  C   UNL     1       3.604   3.955  17.028  0.00  0.00    +0.000 A 
ENDBRANCH  17  18
ENDBRANCH  14  17
ENDBRANCH   6  14
TORSDOF 4
ENDMDL
MODEL 7
REMARK VINA RESULT:      -7.7      1.724      2.529
REMARK  Name = 
REMARK  5 active torsions:
REMARK  status: ('A' for Active; 'I' for Inactive)
REMARK    1  A    between atoms: C_1  and  C_2
REMARK    2  A    between atoms: C_4  and  C_5
REMARK    3  A    between atoms: N_13  and  S_14
REMARK    4  A    between atoms: S_14  and  O_17
REMARK    5  A    between atoms: O_17  and  C_18
REMARK                            x       y       z     vdW  Elec       q    Type
REMARK                         _______ _______ _______ _____ _____    ______ ____
ROOT
ATOM      1  C   UNL     1       5.864   5.329  19.448  0.00  0.00    +0.000 C 
ATOM      2  C   UNL     1       5.703   4.792  18.075  0.00  0.00    +0.000 A 
ATOM      3  C   UNL     1       6.423   5.107  16.940  0.00  0.00    +0.000 A 
ATOM      4  C   UNL     1       5.889   4.321  15.888  0.00  0.00    +0.000 A 
ATOM      5  N   UNL     1       4.864   3.580  16.329  0.00  0.00    +0.000 NA
ATOM      6  N   UNL     1       4.823   3.796  17.680  0.00  0.00    +0.000 N 
ENDROOT
BRANCH   4   7
ATOM      7  C   UNL     1       6.345   4.265  14.497  0.00  0.00    +0.000 A 
ATOM      8  C   UNL     1       7.330   5.152  14.033  0.00  0.00    +0.000 A 
ATOM      9  C   UNL     1       7.739   5.131  12.697  0.00  0.00    +0.000 A 
ATOM     10  C   UNL     1       7.172   4.218  11.809  0.00  0.00    +0.000 A 
ATOM     11  C   UNL     1       6.202   3.328  12.264  0.00  0.00    +0.000 A 
ATOM     12 CL   UNL     1       5.501   2.197  11.172  0.00  0.00    +0.000 Cl
ATOM     13  C   UNL     1       5.786   3.347  13.597  0.00  0.00    +0.000 A 
ENDBRANCH   4   7
BRANCH   6  14
ATOM     14  S   UNL     1       3.716   2.934  18.750  0.00  0.00    +0.000 S 
ATOM     15  O   UNL     1       3.574   1.629  18.122  0.00  0.00    +0.000 OA
ATOM     16  O   UNL     1       4.279   3.055  20.082  0.00  0.00    +0.000 OA
BRANCH  14  17
ATOM     17  O   UNL     1       2.278   3.719  18.706  0.00  0.00    +0.000 OA
BRANCH  17  18
ATOM     18  C   UNL     1       2.213   5.071  18.957  0.00  0.00    +0.000 A 
ATOM     19  C   UNL     1       1.936   5.450  20.273  0.00  0.00    +0.000 A 
ATOM     20  C   UNL     1       1.850   6.804  20.618  0.00  0.00    +0.000 A 
ATOM     21  C   UNL     1       2.058   7.786  19.648  0.00  0.00    +0.000 A 
ATOM     22  C   UNL     1       2.357   7.412  18.341  0.00  0.00    +0.000 A 
ATOM     23  C   UNL     1       2.441   6.061  17.998  0.00  0.00    +0.000 A 
ENDBRANCH  17  18
ENDBRANCH  14  17
ENDBRANCH   6  14
TORSDOF 4
ENDMDL
MODEL 8
REMARK VINA RESULT:      -7.7      3.707      6.373
REMARK  Name = 
REMARK  5 active torsions:
REMARK  status: ('A' for Active; 'I' for Inactive)
REMARK    1  A    between atoms: C_1  and  C_2
REMARK    2  A    between atoms: C_4  and  C_5
REMARK    3  A    between atoms: N_13  and  S_14
REMARK    4  A    between atoms: S_14  and  O_17
REMARK    5  A    between atoms: O_17  and  C_18
REMARK                            x       y       z     vdW  Elec       q    Type
REMARK                         _______ _______ _______ _____ _____    ______ ____
ROOT
ATOM      1  C   UNL     1       5.165   6.538  15.807  0.00  0.00    +0.000 C 
ATOM      2  C   UNL     1       4.363   6.668  17.047  0.00  0.00    +0.000 A 
ATOM      3  C   UNL     1       3.474   7.665  17.394  0.00  0.00    +0.000 A 
ATOM      4  C   UNL     1       2.962   7.328  18.673  0.00  0.00    +0.000 A 
ATOM      5  N   UNL     1       3.527   6.199  19.121  0.00  0.00    +0.000 NA
ATOM      6  N   UNL     1       4.300   5.751  18.085  0.00  0.00    +0.000 N 
ENDROOT
BRANCH   4   7
ATOM      7  C   UNL     1       1.953   8.054  19.448  0.00  0.00    +0.000 A 
ATOM      8  C   UNL     1       1.584   7.613  20.729  0.00  0.00    +0.000 A 
ATOM      9  C   UNL     1       0.592   8.278  21.455  0.00  0.00    +0.000 A 
ATOM     10  C   UNL     1      -0.038   9.395  20.912  0.00  0.00    +0.000 A 
ATOM     11  C   UNL     1       0.329   9.844  19.645  0.00  0.00    +0.000 A 
ATOM     12 CL   UNL     1      -0.446  11.226  18.971  0.00  0.00    +0.000 Cl
ATOM     13  C   UNL     1       1.317   9.182  18.913  0.00  0.00    +0.000 A 
ENDBRANCH   4   7
BRANCH   6  14
ATOM     14  S   UNL     1       5.157   4.209  18.133  0.00  0.00    +0.000 S 
ATOM     15  O   UNL     1       5.838   4.152  16.849  0.00  0.00    +0.000 OA
ATOM     16  O   UNL     1       5.915   4.216  19.371  0.00  0.00    +0.000 OA
BRANCH  14  17
ATOM     17  O   UNL     1       4.029   3.022  18.205  0.00  0.00    +0.000 OA
BRANCH  17  18
ATOM     18  C   UNL     1       3.113   2.992  19.232  0.00  0.00    +0.000 A 
ATOM     19  C   UNL     1       1.784   3.260  18.892  0.00  0.00    +0.000 A 
ATOM     20  C   UNL     1       0.786   3.252  19.874  0.00  0.00    +0.000 A 
ATOM     21  C   UNL     1       1.111   2.960  21.199  0.00  0.00    +0.000 A 
ATOM     22  C   UNL     1       2.430   2.670  21.537  0.00  0.00    +0.000 A 
ATOM     23  C   UNL     1       3.426   2.678  20.557  0.00  0.00    +0.000 A 
ENDBRANCH  17  18
ENDBRANCH  14  17
ENDBRANCH   6  14
TORSDOF 4
ENDMDL
MODEL 9
REMARK VINA RESULT:      -7.7      1.703      2.286
REMARK  Name = 
REMARK  5 active torsions:
REMARK  status: ('A' for Active; 'I' for Inactive)
REMARK    1  A    between atoms: C_1  and  C_2
REMARK    2  A    between atoms: C_4  and  C_5
REMARK    3  A    between atoms: N_13  and  S_14
REMARK    4  A    between atoms: S_14  and  O_17
REMARK    5  A    between atoms: O_17  and  C_18
REMARK                            x       y       z     vdW  Elec       q    Type
REMARK                         _______ _______ _______ _____ _____    ______ ____
ROOT
ATOM      1  C   UNL     1       5.465   4.730  19.495  0.00  0.00    +0.000 C 
ATOM      2  C   UNL     1       5.443   4.987  18.035  0.00  0.00    +0.000 A 
ATOM      3  C   UNL     1       6.233   4.427  17.052  0.00  0.00    +0.000 A 
ATOM      4  C   UNL     1       5.818   4.996  15.821  0.00  0.00    +0.000 A 
ATOM      5  N   UNL     1       4.844   5.893  16.024  0.00  0.00    +0.000 NA
ATOM      6  N   UNL     1       4.553   5.807  17.358  0.00  0.00    +0.000 N 
ENDROOT
BRANCH   4   7
ATOM      7  C   UNL     1       6.325   4.689  14.481  0.00  0.00    +0.000 A 
ATOM      8  C   UNL     1       7.411   5.400  13.949  0.00  0.00    +0.000 A 
ATOM      9  C   UNL     1       7.872   5.139  12.656  0.00  0.00    +0.000 A 
ATOM     10  C   UNL     1       7.255   4.159  11.880  0.00  0.00    +0.000 A 
ATOM     11  C   UNL     1       6.182   3.443  12.405  0.00  0.00    +0.000 A 
ATOM     12 CL   UNL     1       5.418   2.230  11.452  0.00  0.00    +0.000 Cl
ATOM     13  C   UNL     1       5.714   3.701  13.695  0.00  0.00    +0.000 A 
ENDBRANCH   4   7
BRANCH   6  14
ATOM     14  S   UNL     1       3.231   6.707  18.105  0.00  0.00    +0.000 S 
ATOM     15  O   UNL     1       3.594   6.750  19.513  0.00  0.00    +0.000 OA
ATOM     16  O   UNL     1       3.103   7.932  17.338  0.00  0.00    +0.000 OA
BRANCH  14  17
ATOM     17  O   UNL     1       1.866   5.818  17.921  0.00  0.00    +0.000 OA
BRANCH  17  18
ATOM     18  C   UNL     1       1.833   4.501  18.318  0.00  0.00    +0.000 A 
ATOM     19  C   UNL     1       1.301   4.243  19.585  0.00  0.00    +0.000 A 
ATOM     20  C   UNL     1       1.230   2.932  20.070  0.00  0.00    +0.000 A 
ATOM     21  C   UNL     1       1.677   1.870  19.282  0.00  0.00    +0.000 A 
ATOM     22  C   UNL     1       2.185   2.121  18.011  0.00  0.00    +0.000 A 
ATOM     23  C   UNL     1       2.256   3.430  17.528  0.00  0.00    +0.000 A 
ENDBRANCH  17  18
ENDBRANCH  14  17
ENDBRANCH   6  14
TORSDOF 4
ENDMDL
