MODEL 1
REMARK VINA RESULT:      -6.9      0.000      0.000
REMARK  Name = 
REMARK  2 active torsions:
REMARK  status: ('A' for Active; 'I' for Inactive)
REMARK    1  A    between atoms: N_5  and  S_6
REMARK    2  A    between atoms: S_6  and  C_9
REMARK                            x       y       z     vdW  Elec       q    Type
REMARK                         _______ _______ _______ _____ _____    ______ ____
ROOT
ATOM      1  O   UNL     1       8.034   4.714  18.645  0.00  0.00    +0.000 OA
ATOM      2  C   UNL     1       6.987   5.306  18.411  0.00  0.00    +0.000 C 
ATOM      3  C   UNL     1       5.916   5.486  19.454  0.00  0.00    +0.000 C 
ATOM      4  C   UNL     1       5.029   4.245  19.445  0.00  0.00    +0.000 C 
ATOM      5  N   UNL     1       3.740   4.483  18.686  0.00  0.00    +0.000 NA
ATOM      6  C   UNL     1       3.342   3.296  17.837  0.00  0.00    +0.000 C 
ATOM      7  C   UNL     1       4.309   3.016  16.680  0.00  0.00    +0.000 C 
ATOM      8  C   UNL     1       4.321   4.110  15.607  0.00  0.00    +0.000 C 
ATOM      9  C   UNL     1       5.579   4.052  14.724  0.00  0.00    +0.000 C 
ATOM     10  C   UNL     1       6.431   5.333  14.760  0.00  0.00    +0.000 C 
ATOM     11  C   UNL     1       7.351   5.430  15.976  0.00  0.00    +0.000 C 
ATOM     12  N   UNL     1       6.608   5.750  17.169  0.00  0.00    +0.000 N 
ATOM     13  H   UNL     1       5.870   6.443  17.108  0.00  0.00    +0.000 HD
ENDROOT
BRANCH   5  14
ATOM     14  S   UNL     1       2.409   4.958  19.715  0.00  0.00    +0.000 S 
ATOM     15  O   UNL     1       1.244   4.216  19.311  0.00  0.00    +0.000 OA
ATOM     16  O   UNL     1       2.889   4.910  21.087  0.00  0.00    +0.000 OA
BRANCH  14  17
ATOM     17  C   UNL     1       2.114   6.654  19.282  0.00  0.00    +0.000 A 
ATOM     18  C   UNL     1       2.510   7.151  18.038  0.00  0.00    +0.000 A 
ATOM     19  C   UNL     1       2.334   8.506  17.749  0.00  0.00    +0.000 A 
ATOM     20  C   UNL     1       1.768   9.354  18.701  0.00  0.00    +0.000 A 
ATOM     21  C   UNL     1       1.346   8.840  19.936  0.00  0.00    +0.000 A 
ATOM     22  C   UNL     1       1.547   7.495  20.241  0.00  0.00    +0.000 A 
ATOM     23  O   UNL     1       0.736   9.605  20.895  0.00  0.00    +0.000 OA
ATOM     24  C   UNL     1       0.294  10.861  20.362  0.00  0.00    +0.000 C 
ATOM     25  C   UNL     1       1.384  11.490  19.511  0.00  0.00    +0.000 C 
ATOM     26  O   UNL     1       1.655  10.676  18.364  0.00  0.00    +0.000 OA
ENDBRANCH  14  17
ENDBRANCH   5  14
TORSDOF 2
ENDMDL
MODEL 2
REMARK VINA RESULT:      -6.7      0.858      1.605
REMARK  Name = 
REMARK  2 active torsions:
REMARK  status: ('A' for Active; 'I' for Inactive)
REMARK    1  A    between atoms: N_5  and  S_6
REMARK    2  A    between atoms: S_6  and  C_9
REMARK                            x       y       z     vdW  Elec       q    Type
REMARK                         _______ _______ _______ _____ _____    ______ ____
ROOT
ATOM      1  O   UNL     1       7.930   4.862  18.860  0.00  0.00    +0.000 OA
ATOM      2  C   UNL     1       6.821   5.334  18.638  0.00  0.00    +0.000 C 
ATOM      3  C   UNL     1       5.693   5.232  19.630  0.00  0.00    +0.000 C 
ATOM      4  C   UNL     1       4.989   3.896  19.417  0.00  0.00    +0.000 C 
ATOM      5  N   UNL     1       3.713   4.056  18.617  0.00  0.00    +0.000 NA
ATOM      6  C   UNL     1       3.521   2.946  17.607  0.00  0.00    +0.000 C 
ATOM      7  C   UNL     1       4.565   2.951  16.483  0.00  0.00    +0.000 C 
ATOM      8  C   UNL     1       4.469   4.167  15.556  0.00  0.00    +0.000 C 
ATOM      9  C   UNL     1       5.759   4.392  14.748  0.00  0.00    +0.000 C 
ATOM     10  C   UNL     1       6.421   5.759  14.992  0.00  0.00    +0.000 C 
ATOM     11  C   UNL     1       7.266   5.820  16.263  0.00  0.00    +0.000 C 
ATOM     12  N   UNL     1       6.436   5.880  17.440  0.00  0.00    +0.000 N 
ATOM     13  H   UNL     1       5.612   6.471  17.421  0.00  0.00    +0.000 HD
ENDROOT
BRANCH   5  14
ATOM     14  S   UNL     1       2.286   4.211  19.616  0.00  0.00    +0.000 S 
ATOM     15  O   UNL     1       1.168   3.676  18.885  0.00  0.00    +0.000 OA
ATOM     16  O   UNL     1       2.630   3.707  20.936  0.00  0.00    +0.000 OA
BRANCH  14  17
ATOM     17  C   UNL     1       2.032   5.964  19.733  0.00  0.00    +0.000 A 
ATOM     18  C   UNL     1       1.570   6.539  20.921  0.00  0.00    +0.000 A 
ATOM     19  C   UNL     1       1.307   7.910  20.966  0.00  0.00    +0.000 A 
ATOM     20  C   UNL     1       1.503   8.695  19.830  0.00  0.00    +0.000 A 
ATOM     21  C   UNL     1       1.995   8.115  18.652  0.00  0.00    +0.000 A 
ATOM     22  C   UNL     1       2.231   6.743  18.592  0.00  0.00    +0.000 A 
ATOM     23  O   UNL     1       2.259   8.836  17.517  0.00  0.00    +0.000 OA
ATOM     24  C   UNL     1       2.294  10.244  17.786  0.00  0.00    +0.000 C 
ATOM     25  C   UNL     1       1.111  10.650  18.650  0.00  0.00    +0.000 C 
ATOM     26  O   UNL     1       1.194  10.025  19.936  0.00  0.00    +0.000 OA
ENDBRANCH  14  17
ENDBRANCH   5  14
TORSDOF 2
ENDMDL
MODEL 3
REMARK VINA RESULT:      -6.6      2.100      6.949
REMARK  Name = 
REMARK  2 active torsions:
REMARK  status: ('A' for Active; 'I' for Inactive)
REMARK    1  A    between atoms: N_5  and  S_6
REMARK    2  A    between atoms: S_6  and  C_9
REMARK                            x       y       z     vdW  Elec       q    Type
REMARK                         _______ _______ _______ _____ _____    ______ ____
ROOT
ATOM      1  O   UNL     1       1.487   8.934  22.389  0.00  0.00    +0.000 OA
ATOM      2  C   UNL     1       0.949   8.232  21.541  0.00  0.00    +0.000 C 
ATOM      3  C   UNL     1       1.357   6.802  21.307  0.00  0.00    +0.000 C 
ATOM      4  C   UNL     1       2.533   6.793  20.337  0.00  0.00    +0.000 C 
ATOM      5  N   UNL     1       2.094   6.458  18.927  0.00  0.00    +0.000 NA
ATOM      6  C   UNL     1       2.799   7.299  17.885  0.00  0.00    +0.000 C 
ATOM      7  C   UNL     1       2.438   8.788  17.951  0.00  0.00    +0.000 C 
ATOM      8  C   UNL     1       0.980   9.087  17.583  0.00  0.00    +0.000 C 
ATOM      9  C   UNL     1       0.520  10.467  18.081  0.00  0.00    +0.000 C 
ATOM     10  C   UNL     1      -0.676  10.419  19.048  0.00  0.00    +0.000 C 
ATOM     11  C   UNL     1      -0.294  10.082  20.489  0.00  0.00    +0.000 C 
ATOM     12  N   UNL     1       0.028   8.684  20.630  0.00  0.00    +0.000 N 
ATOM     13  H   UNL     1      -0.549   8.004  20.148  0.00  0.00    +0.000 HD
ENDROOT
BRANCH   5  14
ATOM     14  S   UNL     1       2.256   4.761  18.538  0.00  0.00    +0.000 S 
ATOM     15  O   UNL     1       2.319   4.022  19.771  0.00  0.00    +0.000 OA
ATOM     16  O   UNL     1       1.253   4.453  17.530  0.00  0.00    +0.000 OA
BRANCH  14  17
ATOM     17  C   UNL     1       3.860   4.643  17.786  0.00  0.00    +0.000 A 
ATOM     18  C   UNL     1       5.019   4.738  18.561  0.00  0.00    +0.000 A 
ATOM     19  C   UNL     1       6.269   4.717  17.939  0.00  0.00    +0.000 A 
ATOM     20  C   UNL     1       6.355   4.605  16.551  0.00  0.00    +0.000 A 
ATOM     21  C   UNL     1       5.187   4.480  15.784  0.00  0.00    +0.000 A 
ATOM     22  C   UNL     1       3.937   4.531  16.397  0.00  0.00    +0.000 A 
ATOM     23  O   UNL     1       5.200   4.315  14.424  0.00  0.00    +0.000 OA
ATOM     24  C   UNL     1       6.506   3.956  13.951  0.00  0.00    +0.000 C 
ATOM     25  C   UNL     1       7.564   4.841  14.589  0.00  0.00    +0.000 C 
ATOM     26  O   UNL     1       7.609   4.624  16.005  0.00  0.00    +0.000 OA
ENDBRANCH  14  17
ENDBRANCH   5  14
TORSDOF 2
ENDMDL
MODEL 4
REMARK VINA RESULT:      -6.4      7.700     12.216
REMARK  Name = 
REMARK  2 active torsions:
REMARK  status: ('A' for Active; 'I' for Inactive)
REMARK    1  A    between atoms: N_5  and  S_6
REMARK    2  A    between atoms: S_6  and  C_9
REMARK                            x       y       z     vdW  Elec       q    Type
REMARK                         _______ _______ _______ _____ _____    ______ ____
ROOT
ATOM      1  O   UNL     1      -7.586  12.798  24.284  0.00  0.00    +0.000 OA
ATOM      2  C   UNL     1      -6.591  12.594  23.597  0.00  0.00    +0.000 C 
ATOM      3  C   UNL     1      -5.220  13.055  24.015  0.00  0.00    +0.000 C 
ATOM      4  C   UNL     1      -5.043  14.499  23.557  0.00  0.00    +0.000 C 
ATOM      5  N   UNL     1      -4.226  14.587  22.285  0.00  0.00    +0.000 NA
ATOM      6  C   UNL     1      -4.769  15.618  21.318  0.00  0.00    +0.000 C 
ATOM      7  C   UNL     1      -6.147  15.259  20.749  0.00  0.00    +0.000 C 
ATOM      8  C   UNL     1      -6.137  14.027  19.838  0.00  0.00    +0.000 C 
ATOM      9  C   UNL     1      -7.539  13.423  19.652  0.00  0.00    +0.000 C 
ATOM     10  C   UNL     1      -7.660  11.962  20.119  0.00  0.00    +0.000 C 
ATOM     11  C   UNL     1      -7.847  11.807  21.628  0.00  0.00    +0.000 C 
ATOM     12  N   UNL     1      -6.616  12.056  22.335  0.00  0.00    +0.000 N 
ATOM     13  H   UNL     1      -5.754  11.686  21.950  0.00  0.00    +0.000 HD
ENDROOT
BRANCH   5  14
ATOM     14  S   UNL     1      -2.525  14.875  22.574  0.00  0.00    +0.000 S 
ATOM     15  O   UNL     1      -2.098  15.943  21.710  0.00  0.00    +0.000 OA
ATOM     16  O   UNL     1      -2.343  14.958  24.015  0.00  0.00    +0.000 OA
BRANCH  14  17
ATOM     17  C   UNL     1      -1.734  13.396  21.993  0.00  0.00    +0.000 A 
ATOM     18  C   UNL     1      -1.581  13.160  20.624  0.00  0.00    +0.000 A 
ATOM     19  C   UNL     1      -1.022  11.956  20.189  0.00  0.00    +0.000 A 
ATOM     20  C   UNL     1      -0.623  10.997  21.120  0.00  0.00    +0.000 A 
ATOM     21  C   UNL     1      -0.752  11.255  22.493  0.00  0.00    +0.000 A 
ATOM     22  C   UNL     1      -1.337  12.442  22.931  0.00  0.00    +0.000 A 
ATOM     23  O   UNL     1      -0.333  10.381  23.461  0.00  0.00    +0.000 OA
ATOM     24  C   UNL     1       0.527   9.370  22.918  0.00  0.00    +0.000 C 
ATOM     25  C   UNL     1      -0.056   8.810  21.631  0.00  0.00    +0.000 C 
ATOM     26  O   UNL     1      -0.114   9.827  20.624  0.00  0.00    +0.000 OA
ENDBRANCH  14  17
ENDBRANCH   5  14
TORSDOF 2
ENDMDL
MODEL 5
REMARK VINA RESULT:      -6.4      2.946      5.946
REMARK  Name = 
REMARK  2 active torsions:
REMARK  status: ('A' for Active; 'I' for Inactive)
REMARK    1  A    between atoms: N_5  and  S_6
REMARK    2  A    between atoms: S_6  and  C_9
REMARK                            x       y       z     vdW  Elec       q    Type
REMARK                         _______ _______ _______ _____ _____    ______ ____
ROOT
ATOM      1  O   UNL     1       1.806   6.856  20.066  0.00  0.00    +0.000 OA
ATOM      2  C   UNL     1       2.808   6.172  19.891  0.00  0.00    +0.000 C 
ATOM      3  C   UNL     1       3.797   6.464  18.794  0.00  0.00    +0.000 C 
ATOM      4  C   UNL     1       3.308   5.788  17.517  0.00  0.00    +0.000 C 
ATOM      5  N   UNL     1       4.040   4.488  17.256  0.00  0.00    +0.000 NA
ATOM      6  C   UNL     1       3.121   3.398  16.750  0.00  0.00    +0.000 C 
ATOM      7  C   UNL     1       2.084   2.940  17.783  0.00  0.00    +0.000 C 
ATOM      8  C   UNL     1       2.693   2.225  18.994  0.00  0.00    +0.000 C 
ATOM      9  C   UNL     1       1.733   2.184  20.195  0.00  0.00    +0.000 C 
ATOM     10  C   UNL     1       2.280   2.870  21.459  0.00  0.00    +0.000 C 
ATOM     11  C   UNL     1       2.128   4.391  21.453  0.00  0.00    +0.000 C 
ATOM     12  N   UNL     1       3.080   5.007  20.563  0.00  0.00    +0.000 N 
ATOM     13  H   UNL     1       4.029   4.651  20.549  0.00  0.00    +0.000 HD
ENDROOT
BRANCH   5  14
ATOM     14  S   UNL     1       5.406   4.669  16.180  0.00  0.00    +0.000 S 
ATOM     15  O   UNL     1       6.031   3.381  16.029  0.00  0.00    +0.000 OA
ATOM     16  O   UNL     1       4.944   5.418  15.022  0.00  0.00    +0.000 OA
BRANCH  14  17
ATOM     17  C   UNL     1       6.540   5.686  17.091  0.00  0.00    +0.000 A 
ATOM     18  C   UNL     1       7.285   5.154  18.147  0.00  0.00    +0.000 A 
ATOM     19  C   UNL     1       8.116   5.991  18.896  0.00  0.00    +0.000 A 
ATOM     20  C   UNL     1       8.195   7.349  18.589  0.00  0.00    +0.000 A 
ATOM     21  C   UNL     1       7.468   7.868  17.509  0.00  0.00    +0.000 A 
ATOM     22  C   UNL     1       6.615   7.044  16.777  0.00  0.00    +0.000 A 
ATOM     23  O   UNL     1       7.539   9.180  17.120  0.00  0.00    +0.000 OA
ATOM     24  C   UNL     1       8.663   9.843  17.716  0.00  0.00    +0.000 C 
ATOM     25  C   UNL     1       8.751   9.514  19.197  0.00  0.00    +0.000 C 
ATOM     26  O   UNL     1       9.003   8.116  19.384  0.00  0.00    +0.000 OA
ENDBRANCH  14  17
ENDBRANCH   5  14
TORSDOF 2
ENDMDL
MODEL 6
REMARK VINA RESULT:      -6.2      2.037      6.866
REMARK  Name = 
REMARK  2 active torsions:
REMARK  status: ('A' for Active; 'I' for Inactive)
REMARK    1  A    between atoms: N_5  and  S_6
REMARK    2  A    between atoms: S_6  and  C_9
REMARK                            x       y       z     vdW  Elec       q    Type
REMARK                         _______ _______ _______ _____ _____    ______ ____
ROOT
ATOM      1  O   UNL     1       1.470   9.563  22.423  0.00  0.00    +0.000 OA
ATOM      2  C   UNL     1       0.863   8.806  21.674  0.00  0.00    +0.000 C 
ATOM      3  C   UNL     1       1.305   7.386  21.438  0.00  0.00    +0.000 C 
ATOM      4  C   UNL     1       2.349   7.390  20.327  0.00  0.00    +0.000 C 
ATOM      5  N   UNL     1       1.752   6.981  18.996  0.00  0.00    +0.000 NA
ATOM      6  C   UNL     1       2.281   7.810  17.846  0.00  0.00    +0.000 C 
ATOM      7  C   UNL     1       1.860   9.284  17.907  0.00  0.00    +0.000 C 
ATOM      8  C   UNL     1       0.356   9.505  17.718  0.00  0.00    +0.000 C 
ATOM      9  C   UNL     1      -0.103  10.883  18.225  0.00  0.00    +0.000 C 
ATOM     10  C   UNL     1      -1.164  10.822  19.337  0.00  0.00    +0.000 C 
ATOM     11  C   UNL     1      -0.589  10.558  20.728  0.00  0.00    +0.000 C 
ATOM     12  N   UNL     1      -0.186   9.182  20.874  0.00  0.00    +0.000 N 
ATOM     13  H   UNL     1      -0.786   8.459  20.492  0.00  0.00    +0.000 HD
ENDROOT
BRANCH   5  14
ATOM     14  S   UNL     1       1.945   5.279  18.646  0.00  0.00    +0.000 S 
ATOM     15  O   UNL     1       1.773   4.547  19.873  0.00  0.00    +0.000 OA
ATOM     16  O   UNL     1       1.129   4.986  17.478  0.00  0.00    +0.000 OA
BRANCH  14  17
ATOM     17  C   UNL     1       3.653   5.124  18.190  0.00  0.00    +0.000 A 
ATOM     18  C   UNL     1       4.013   4.720  16.901  0.00  0.00    +0.000 A 
ATOM     19  C   UNL     1       5.362   4.534  16.588  0.00  0.00    +0.000 A 
ATOM     20  C   UNL     1       6.339   4.748  17.560  0.00  0.00    +0.000 A 
ATOM     21  C   UNL     1       5.971   5.182  18.842  0.00  0.00    +0.000 A 
ATOM     22  C   UNL     1       4.625   5.340  19.169  0.00  0.00    +0.000 A 
ATOM     23  O   UNL     1       6.880   5.460  19.828  0.00  0.00    +0.000 OA
ATOM     24  C   UNL     1       8.208   5.578  19.298  0.00  0.00    +0.000 C 
ATOM     25  C   UNL     1       8.500   4.438  18.336  0.00  0.00    +0.000 C 
ATOM     26  O   UNL     1       7.637   4.514  17.195  0.00  0.00    +0.000 OA
ENDBRANCH  14  17
ENDBRANCH   5  14
TORSDOF 2
ENDMDL
MODEL 7
REMARK VINA RESULT:      -6.1      2.437      7.133
REMARK  Name = 
REMARK  2 active torsions:
REMARK  status: ('A' for Active; 'I' for Inactive)
REMARK    1  A    between atoms: N_5  and  S_6
REMARK    2  A    between atoms: S_6  and  C_9
REMARK                            x       y       z     vdW  Elec       q    Type
REMARK                         _______ _______ _______ _____ _____    ______ ____
ROOT
ATOM      1  O   UNL     1       1.703   8.833  17.081  0.00  0.00    +0.000 OA
ATOM      2  C   UNL     1       2.563   8.527  17.900  0.00  0.00    +0.000 C 
ATOM      3  C   UNL     1       3.834   7.825  17.503  0.00  0.00    +0.000 C 
ATOM      4  C   UNL     1       3.560   6.325  17.470  0.00  0.00    +0.000 C 
ATOM      5  N   UNL     1       4.065   5.636  18.721  0.00  0.00    +0.000 NA
ATOM      6  C   UNL     1       3.108   4.577  19.224  0.00  0.00    +0.000 C 
ATOM      7  C   UNL     1       1.775   5.143  19.727  0.00  0.00    +0.000 C 
ATOM      8  C   UNL     1       1.906   5.998  20.993  0.00  0.00    +0.000 C 
ATOM      9  C   UNL     1       0.685   6.907  21.216  0.00  0.00    +0.000 C 
ATOM     10  C   UNL     1       1.019   8.408  21.252  0.00  0.00    +0.000 C 
ATOM     11  C   UNL     1       1.175   9.042  19.870  0.00  0.00    +0.000 C 
ATOM     12  N   UNL     1       2.422   8.659  19.258  0.00  0.00    +0.000 N 
ATOM     13  H   UNL     1       3.255   8.631  19.835  0.00  0.00    +0.000 HD
ENDROOT
BRANCH   5  14
ATOM     14  S   UNL     1       5.666   4.959  18.538  0.00  0.00    +0.000 S 
ATOM     15  O   UNL     1       6.625   5.982  18.861  0.00  0.00    +0.000 OA
ATOM     16  O   UNL     1       5.673   3.680  19.231  0.00  0.00    +0.000 OA
BRANCH  14  17
ATOM     17  C   UNL     1       5.809   4.653  16.795  0.00  0.00    +0.000 A 
ATOM     18  C   UNL     1       4.925   3.784  16.149  0.00  0.00    +0.000 A 
ATOM     19  C   UNL     1       5.103   3.502  14.793  0.00  0.00    +0.000 A 
ATOM     20  C   UNL     1       6.159   4.086  14.092  0.00  0.00    +0.000 A 
ATOM     21  C   UNL     1       7.022   4.981  14.741  0.00  0.00    +0.000 A 
ATOM     22  C   UNL     1       6.868   5.242  16.101  0.00  0.00    +0.000 A 
ATOM     23  O   UNL     1       8.046   5.629  14.102  0.00  0.00    +0.000 OA
ATOM     24  C   UNL     1       7.912   5.543  12.677  0.00  0.00    +0.000 C 
ATOM     25  C   UNL     1       7.574   4.121  12.259  0.00  0.00    +0.000 C 
ATOM     26  O   UNL     1       6.293   3.741  12.775  0.00  0.00    +0.000 OA
ENDBRANCH  14  17
ENDBRANCH   5  14
TORSDOF 2
ENDMDL
MODEL 8
REMARK VINA RESULT:      -6.1      8.397     10.633
REMARK  Name = 
REMARK  2 active torsions:
REMARK  status: ('A' for Active; 'I' for Inactive)
REMARK    1  A    between atoms: N_5  and  S_6
REMARK    2  A    between atoms: S_6  and  C_9
REMARK                            x       y       z     vdW  Elec       q    Type
REMARK                         _______ _______ _______ _____ _____    ______ ____
ROOT
ATOM      1  O   UNL     1       1.073  15.378  22.573  0.00  0.00    +0.000 OA
ATOM      2  C   UNL     1      -0.020  15.055  22.123  0.00  0.00    +0.000 C 
ATOM      3  C   UNL     1      -1.288  15.189  22.924  0.00  0.00    +0.000 C 
ATOM      4  C   UNL     1      -1.448  13.934  23.777  0.00  0.00    +0.000 C 
ATOM      5  N   UNL     1      -2.434  12.962  23.164  0.00  0.00    +0.000 NA
ATOM      6  C   UNL     1      -1.979  11.524  23.284  0.00  0.00    +0.000 C 
ATOM      7  C   UNL     1      -0.720  11.207  22.467  0.00  0.00    +0.000 C 
ATOM      8  C   UNL     1      -0.932  11.288  20.951  0.00  0.00    +0.000 C 
ATOM      9  C   UNL     1       0.393  11.421  20.180  0.00  0.00    +0.000 C 
ATOM     10  C   UNL     1       0.497  12.698  19.328  0.00  0.00    +0.000 C 
ATOM     11  C   UNL     1       0.891  13.943  20.122  0.00  0.00    +0.000 C 
ATOM     12  N   UNL     1      -0.208  14.423  20.920  0.00  0.00    +0.000 N 
ATOM     13  H   UNL     1      -1.136  14.428  20.512  0.00  0.00    +0.000 HD
ENDROOT
BRANCH   5  14
ATOM     14  S   UNL     1      -4.056  13.133  23.795  0.00  0.00    +0.000 S 
ATOM     15  O   UNL     1      -4.313  12.023  24.675  0.00  0.00    +0.000 OA
ATOM     16  O   UNL     1      -4.193  14.504  24.260  0.00  0.00    +0.000 OA
BRANCH  14  17
ATOM     17  C   UNL     1      -5.096  12.914  22.374  0.00  0.00    +0.000 A 
ATOM     18  C   UNL     1      -6.488  12.947  22.498  0.00  0.00    +0.000 A 
ATOM     19  C   UNL     1      -7.286  12.698  21.379  0.00  0.00    +0.000 A 
ATOM     20  C   UNL     1      -6.693  12.418  20.148  0.00  0.00    +0.000 A 
ATOM     21  C   UNL     1      -5.296  12.417  20.026  0.00  0.00    +0.000 A 
ATOM     22  C   UNL     1      -4.494  12.634  21.146  0.00  0.00    +0.000 A 
ATOM     23  O   UNL     1      -4.648  12.201  18.839  0.00  0.00    +0.000 OA
ATOM     24  C   UNL     1      -5.545  12.313  17.725  0.00  0.00    +0.000 C 
ATOM     25  C   UNL     1      -6.834  11.558  18.002  0.00  0.00    +0.000 C 
ATOM     26  O   UNL     1      -7.534  12.152  19.102  0.00  0.00    +0.000 OA
ENDBRANCH  14  17
ENDBRANCH   5  14
TORSDOF 2
ENDMDL
MODEL 9
REMARK VINA RESULT:      -6.1      2.541      4.181
REMARK  Name = 
REMARK  2 active torsions:
REMARK  status: ('A' for Active; 'I' for Inactive)
REMARK    1  A    between atoms: N_5  and  S_6
REMARK    2  A    between atoms: S_6  and  C_9
REMARK                            x       y       z     vdW  Elec       q    Type
REMARK                         _______ _______ _______ _____ _____    ______ ____
ROOT
ATOM      1  O   UNL     1       5.816   3.978  18.917  0.00  0.00    +0.000 OA
ATOM      2  C   UNL     1       4.809   4.363  18.334  0.00  0.00    +0.000 C 
ATOM      3  C   UNL     1       4.557   5.820  18.046  0.00  0.00    +0.000 C 
ATOM      4  C   UNL     1       3.892   6.440  19.270  0.00  0.00    +0.000 C 
ATOM      5  N   UNL     1       2.395   6.577  19.085  0.00  0.00    +0.000 NA
ATOM      6  C   UNL     1       1.623   6.230  20.339  0.00  0.00    +0.000 C 
ATOM      7  C   UNL     1       1.728   4.752  20.736  0.00  0.00    +0.000 C 
ATOM      8  C   UNL     1       1.056   3.797  19.743  0.00  0.00    +0.000 C 
ATOM      9  C   UNL     1       1.547   2.348  19.898  0.00  0.00    +0.000 C 
ATOM     10  C   UNL     1       2.199   1.768  18.632  0.00  0.00    +0.000 C 
ATOM     11  C   UNL     1       3.656   2.188  18.437  0.00  0.00    +0.000 C 
ATOM     12  N   UNL     1       3.750   3.558  18.000  0.00  0.00    +0.000 N 
ATOM     13  H   UNL     1       3.090   3.891  17.306  0.00  0.00    +0.000 HD
ENDROOT
BRANCH   5  14
ATOM     14  S   UNL     1       1.913   8.153  18.501  0.00  0.00    +0.000 S 
ATOM     15  O   UNL     1       3.099   8.871  18.116  0.00  0.00    +0.000 OA
ATOM     16  O   UNL     1       0.823   7.947  17.559  0.00  0.00    +0.000 OA
BRANCH  14  17
ATOM     17  C   UNL     1       1.265   8.966  19.940  0.00  0.00    +0.000 A 
ATOM     18  C   UNL     1       1.712   8.618  21.217  0.00  0.00    +0.000 A 
ATOM     19  C   UNL     1       1.134   9.219  22.338  0.00  0.00    +0.000 A 
ATOM     20  C   UNL     1       0.115  10.158  22.177  0.00  0.00    +0.000 A 
ATOM     21  C   UNL     1      -0.306  10.524  20.891  0.00  0.00    +0.000 A 
ATOM     22  C   UNL     1       0.246   9.905  19.770  0.00  0.00    +0.000 A 
ATOM     23  O   UNL     1      -1.264  11.475  20.659  0.00  0.00    +0.000 OA
ATOM     24  C   UNL     1      -1.519  12.259  21.834  0.00  0.00    +0.000 C 
ATOM     25  C   UNL     1      -1.662  11.360  23.051  0.00  0.00    +0.000 C 
ATOM     26  O   UNL     1      -0.428  10.682  23.319  0.00  0.00    +0.000 OA
ENDBRANCH  14  17
ENDBRANCH   5  14
TORSDOF 2
ENDMDL
