MODEL 1
REMARK VINA RESULT:      -8.4      0.000      0.000
REMARK  Name = 
REMARK  10 active torsions:
REMARK  status: ('A' for Active; 'I' for Inactive)
REMARK    1  A    between atoms: C_1  and  C_2
REMARK    2  A    between atoms: C_3  and  C_4
REMARK    3  A    between atoms: C_4  and  C_6
REMARK    4  A    between atoms: C_10  and  O_11
REMARK    5  A    between atoms: O_11  and  C_12
REMARK    6  A    between atoms: C_12  and  C_13
REMARK    7  A    between atoms: C_13  and  O_15
REMARK    8  A    between atoms: N_20  and  C_21
REMARK    9  A    between atoms: C_21  and  C_22
REMARK   10  A    between atoms: C_26  and  C_27
REMARK                            x       y       z     vdW  Elec       q    Type
REMARK                         _______ _______ _______ _____ _____    ______ ____
ROOT
ATOM      1  C   UNL     1       1.180  12.277  20.538  0.00  0.00    +0.000 C 
ATOM      2  C   UNL     1      -0.052  11.816  19.831  0.00  0.00    +0.000 A 
ATOM      3  C   UNL     1      -1.398  12.130  20.026  0.00  0.00    +0.000 A 
ATOM      4  C   UNL     1      -2.146  11.501  18.961  0.00  0.00    +0.000 A 
ATOM      5  C   UNL     1      -3.512  11.495  18.552  0.00  0.00    +0.000 A 
ATOM      6  C   UNL     1      -3.887  10.727  17.434  0.00  0.00    +0.000 A 
ATOM      7  C   UNL     1      -2.968   9.929  16.767  0.00  0.00    +0.000 A 
ATOM      8  C   UNL     1      -1.635   9.905  17.161  0.00  0.00    +0.000 A 
ATOM      9  C   UNL     1      -1.238  10.719  18.236  0.00  0.00    +0.000 A 
ATOM     10  N   UNL     1       0.022  10.961  18.748  0.00  0.00    +0.000 N 
ENDROOT
BRANCH   3  11
ATOM     11  C   UNL     1      -1.935  12.990  21.084  0.00  0.00    +0.000 C 
ATOM     12  O   UNL     1      -1.947  14.217  21.020  0.00  0.00    +0.000 OA
BRANCH  11  13
ATOM     13  C   UNL     1      -2.493  12.379  22.384  0.00  0.00    +0.000 C 
ATOM     14  N   UNL     1      -1.583  11.684  23.148  0.00  0.00    +0.000 N 
ATOM     15  O   UNL     1      -3.650  12.542  22.720  0.00  0.00    +0.000 OA
ATOM     16  H   UNL     1      -0.599  11.669  22.915  0.00  0.00    +0.000 HD
ATOM     17  H   UNL     1      -1.874  11.390  24.070  0.00  0.00    +0.000 HD
ENDBRANCH  11  13
ENDBRANCH   3  11
BRANCH   5  18
ATOM     18  O   UNL     1      -4.405  12.305  19.214  0.00  0.00    +0.000 OA
BRANCH  18  19
ATOM     19  C   UNL     1      -5.790  12.088  18.941  0.00  0.00    +0.000 C 
BRANCH  19  20
ATOM     20  C   UNL     1      -6.531  11.526  20.143  0.00  0.00    +0.000 C 
ATOM     21  O   UNL     1      -7.518  10.810  20.073  0.00  0.00    +0.000 OA
BRANCH  20  22
ATOM     22  O   UNL     1      -5.972  11.884  21.329  0.00  0.00    +0.000 OA
ATOM     23  H   UNL     1      -5.591  11.089  21.770  0.00  0.00    +0.000 HD
ENDBRANCH  20  22
ENDBRANCH  19  20
ENDBRANCH  18  19
ENDBRANCH   5  18
BRANCH  10  24
ATOM     24  C   UNL     1       1.254  10.377  18.210  0.00  0.00    +0.000 C 
BRANCH  24  25
ATOM     25  C   UNL     1       1.580   8.994  18.737  0.00  0.00    +0.000 A 
ATOM     26  C   UNL     1       1.293   8.585  20.044  0.00  0.00    +0.000 A 
ATOM     27  C   UNL     1       1.767   7.366  20.524  0.00  0.00    +0.000 A 
ATOM     28  C   UNL     1       2.555   6.548  19.711  0.00  0.00    +0.000 A 
ATOM     29  C   UNL     1       2.860   6.905  18.386  0.00  0.00    +0.000 A 
ATOM     30  C   UNL     1       2.334   8.128  17.919  0.00  0.00    +0.000 A 
BRANCH  29  31
ATOM     31  C   UNL     1       3.756   6.070  17.546  0.00  0.00    +0.000 A 
ATOM     32  C   UNL     1       4.745   6.638  16.720  0.00  0.00    +0.000 A 
ATOM     33  C   UNL     1       5.532   5.850  15.872  0.00  0.00    +0.000 A 
ATOM     34  C   UNL     1       5.365   4.470  15.845  0.00  0.00    +0.000 A 
ATOM     35  C   UNL     1       4.416   3.877  16.669  0.00  0.00    +0.000 A 
ATOM     36  C   UNL     1       3.620   4.668  17.503  0.00  0.00    +0.000 A 
ENDBRANCH  29  31
ENDBRANCH  24  25
ENDBRANCH  10  24
TORSDOF 9
ENDMDL
MODEL 2
REMARK VINA RESULT:      -8.3      1.023      1.321
REMARK  Name = 
REMARK  10 active torsions:
REMARK  status: ('A' for Active; 'I' for Inactive)
REMARK    1  A    between atoms: C_1  and  C_2
REMARK    2  A    between atoms: C_3  and  C_4
REMARK    3  A    between atoms: C_4  and  C_6
REMARK    4  A    between atoms: C_10  and  O_11
REMARK    5  A    between atoms: O_11  and  C_12
REMARK    6  A    between atoms: C_12  and  C_13
REMARK    7  A    between atoms: C_13  and  O_15
REMARK    8  A    between atoms: N_20  and  C_21
REMARK    9  A    between atoms: C_21  and  C_22
REMARK   10  A    between atoms: C_26  and  C_27
REMARK                            x       y       z     vdW  Elec       q    Type
REMARK                         _______ _______ _______ _____ _____    ______ ____
ROOT
ATOM      1  C   UNL     1       1.170  12.501  20.518  0.00  0.00    +0.000 C 
ATOM      2  C   UNL     1      -0.055  11.993  19.831  0.00  0.00    +0.000 A 
ATOM      3  C   UNL     1      -1.404  12.301  20.010  0.00  0.00    +0.000 A 
ATOM      4  C   UNL     1      -2.144  11.614  18.973  0.00  0.00    +0.000 A 
ATOM      5  C   UNL     1      -3.508  11.574  18.563  0.00  0.00    +0.000 A 
ATOM      6  C   UNL     1      -3.872  10.750  17.481  0.00  0.00    +0.000 A 
ATOM      7  C   UNL     1      -2.942   9.933  16.854  0.00  0.00    +0.000 A 
ATOM      8  C   UNL     1      -1.610   9.943  17.250  0.00  0.00    +0.000 A 
ATOM      9  C   UNL     1      -1.225  10.810  18.287  0.00  0.00    +0.000 A 
ATOM     10  N   UNL     1       0.031  11.090  18.790  0.00  0.00    +0.000 N 
ENDROOT
BRANCH   3  11
ATOM     11  C   UNL     1      -1.954  13.203  21.025  0.00  0.00    +0.000 C 
ATOM     12  O   UNL     1      -2.288  12.836  22.149  0.00  0.00    +0.000 OA
BRANCH  11  13
ATOM     13  C   UNL     1      -2.182  14.694  20.710  0.00  0.00    +0.000 C 
ATOM     14  N   UNL     1      -3.470  15.035  20.367  0.00  0.00    +0.000 N 
ATOM     15  O   UNL     1      -1.285  15.509  20.799  0.00  0.00    +0.000 OA
ATOM     16  H   UNL     1      -4.227  14.367  20.422  0.00  0.00    +0.000 HD
ATOM     17  H   UNL     1      -3.690  16.019  20.291  0.00  0.00    +0.000 HD
ENDBRANCH  11  13
ENDBRANCH   3  11
BRANCH   5  18
ATOM     18  O   UNL     1      -4.412  12.403  19.185  0.00  0.00    +0.000 OA
BRANCH  18  19
ATOM     19  C   UNL     1      -5.724  11.879  19.393  0.00  0.00    +0.000 C 
BRANCH  19  20
ATOM     20  C   UNL     1      -6.175  12.015  20.838  0.00  0.00    +0.000 C 
ATOM     21  O   UNL     1      -6.936  11.244  21.400  0.00  0.00    +0.000 OA
BRANCH  20  22
ATOM     22  O   UNL     1      -5.625  13.087  21.468  0.00  0.00    +0.000 OA
ATOM     23  H   UNL     1      -6.182  13.886  21.312  0.00  0.00    +0.000 HD
ENDBRANCH  20  22
ENDBRANCH  19  20
ENDBRANCH  18  19
ENDBRANCH   5  18
BRANCH  10  24
ATOM     24  C   UNL     1       1.271  10.496  18.281  0.00  0.00    +0.000 C 
BRANCH  24  25
ATOM     25  C   UNL     1       1.558   9.099  18.793  0.00  0.00    +0.000 A 
ATOM     26  C   UNL     1       1.248   8.680  20.091  0.00  0.00    +0.000 A 
ATOM     27  C   UNL     1       1.688   7.444  20.560  0.00  0.00    +0.000 A 
ATOM     28  C   UNL     1       2.464   6.618  19.744  0.00  0.00    +0.000 A 
ATOM     29  C   UNL     1       2.790   6.984  18.427  0.00  0.00    +0.000 A 
ATOM     30  C   UNL     1       2.299   8.225  17.970  0.00  0.00    +0.000 A 
BRANCH  29  31
ATOM     31  C   UNL     1       3.675   6.139  17.584  0.00  0.00    +0.000 A 
ATOM     32  C   UNL     1       4.609   6.697  16.691  0.00  0.00    +0.000 A 
ATOM     33  C   UNL     1       5.383   5.896  15.844  0.00  0.00    +0.000 A 
ATOM     34  C   UNL     1       5.256   4.511  15.884  0.00  0.00    +0.000 A 
ATOM     35  C   UNL     1       4.363   3.929  16.775  0.00  0.00    +0.000 A 
ATOM     36  C   UNL     1       3.580   4.733  17.608  0.00  0.00    +0.000 A 
ENDBRANCH  29  31
ENDBRANCH  24  25
ENDBRANCH  10  24
TORSDOF 9
ENDMDL
MODEL 3
REMARK VINA RESULT:      -8.2      0.746      1.214
REMARK  Name = 
REMARK  10 active torsions:
REMARK  status: ('A' for Active; 'I' for Inactive)
REMARK    1  A    between atoms: C_1  and  C_2
REMARK    2  A    between atoms: C_3  and  C_4
REMARK    3  A    between atoms: C_4  and  C_6
REMARK    4  A    between atoms: C_10  and  O_11
REMARK    5  A    between atoms: O_11  and  C_12
REMARK    6  A    between atoms: C_12  and  C_13
REMARK    7  A    between atoms: C_13  and  O_15
REMARK    8  A    between atoms: N_20  and  C_21
REMARK    9  A    between atoms: C_21  and  C_22
REMARK   10  A    between atoms: C_26  and  C_27
REMARK                            x       y       z     vdW  Elec       q    Type
REMARK                         _______ _______ _______ _____ _____    ______ ____
ROOT
ATOM      1  C   UNL     1       0.883  12.723  20.518  0.00  0.00    +0.000 C 
ATOM      2  C   UNL     1      -0.303  12.148  19.815  0.00  0.00    +0.000 A 
ATOM      3  C   UNL     1      -1.667  12.415  19.944  0.00  0.00    +0.000 A 
ATOM      4  C   UNL     1      -2.351  11.665  18.913  0.00  0.00    +0.000 A 
ATOM      5  C   UNL     1      -3.701  11.562  18.467  0.00  0.00    +0.000 A 
ATOM      6  C   UNL     1      -4.004  10.688  17.406  0.00  0.00    +0.000 A 
ATOM      7  C   UNL     1      -3.029   9.882  16.835  0.00  0.00    +0.000 A 
ATOM      8  C   UNL     1      -1.710   9.953  17.269  0.00  0.00    +0.000 A 
ATOM      9  C   UNL     1      -1.386  10.870  18.284  0.00  0.00    +0.000 A 
ATOM     10  N   UNL     1      -0.155  11.212  18.811  0.00  0.00    +0.000 N 
ENDROOT
BRANCH   3  11
ATOM     11  C   UNL     1      -2.277  13.332  20.910  0.00  0.00    +0.000 C 
ATOM     12  O   UNL     1      -2.620  14.479  20.633  0.00  0.00    +0.000 OA
BRANCH  11  13
ATOM     13  C   UNL     1      -2.489  12.902  22.375  0.00  0.00    +0.000 C 
ATOM     14  N   UNL     1      -1.561  13.380  23.271  0.00  0.00    +0.000 N 
ATOM     15  O   UNL     1      -3.438  12.220  22.708  0.00  0.00    +0.000 OA
ATOM     16  H   UNL     1      -0.853  14.049  22.995  0.00  0.00    +0.000 HD
ATOM     17  H   UNL     1      -1.743  13.238  24.254  0.00  0.00    +0.000 HD
ENDBRANCH  11  13
ENDBRANCH   3  11
BRANCH   5  18
ATOM     18  O   UNL     1      -4.651  12.380  19.032  0.00  0.00    +0.000 OA
BRANCH  18  19
ATOM     19  C   UNL     1      -5.682  11.740  19.784  0.00  0.00    +0.000 C 
BRANCH  19  20
ATOM     20  C   UNL     1      -6.980  11.628  19.001  0.00  0.00    +0.000 C 
ATOM     21  O   UNL     1      -7.710  12.570  18.736  0.00  0.00    +0.000 OA
BRANCH  20  22
ATOM     22  O   UNL     1      -7.250  10.359  18.597  0.00  0.00    +0.000 OA
ATOM     23  H   UNL     1      -7.739   9.881  19.308  0.00  0.00    +0.000 HD
ENDBRANCH  20  22
ENDBRANCH  19  20
ENDBRANCH  18  19
ENDBRANCH   5  18
BRANCH  10  24
ATOM     24  C   UNL     1       1.119  10.645  18.359  0.00  0.00    +0.000 C 
BRANCH  24  25
ATOM     25  C   UNL     1       1.411   9.254  18.885  0.00  0.00    +0.000 A 
ATOM     26  C   UNL     1       1.125   8.854  20.195  0.00  0.00    +0.000 A 
ATOM     27  C   UNL     1       1.570   7.623  20.673  0.00  0.00    +0.000 A 
ATOM     28  C   UNL     1       2.329   6.784  19.854  0.00  0.00    +0.000 A 
ATOM     29  C   UNL     1       2.632   7.131  18.527  0.00  0.00    +0.000 A 
ATOM     30  C   UNL     1       2.135   8.367  18.062  0.00  0.00    +0.000 A 
BRANCH  29  31
ATOM     31  C   UNL     1       3.499   6.272  17.680  0.00  0.00    +0.000 A 
ATOM     32  C   UNL     1       3.344   4.873  17.634  0.00  0.00    +0.000 A 
ATOM     33  C   UNL     1       4.215   4.063  16.896  0.00  0.00    +0.000 A 
ATOM     34  C   UNL     1       5.252   4.635  16.167  0.00  0.00    +0.000 A 
ATOM     35  C   UNL     1       5.414   6.015  16.170  0.00  0.00    +0.000 A 
ATOM     36  C   UNL     1       4.552   6.820  16.921  0.00  0.00    +0.000 A 
ENDBRANCH  29  31
ENDBRANCH  24  25
ENDBRANCH  10  24
TORSDOF 9
ENDMDL
MODEL 4
REMARK VINA RESULT:      -8.2      0.904      1.065
REMARK  Name = 
REMARK  10 active torsions:
REMARK  status: ('A' for Active; 'I' for Inactive)
REMARK    1  A    between atoms: C_1  and  C_2
REMARK    2  A    between atoms: C_3  and  C_4
REMARK    3  A    between atoms: C_4  and  C_6
REMARK    4  A    between atoms: C_10  and  O_11
REMARK    5  A    between atoms: O_11  and  C_12
REMARK    6  A    between atoms: C_12  and  C_13
REMARK    7  A    between atoms: C_13  and  O_15
REMARK    8  A    between atoms: N_20  and  C_21
REMARK    9  A    between atoms: C_21  and  C_22
REMARK   10  A    between atoms: C_26  and  C_27
REMARK                            x       y       z     vdW  Elec       q    Type
REMARK                         _______ _______ _______ _____ _____    ______ ____
ROOT
ATOM      1  C   UNL     1       1.748  12.615  20.130  0.00  0.00    +0.000 C 
ATOM      2  C   UNL     1       0.387  12.165  19.707  0.00  0.00    +0.000 A 
ATOM      3  C   UNL     1      -0.884  12.588  20.099  0.00  0.00    +0.000 A 
ATOM      4  C   UNL     1      -1.842  11.901  19.261  0.00  0.00    +0.000 A 
ATOM      5  C   UNL     1      -3.259  11.944  19.102  0.00  0.00    +0.000 A 
ATOM      6  C   UNL     1      -3.866  11.089  18.164  0.00  0.00    +0.000 A 
ATOM      7  C   UNL     1      -3.122  10.167  17.441  0.00  0.00    +0.000 A 
ATOM      8  C   UNL     1      -1.742  10.095  17.595  0.00  0.00    +0.000 A 
ATOM      9  C   UNL     1      -1.119  10.989  18.483  0.00  0.00    +0.000 A 
ATOM     10  N   UNL     1       0.223  11.199  18.735  0.00  0.00    +0.000 N 
ENDROOT
BRANCH   3  11
ATOM     11  C   UNL     1      -1.179  13.588  21.129  0.00  0.00    +0.000 C 
ATOM     12  O   UNL     1      -1.021  14.795  20.966  0.00  0.00    +0.000 OA
BRANCH  11  13
ATOM     13  C   UNL     1      -1.682  13.156  22.520  0.00  0.00    +0.000 C 
ATOM     14  N   UNL     1      -2.955  13.567  22.841  0.00  0.00    +0.000 N 
ATOM     15  O   UNL     1      -1.004  12.467  23.257  0.00  0.00    +0.000 OA
ATOM     16  H   UNL     1      -3.548  14.030  22.166  0.00  0.00    +0.000 HD
ATOM     17  H   UNL     1      -3.371  13.189  23.681  0.00  0.00    +0.000 HD
ENDBRANCH  11  13
ENDBRANCH   3  11
BRANCH   5  18
ATOM     18  O   UNL     1      -3.978  12.876  19.813  0.00  0.00    +0.000 OA
BRANCH  18  19
ATOM     19  C   UNL     1      -5.396  12.713  19.830  0.00  0.00    +0.000 C 
BRANCH  19  20
ATOM     20  C   UNL     1      -5.893  12.138  21.146  0.00  0.00    +0.000 C 
ATOM     21  O   UNL     1      -5.506  12.499  22.247  0.00  0.00    +0.000 OA
BRANCH  20  22
ATOM     22  O   UNL     1      -6.842  11.179  20.984  0.00  0.00    +0.000 OA
ATOM     23  H   UNL     1      -7.594  11.542  20.460  0.00  0.00    +0.000 HD
ENDBRANCH  20  22
ENDBRANCH  19  20
ENDBRANCH  18  19
ENDBRANCH   5  18
BRANCH  10  24
ATOM     24  C   UNL     1       1.308  10.481  18.059  0.00  0.00    +0.000 C 
BRANCH  24  25
ATOM     25  C   UNL     1       1.606   9.108  18.627  0.00  0.00    +0.000 A 
ATOM     26  C   UNL     1       1.306   8.742  19.944  0.00  0.00    +0.000 A 
ATOM     27  C   UNL     1       1.756   7.529  20.461  0.00  0.00    +0.000 A 
ATOM     28  C   UNL     1       2.533   6.675  19.676  0.00  0.00    +0.000 A 
ATOM     29  C   UNL     1       2.851   6.988  18.344  0.00  0.00    +0.000 A 
ATOM     30  C   UNL     1       2.349   8.206  17.838  0.00  0.00    +0.000 A 
BRANCH  29  31
ATOM     31  C   UNL     1       3.737   6.113  17.533  0.00  0.00    +0.000 A 
ATOM     32  C   UNL     1       4.735   6.640  16.690  0.00  0.00    +0.000 A 
ATOM     33  C   UNL     1       5.512   5.814  15.870  0.00  0.00    +0.000 A 
ATOM     34  C   UNL     1       5.325   4.436  15.887  0.00  0.00    +0.000 A 
ATOM     35  C   UNL     1       4.367   3.884  16.729  0.00  0.00    +0.000 A 
ATOM     36  C   UNL     1       3.581   4.713  17.535  0.00  0.00    +0.000 A 
ENDBRANCH  29  31
ENDBRANCH  24  25
ENDBRANCH  10  24
TORSDOF 9
ENDMDL
MODEL 5
REMARK VINA RESULT:      -8.1      0.859      1.037
REMARK  Name = 
REMARK  10 active torsions:
REMARK  status: ('A' for Active; 'I' for Inactive)
REMARK    1  A    between atoms: C_1  and  C_2
REMARK    2  A    between atoms: C_3  and  C_4
REMARK    3  A    between atoms: C_4  and  C_6
REMARK    4  A    between atoms: C_10  and  O_11
REMARK    5  A    between atoms: O_11  and  C_12
REMARK    6  A    between atoms: C_12  and  C_13
REMARK    7  A    between atoms: C_13  and  O_15
REMARK    8  A    between atoms: N_20  and  C_21
REMARK    9  A    between atoms: C_21  and  C_22
REMARK   10  A    between atoms: C_26  and  C_27
REMARK                            x       y       z     vdW  Elec       q    Type
REMARK                         _______ _______ _______ _____ _____    ______ ____
ROOT
ATOM      1  C   UNL     1       0.575  13.001  20.819  0.00  0.00    +0.000 C 
ATOM      2  C   UNL     1      -0.562  12.374  20.079  0.00  0.00    +0.000 A 
ATOM      3  C   UNL     1      -1.936  12.612  20.130  0.00  0.00    +0.000 A 
ATOM      4  C   UNL     1      -2.550  11.812  19.093  0.00  0.00    +0.000 A 
ATOM      5  C   UNL     1      -3.872  11.661  18.583  0.00  0.00    +0.000 A 
ATOM      6  C   UNL     1      -4.102  10.744  17.540  0.00  0.00    +0.000 A 
ATOM      7  C   UNL     1      -3.080   9.944  17.047  0.00  0.00    +0.000 A 
ATOM      8  C   UNL     1      -1.787  10.061  17.543  0.00  0.00    +0.000 A 
ATOM      9  C   UNL     1      -1.536  11.019  18.541  0.00  0.00    +0.000 A 
ATOM     10  N   UNL     1      -0.342  11.408  19.116  0.00  0.00    +0.000 N 
ENDROOT
BRANCH   3  11
ATOM     11  C   UNL     1      -2.614  13.547  21.031  0.00  0.00    +0.000 C 
ATOM     12  O   UNL     1      -2.845  14.718  20.744  0.00  0.00    +0.000 OA
BRANCH  11  13
ATOM     13  C   UNL     1      -3.050  13.101  22.441  0.00  0.00    +0.000 C 
ATOM     14  N   UNL     1      -3.375  14.118  23.308  0.00  0.00    +0.000 N 
ATOM     15  O   UNL     1      -3.135  11.925  22.740  0.00  0.00    +0.000 OA
ATOM     16  H   UNL     1      -3.421  15.081  23.001  0.00  0.00    +0.000 HD
ATOM     17  H   UNL     1      -3.798  13.864  24.190  0.00  0.00    +0.000 HD
ENDBRANCH  11  13
ENDBRANCH   3  11
BRANCH   5  18
ATOM     18  O   UNL     1      -4.868  12.475  19.071  0.00  0.00    +0.000 OA
BRANCH  18  19
ATOM     19  C   UNL     1      -6.211  12.024  18.889  0.00  0.00    +0.000 C 
BRANCH  19  20
ATOM     20  C   UNL     1      -6.748  11.308  20.117  0.00  0.00    +0.000 C 
ATOM     21  O   UNL     1      -6.427  11.572  21.265  0.00  0.00    +0.000 OA
BRANCH  20  22
ATOM     22  O   UNL     1      -7.653  10.340  19.816  0.00  0.00    +0.000 OA
ATOM     23  H   UNL     1      -7.909  10.408  18.866  0.00  0.00    +0.000 HD
ENDBRANCH  20  22
ENDBRANCH  19  20
ENDBRANCH  18  19
ENDBRANCH   5  18
BRANCH  10  24
ATOM     24  C   UNL     1       0.966  10.857  18.749  0.00  0.00    +0.000 C 
BRANCH  24  25
ATOM     25  C   UNL     1       1.223   9.452  19.256  0.00  0.00    +0.000 A 
ATOM     26  C   UNL     1       0.896   9.032  20.550  0.00  0.00    +0.000 A 
ATOM     27  C   UNL     1       1.309   7.785  21.015  0.00  0.00    +0.000 A 
ATOM     28  C   UNL     1       2.075   6.949  20.200  0.00  0.00    +0.000 A 
ATOM     29  C   UNL     1       2.418   7.316  18.888  0.00  0.00    +0.000 A 
ATOM     30  C   UNL     1       1.953   8.568  18.434  0.00  0.00    +0.000 A 
BRANCH  29  31
ATOM     31  C   UNL     1       3.292   6.458  18.047  0.00  0.00    +0.000 A 
ATOM     32  C   UNL     1       4.308   6.999  17.236  0.00  0.00    +0.000 A 
ATOM     33  C   UNL     1       5.075   6.192  16.387  0.00  0.00    +0.000 A 
ATOM     34  C   UNL     1       4.859   4.819  16.344  0.00  0.00    +0.000 A 
ATOM     35  C   UNL     1       3.883   4.252  17.154  0.00  0.00    +0.000 A 
ATOM     36  C   UNL     1       3.108   5.063  17.989  0.00  0.00    +0.000 A 
ENDBRANCH  29  31
ENDBRANCH  24  25
ENDBRANCH  10  24
TORSDOF 9
ENDMDL
MODEL 6
REMARK VINA RESULT:      -8.1      0.891      1.066
REMARK  Name = 
REMARK  10 active torsions:
REMARK  status: ('A' for Active; 'I' for Inactive)
REMARK    1  A    between atoms: C_1  and  C_2
REMARK    2  A    between atoms: C_3  and  C_4
REMARK    3  A    between atoms: C_4  and  C_6
REMARK    4  A    between atoms: C_10  and  O_11
REMARK    5  A    between atoms: O_11  and  C_12
REMARK    6  A    between atoms: C_12  and  C_13
REMARK    7  A    between atoms: C_13  and  O_15
REMARK    8  A    between atoms: N_20  and  C_21
REMARK    9  A    between atoms: C_21  and  C_22
REMARK   10  A    between atoms: C_26  and  C_27
REMARK                            x       y       z     vdW  Elec       q    Type
REMARK                         _______ _______ _______ _____ _____    ______ ____
ROOT
ATOM      1  C   UNL     1       1.175  12.190  20.636  0.00  0.00    +0.000 C 
ATOM      2  C   UNL     1      -0.020  11.731  19.865  0.00  0.00    +0.000 A 
ATOM      3  C   UNL     1      -1.374  12.036  20.000  0.00  0.00    +0.000 A 
ATOM      4  C   UNL     1      -2.068  11.415  18.893  0.00  0.00    +0.000 A 
ATOM      5  C   UNL     1      -3.413  11.407  18.419  0.00  0.00    +0.000 A 
ATOM      6  C   UNL     1      -3.730  10.650  17.276  0.00  0.00    +0.000 A 
ATOM      7  C   UNL     1      -2.775   9.865  16.645  0.00  0.00    +0.000 A 
ATOM      8  C   UNL     1      -1.462   9.843  17.101  0.00  0.00    +0.000 A 
ATOM      9  C   UNL     1      -1.122  10.646  18.204  0.00  0.00    +0.000 A 
ATOM     10  N   UNL     1       0.111  10.889  18.778  0.00  0.00    +0.000 N 
ENDROOT
BRANCH   3  11
ATOM     11  C   UNL     1      -1.966  12.881  21.041  0.00  0.00    +0.000 C 
ATOM     12  O   UNL     1      -2.162  14.086  20.906  0.00  0.00    +0.000 OA
BRANCH  11  13
ATOM     13  C   UNL     1      -2.349  12.287  22.410  0.00  0.00    +0.000 C 
ATOM     14  N   UNL     1      -3.697  12.254  22.683  0.00  0.00    +0.000 N 
ATOM     15  O   UNL     1      -1.510  11.845  23.170  0.00  0.00    +0.000 OA
ATOM     16  H   UNL     1      -4.385  12.508  21.987  0.00  0.00    +0.000 HD
ATOM     17  H   UNL     1      -3.996  11.747  23.505  0.00  0.00    +0.000 HD
ENDBRANCH  11  13
ENDBRANCH   3  11
BRANCH   5  18
ATOM     18  O   UNL     1      -4.341  12.205  19.047  0.00  0.00    +0.000 OA
BRANCH  18  19
ATOM     19  C   UNL     1      -5.651  11.660  19.205  0.00  0.00    +0.000 C 
BRANCH  19  20
ATOM     20  C   UNL     1      -6.721  12.545  18.587  0.00  0.00    +0.000 C 
ATOM     21  O   UNL     1      -7.723  12.926  19.171  0.00  0.00    +0.000 OA
BRANCH  20  22
ATOM     22  O   UNL     1      -6.444  12.899  17.305  0.00  0.00    +0.000 OA
ATOM     23  H   UNL     1      -5.796  13.642  17.298  0.00  0.00    +0.000 HD
ENDBRANCH  20  22
ENDBRANCH  19  20
ENDBRANCH  18  19
ENDBRANCH   5  18
BRANCH  10  24
ATOM     24  C   UNL     1       1.371  10.318  18.292  0.00  0.00    +0.000 C 
BRANCH  24  25
ATOM     25  C   UNL     1       1.655   8.911  18.779  0.00  0.00    +0.000 A 
ATOM     26  C   UNL     1       1.335   8.467  20.067  0.00  0.00    +0.000 A 
ATOM     27  C   UNL     1       1.772   7.222  20.515  0.00  0.00    +0.000 A 
ATOM     28  C   UNL     1       2.556   6.413  19.689  0.00  0.00    +0.000 A 
ATOM     29  C   UNL     1       2.892   6.805  18.383  0.00  0.00    +0.000 A 
ATOM     30  C   UNL     1       2.403   8.054  17.946  0.00  0.00    +0.000 A 
BRANCH  29  31
ATOM     31  C   UNL     1       3.784   5.977  17.531  0.00  0.00    +0.000 A 
ATOM     32  C   UNL     1       4.696   6.553  16.626  0.00  0.00    +0.000 A 
ATOM     33  C   UNL     1       5.477   5.766  15.771  0.00  0.00    +0.000 A 
ATOM     34  C   UNL     1       5.380   4.380  15.814  0.00  0.00    +0.000 A 
ATOM     35  C   UNL     1       4.510   3.780  16.717  0.00  0.00    +0.000 A 
ATOM     36  C   UNL     1       3.720   4.570  17.558  0.00  0.00    +0.000 A 
ENDBRANCH  29  31
ENDBRANCH  24  25
ENDBRANCH  10  24
TORSDOF 9
ENDMDL
MODEL 7
REMARK VINA RESULT:      -8.0      1.208      1.630
REMARK  Name = 
REMARK  10 active torsions:
REMARK  status: ('A' for Active; 'I' for Inactive)
REMARK    1  A    between atoms: C_1  and  C_2
REMARK    2  A    between atoms: C_3  and  C_4
REMARK    3  A    between atoms: C_4  and  C_6
REMARK    4  A    between atoms: C_10  and  O_11
REMARK    5  A    between atoms: O_11  and  C_12
REMARK    6  A    between atoms: C_12  and  C_13
REMARK    7  A    between atoms: C_13  and  O_15
REMARK    8  A    between atoms: N_20  and  C_21
REMARK    9  A    between atoms: C_21  and  C_22
REMARK   10  A    between atoms: C_26  and  C_27
REMARK                            x       y       z     vdW  Elec       q    Type
REMARK                         _______ _______ _______ _____ _____    ______ ____
ROOT
ATOM      1  C   UNL     1       1.175  12.217  20.609  0.00  0.00    +0.000 C 
ATOM      2  C   UNL     1      -0.024  11.744  19.854  0.00  0.00    +0.000 A 
ATOM      3  C   UNL     1      -1.380  12.037  20.005  0.00  0.00    +0.000 A 
ATOM      4  C   UNL     1      -2.081  11.405  18.908  0.00  0.00    +0.000 A 
ATOM      5  C   UNL     1      -3.432  11.383  18.451  0.00  0.00    +0.000 A 
ATOM      6  C   UNL     1      -3.755  10.619  17.314  0.00  0.00    +0.000 A 
ATOM      7  C   UNL     1      -2.801   9.841  16.674  0.00  0.00    +0.000 A 
ATOM      8  C   UNL     1      -1.482   9.833  17.115  0.00  0.00    +0.000 A 
ATOM      9  C   UNL     1      -1.137  10.643  18.210  0.00  0.00    +0.000 A 
ATOM     10  N   UNL     1       0.101  10.900  18.768  0.00  0.00    +0.000 N 
ENDROOT
BRANCH   3  11
ATOM     11  C   UNL     1      -1.968  12.880  21.049  0.00  0.00    +0.000 C 
ATOM     12  O   UNL     1      -2.369  12.445  22.126  0.00  0.00    +0.000 OA
BRANCH  11  13
ATOM     13  C   UNL     1      -2.152  14.393  20.825  0.00  0.00    +0.000 C 
ATOM     14  N   UNL     1      -3.440  14.799  20.563  0.00  0.00    +0.000 N 
ATOM     15  O   UNL     1      -1.220  15.169  20.916  0.00  0.00    +0.000 OA
ATOM     16  H   UNL     1      -4.219  14.157  20.618  0.00  0.00    +0.000 HD
ATOM     17  H   UNL     1      -3.624  15.793  20.550  0.00  0.00    +0.000 HD
ENDBRANCH  11  13
ENDBRANCH   3  11
BRANCH   5  18
ATOM     18  O   UNL     1      -4.360  12.174  19.087  0.00  0.00    +0.000 OA
BRANCH  18  19
ATOM     19  C   UNL     1      -5.729  11.957  18.743  0.00  0.00    +0.000 C 
BRANCH  19  20
ATOM     20  C   UNL     1      -6.396  13.218  18.220  0.00  0.00    +0.000 C 
ATOM     21  O   UNL     1      -7.095  13.960  18.894  0.00  0.00    +0.000 OA
BRANCH  20  22
ATOM     22  O   UNL     1      -6.123  13.463  16.912  0.00  0.00    +0.000 OA
ATOM     23  H   UNL     1      -5.785  12.641  16.484  0.00  0.00    +0.000 HD
ENDBRANCH  20  22
ENDBRANCH  19  20
ENDBRANCH  18  19
ENDBRANCH   5  18
BRANCH  10  24
ATOM     24  C   UNL     1       1.360  10.339  18.269  0.00  0.00    +0.000 C 
BRANCH  24  25
ATOM     25  C   UNL     1       1.660   8.934  18.751  0.00  0.00    +0.000 A 
ATOM     26  C   UNL     1       1.353   8.484  20.040  0.00  0.00    +0.000 A 
ATOM     27  C   UNL     1       1.804   7.242  20.482  0.00  0.00    +0.000 A 
ATOM     28  C   UNL     1       2.589   6.442  19.650  0.00  0.00    +0.000 A 
ATOM     29  C   UNL     1       2.914   6.840  18.341  0.00  0.00    +0.000 A 
ATOM     30  C   UNL     1       2.411   8.086  17.911  0.00  0.00    +0.000 A 
BRANCH  29  31
ATOM     31  C   UNL     1       3.808   6.022  17.482  0.00  0.00    +0.000 A 
ATOM     32  C   UNL     1       4.680   6.607  16.544  0.00  0.00    +0.000 A 
ATOM     33  C   UNL     1       5.461   5.827  15.684  0.00  0.00    +0.000 A 
ATOM     34  C   UNL     1       5.406   4.440  15.755  0.00  0.00    +0.000 A 
ATOM     35  C   UNL     1       4.576   3.832  16.690  0.00  0.00    +0.000 A 
ATOM     36  C   UNL     1       3.785   4.614  17.536  0.00  0.00    +0.000 A 
ENDBRANCH  29  31
ENDBRANCH  24  25
ENDBRANCH  10  24
TORSDOF 9
ENDMDL
MODEL 8
REMARK VINA RESULT:      -7.9      1.638      1.944
REMARK  Name = 
REMARK  10 active torsions:
REMARK  status: ('A' for Active; 'I' for Inactive)
REMARK    1  A    between atoms: C_1  and  C_2
REMARK    2  A    between atoms: C_3  and  C_4
REMARK    3  A    between atoms: C_4  and  C_6
REMARK    4  A    between atoms: C_10  and  O_11
REMARK    5  A    between atoms: O_11  and  C_12
REMARK    6  A    between atoms: C_12  and  C_13
REMARK    7  A    between atoms: C_13  and  O_15
REMARK    8  A    between atoms: N_20  and  C_21
REMARK    9  A    between atoms: C_21  and  C_22
REMARK   10  A    between atoms: C_26  and  C_27
REMARK                            x       y       z     vdW  Elec       q    Type
REMARK                         _______ _______ _______ _____ _____    ______ ____
ROOT
ATOM      1  C   UNL     1      -0.062  12.655  21.101  0.00  0.00    +0.000 C 
ATOM      2  C   UNL     1      -1.055  12.125  20.117  0.00  0.00    +0.000 A 
ATOM      3  C   UNL     1      -2.436  12.299  20.020  0.00  0.00    +0.000 A 
ATOM      4  C   UNL     1      -2.863  11.670  18.789  0.00  0.00    +0.000 A 
ATOM      5  C   UNL     1      -4.098  11.561  18.086  0.00  0.00    +0.000 A 
ATOM      6  C   UNL     1      -4.137  10.833  16.882  0.00  0.00    +0.000 A 
ATOM      7  C   UNL     1      -3.015  10.169  16.406  0.00  0.00    +0.000 A 
ATOM      8  C   UNL     1      -1.805  10.246  17.087  0.00  0.00    +0.000 A 
ATOM      9  C   UNL     1      -1.742  11.024  18.255  0.00  0.00    +0.000 A 
ATOM     10  N   UNL     1      -0.656  11.351  19.045  0.00  0.00    +0.000 N 
ENDROOT
BRANCH   3  11
ATOM     11  C   UNL     1      -3.279  13.036  20.965  0.00  0.00    +0.000 C 
ATOM     12  O   UNL     1      -3.823  12.517  21.936  0.00  0.00    +0.000 OA
BRANCH  11  13
ATOM     13  C   UNL     1      -3.563  14.537  20.757  0.00  0.00    +0.000 C 
ATOM     14  N   UNL     1      -2.462  15.359  20.813  0.00  0.00    +0.000 N 
ATOM     15  O   UNL     1      -4.683  14.947  20.521  0.00  0.00    +0.000 OA
ATOM     16  H   UNL     1      -1.524  14.985  20.883  0.00  0.00    +0.000 HD
ATOM     17  H   UNL     1      -2.585  16.325  20.544  0.00  0.00    +0.000 HD
ENDBRANCH  11  13
ENDBRANCH   3  11
BRANCH   5  18
ATOM     18  O   UNL     1      -5.195  12.240  18.563  0.00  0.00    +0.000 OA
BRANCH  18  19
ATOM     19  C   UNL     1      -6.337  12.295  17.707  0.00  0.00    +0.000 C 
BRANCH  19  20
ATOM     20  C   UNL     1      -6.688  13.718  17.308  0.00  0.00    +0.000 C 
ATOM     21  O   UNL     1      -7.297  14.021  16.294  0.00  0.00    +0.000 OA
BRANCH  20  22
ATOM     22  O   UNL     1      -6.271  14.643  18.212  0.00  0.00    +0.000 OA
ATOM     23  H   UNL     1      -7.045  15.162  18.537  0.00  0.00    +0.000 HD
ENDBRANCH  20  22
ENDBRANCH  19  20
ENDBRANCH  18  19
ENDBRANCH   5  18
BRANCH  10  24
ATOM     24  C   UNL     1       0.718  10.921  18.773  0.00  0.00    +0.000 C 
BRANCH  24  25
ATOM     25  C   UNL     1       1.057   9.532  19.277  0.00  0.00    +0.000 A 
ATOM     26  C   UNL     1       0.774   9.100  20.578  0.00  0.00    +0.000 A 
ATOM     27  C   UNL     1       1.260   7.878  21.038  0.00  0.00    +0.000 A 
ATOM     28  C   UNL     1       2.055   7.080  20.212  0.00  0.00    +0.000 A 
ATOM     29  C   UNL     1       2.356   7.461  18.893  0.00  0.00    +0.000 A 
ATOM     30  C   UNL     1       1.818   8.686  18.445  0.00  0.00    +0.000 A 
BRANCH  29  31
ATOM     31  C   UNL     1       3.260   6.648  18.039  0.00  0.00    +0.000 A 
ATOM     32  C   UNL     1       4.237   7.239  17.215  0.00  0.00    +0.000 A 
ATOM     33  C   UNL     1       5.031   6.472  16.355  0.00  0.00    +0.000 A 
ATOM     34  C   UNL     1       4.882   5.090  16.313  0.00  0.00    +0.000 A 
ATOM     35  C   UNL     1       3.945   4.474  17.135  0.00  0.00    +0.000 A 
ATOM     36  C   UNL     1       3.143   5.245  17.981  0.00  0.00    +0.000 A 
ENDBRANCH  29  31
ENDBRANCH  24  25
ENDBRANCH  10  24
TORSDOF 9
ENDMDL
MODEL 9
REMARK VINA RESULT:      -7.8      1.472      1.965
REMARK  Name = 
REMARK  10 active torsions:
REMARK  status: ('A' for Active; 'I' for Inactive)
REMARK    1  A    between atoms: C_1  and  C_2
REMARK    2  A    between atoms: C_3  and  C_4
REMARK    3  A    between atoms: C_4  and  C_6
REMARK    4  A    between atoms: C_10  and  O_11
REMARK    5  A    between atoms: O_11  and  C_12
REMARK    6  A    between atoms: C_12  and  C_13
REMARK    7  A    between atoms: C_13  and  O_15
REMARK    8  A    between atoms: N_20  and  C_21
REMARK    9  A    between atoms: C_21  and  C_22
REMARK   10  A    between atoms: C_26  and  C_27
REMARK                            x       y       z     vdW  Elec       q    Type
REMARK                         _______ _______ _______ _____ _____    ______ ____
ROOT
ATOM      1  C   UNL     1       0.323  12.517  21.076  0.00  0.00    +0.000 C 
ATOM      2  C   UNL     1      -0.713  11.996  20.134  0.00  0.00    +0.000 A 
ATOM      3  C   UNL     1      -2.092  12.204  20.075  0.00  0.00    +0.000 A 
ATOM      4  C   UNL     1      -2.573  11.563  18.871  0.00  0.00    +0.000 A 
ATOM      5  C   UNL     1      -3.831  11.474  18.207  0.00  0.00    +0.000 A 
ATOM      6  C   UNL     1      -3.926  10.725  17.020  0.00  0.00    +0.000 A 
ATOM      7  C   UNL     1      -2.836  10.023  16.522  0.00  0.00    +0.000 A 
ATOM      8  C   UNL     1      -1.605  10.081  17.164  0.00  0.00    +0.000 A 
ATOM      9  C   UNL     1      -1.485  10.878  18.315  0.00  0.00    +0.000 A 
ATOM     10  N   UNL     1      -0.368  11.191  19.066  0.00  0.00    +0.000 N 
ENDROOT
BRANCH   3  11
ATOM     11  C   UNL     1      -2.886  12.980  21.030  0.00  0.00    +0.000 C 
ATOM     12  O   UNL     1      -3.591  12.471  21.898  0.00  0.00    +0.000 OA
BRANCH  11  13
ATOM     13  C   UNL     1      -2.905  14.520  20.966  0.00  0.00    +0.000 C 
ATOM     14  N   UNL     1      -2.141  15.079  19.968  0.00  0.00    +0.000 N 
ATOM     15  O   UNL     1      -3.585  15.182  21.727  0.00  0.00    +0.000 OA
ATOM     16  H   UNL     1      -1.685  14.509  19.268  0.00  0.00    +0.000 HD
ATOM     17  H   UNL     1      -2.237  16.071  19.805  0.00  0.00    +0.000 HD
ENDBRANCH  11  13
ENDBRANCH   3  11
BRANCH   5  18
ATOM     18  O   UNL     1      -4.895  12.191  18.704  0.00  0.00    +0.000 OA
BRANCH  18  19
ATOM     19  C   UNL     1      -6.071  12.235  17.896  0.00  0.00    +0.000 C 
BRANCH  19  20
ATOM     20  C   UNL     1      -6.667  13.631  17.824  0.00  0.00    +0.000 C 
ATOM     21  O   UNL     1      -7.320  14.150  18.716  0.00  0.00    +0.000 OA
BRANCH  20  22
ATOM     22  O   UNL     1      -6.384  14.271  16.659  0.00  0.00    +0.000 OA
ATOM     23  H   UNL     1      -5.481  14.019  16.352  0.00  0.00    +0.000 HD
ENDBRANCH  20  22
ENDBRANCH  19  20
ENDBRANCH  18  19
ENDBRANCH   5  18
BRANCH  10  24
ATOM     24  C   UNL     1       0.986  10.720  18.760  0.00  0.00    +0.000 C 
BRANCH  24  25
ATOM     25  C   UNL     1       1.280   9.306  19.217  0.00  0.00    +0.000 A 
ATOM     26  C   UNL     1       1.008   8.847  20.511  0.00  0.00    +0.000 A 
ATOM     27  C   UNL     1       1.454   7.594  20.925  0.00  0.00    +0.000 A 
ATOM     28  C   UNL     1       2.201   6.791  20.060  0.00  0.00    +0.000 A 
ATOM     29  C   UNL     1       2.490   7.199  18.746  0.00  0.00    +0.000 A 
ATOM     30  C   UNL     1       1.992   8.456  18.345  0.00  0.00    +0.000 A 
BRANCH  29  31
ATOM     31  C   UNL     1       3.344   6.377  17.851  0.00  0.00    +0.000 A 
ATOM     32  C   UNL     1       3.208   4.978  17.769  0.00  0.00    +0.000 A 
ATOM     33  C   UNL     1       4.068   4.203  16.983  0.00  0.00    +0.000 A 
ATOM     34  C   UNL     1       5.075   4.810  16.241  0.00  0.00    +0.000 A 
ATOM     35  C   UNL     1       5.217   6.193  16.278  0.00  0.00    +0.000 A 
ATOM     36  C   UNL     1       4.366   6.962  17.077  0.00  0.00    +0.000 A 
ENDBRANCH  29  31
ENDBRANCH  24  25
ENDBRANCH  10  24
TORSDOF 9
ENDMDL
