MODEL 1
REMARK VINA RESULT:      -7.7      0.000      0.000
REMARK  Name = 
REMARK  5 active torsions:
REMARK  status: ('A' for Active; 'I' for Inactive)
REMARK    1  A    between atoms: C_2  and  C_3
REMARK    2  A    between atoms: C_4  and  C_5
REMARK    3  A    between atoms: N_12  and  S_13
REMARK    4  A    between atoms: S_13  and  C_16
REMARK    5  A    between atoms: N_25  and  O_26
REMARK                            x       y       z     vdW  Elec       q    Type
REMARK                         _______ _______ _______ _____ _____    ______ ____
ROOT
ATOM      1  C   UNL     1       3.783   5.921  17.970  0.00  0.00    +0.000 A 
ATOM      2  C   UNL     1       3.115   5.509  19.109  0.00  0.00    +0.000 A 
ATOM      3  N   UNL     1       2.334   6.449  19.741  0.00  0.00    +0.000 NA
ATOM      4  C   UNL     1       2.338   7.583  19.075  0.00  0.00    +0.000 A 
ATOM      5  N   UNL     1       1.631   8.672  19.477  0.00  0.00    +0.000 N 
ATOM      6  C   UNL     1       1.216   9.740  18.565  0.00  0.00    +0.000 C 
ATOM      7  C   UNL     1      -0.292  10.034  18.713  0.00  0.00    +0.000 C 
ATOM      8  N   UNL     1      -0.709  10.244  20.136  0.00  0.00    +0.000 NA
ATOM      9  C   UNL     1      -0.317   9.043  20.950  0.00  0.00    +0.000 C 
ATOM     10  C   UNL     1       1.194   8.780  20.877  0.00  0.00    +0.000 C 
ATOM     11  S   UNL     1       3.332   7.549  17.658  0.00  0.00    +0.000 S 
ENDROOT
BRANCH   8  12
ATOM     12  S   UNL     1      -0.299  11.745  20.840  0.00  0.00    +0.000 S 
ATOM     13  O   UNL     1       0.663  11.497  21.894  0.00  0.00    +0.000 OA
ATOM     14  O   UNL     1      -0.010  12.689  19.782  0.00  0.00    +0.000 OA
BRANCH  12  15
ATOM     15  C   UNL     1      -1.818  12.234  21.614  0.00  0.00    +0.000 A 
ATOM     16  C   UNL     1      -2.003  11.947  22.970  0.00  0.00    +0.000 A 
ATOM     17  C   UNL     1      -3.186  12.332  23.595  0.00  0.00    +0.000 A 
ATOM     18  C   UNL     1      -4.172  13.008  22.872  0.00  0.00    +0.000 A 
ATOM     19  C   UNL     1      -3.977  13.303  21.521  0.00  0.00    +0.000 A 
ATOM     20  C   UNL     1      -2.795  12.919  20.886  0.00  0.00    +0.000 A 
ENDBRANCH  12  15
ENDBRANCH   8  12
BRANCH   1  22
ATOM     21  C   UNL     1       5.276   5.891  16.092  0.00  0.00    +0.000 C 
ATOM     22  C   UNL     1       4.697   5.243  17.116  0.00  0.00    +0.000 C 
BRANCH  21  24
ATOM     23  O   UNL     1       7.402   5.449  15.096  0.00  0.00    +0.000 OA
ATOM     24  C   UNL     1       6.210   5.192  15.180  0.00  0.00    +0.000 C 
ATOM     25  N   UNL     1       5.593   4.205  14.452  0.00  0.00    +0.000 N 
ATOM     26  H   UNL     1       4.633   3.907  14.566  0.00  0.00    +0.000 HD
BRANCH  25  27
ATOM     27  O   UNL     1       6.410   3.414  13.621  0.00  0.00    +0.000 OA
ATOM     28  H   UNL     1       6.742   4.064  12.965  0.00  0.00    +0.000 HD
ENDBRANCH  25  27
ENDBRANCH  21  24
ENDBRANCH   1  22
TORSDOF 5
ENDMDL
MODEL 2
REMARK VINA RESULT:      -7.7      0.961      1.211
REMARK  Name = 
REMARK  5 active torsions:
REMARK  status: ('A' for Active; 'I' for Inactive)
REMARK    1  A    between atoms: C_2  and  C_3
REMARK    2  A    between atoms: C_4  and  C_5
REMARK    3  A    between atoms: N_12  and  S_13
REMARK    4  A    between atoms: S_13  and  C_16
REMARK    5  A    between atoms: N_25  and  O_26
REMARK                            x       y       z     vdW  Elec       q    Type
REMARK                         _______ _______ _______ _____ _____    ______ ____
ROOT
ATOM      1  C   UNL     1       3.868   6.593  17.610  0.00  0.00    +0.000 A 
ATOM      2  C   UNL     1       3.311   5.833  18.622  0.00  0.00    +0.000 A 
ATOM      3  N   UNL     1       2.507   6.496  19.521  0.00  0.00    +0.000 NA
ATOM      4  C   UNL     1       2.382   7.762  19.190  0.00  0.00    +0.000 A 
ATOM      5  N   UNL     1       1.624   8.635  19.906  0.00  0.00    +0.000 N 
ATOM      6  C   UNL     1       1.071   9.867  19.339  0.00  0.00    +0.000 C 
ATOM      7  C   UNL     1      -0.441   9.975  19.629  0.00  0.00    +0.000 C 
ATOM      8  N   UNL     1      -0.776   9.757  21.073  0.00  0.00    +0.000 NA
ATOM      9  C   UNL     1      -0.242   8.422  21.509  0.00  0.00    +0.000 C 
ATOM     10  C   UNL     1       1.276   8.324  21.300  0.00  0.00    +0.000 C 
ATOM     11  S   UNL     1       3.278   8.199  17.775  0.00  0.00    +0.000 S 
ENDROOT
BRANCH   8  12
ATOM     12  S   UNL     1      -0.431  11.044  22.140  0.00  0.00    +0.000 S 
ATOM     13  O   UNL     1      -0.234  10.488  23.463  0.00  0.00    +0.000 OA
ATOM     14  O   UNL     1       0.574  11.890  21.535  0.00  0.00    +0.000 OA
BRANCH  12  15
ATOM     15  C   UNL     1      -1.962  11.941  22.166  0.00  0.00    +0.000 A 
ATOM     16  C   UNL     1      -2.693  11.985  23.357  0.00  0.00    +0.000 A 
ATOM     17  C   UNL     1      -3.892  12.692  23.397  0.00  0.00    +0.000 A 
ATOM     18  C   UNL     1      -4.350  13.358  22.258  0.00  0.00    +0.000 A 
ATOM     19  C   UNL     1      -3.610  13.322  21.075  0.00  0.00    +0.000 A 
ATOM     20  C   UNL     1      -2.408  12.613  21.024  0.00  0.00    +0.000 A 
ENDBRANCH  12  15
ENDBRANCH   8  12
BRANCH   1  22
ATOM     21  C   UNL     1       5.241   5.001  16.454  0.00  0.00    +0.000 C 
ATOM     22  C   UNL     1       4.770   6.254  16.563  0.00  0.00    +0.000 C 
BRANCH  21  24
ATOM     23  O   UNL     1       6.184   3.574  14.786  0.00  0.00    +0.000 OA
ATOM     24  C   UNL     1       6.200   4.640  15.384  0.00  0.00    +0.000 C 
ATOM     25  N   UNL     1       7.098   5.644  15.122  0.00  0.00    +0.000 N 
ATOM     26  H   UNL     1       7.078   6.568  15.533  0.00  0.00    +0.000 HD
BRANCH  25  27
ATOM     27  O   UNL     1       7.996   5.442  14.056  0.00  0.00    +0.000 OA
ATOM     28  H   UNL     1       7.746   6.154  13.428  0.00  0.00    +0.000 HD
ENDBRANCH  25  27
ENDBRANCH  21  24
ENDBRANCH   1  22
TORSDOF 5
ENDMDL
MODEL 3
REMARK VINA RESULT:      -7.6      0.931      1.356
REMARK  Name = 
REMARK  5 active torsions:
REMARK  status: ('A' for Active; 'I' for Inactive)
REMARK    1  A    between atoms: C_2  and  C_3
REMARK    2  A    between atoms: C_4  and  C_5
REMARK    3  A    between atoms: N_12  and  S_13
REMARK    4  A    between atoms: S_13  and  C_16
REMARK    5  A    between atoms: N_25  and  O_26
REMARK                            x       y       z     vdW  Elec       q    Type
REMARK                         _______ _______ _______ _____ _____    ______ ____
ROOT
ATOM      1  C   UNL     1       3.751   6.116  18.077  0.00  0.00    +0.000 A 
ATOM      2  C   UNL     1       3.121   5.543  19.166  0.00  0.00    +0.000 A 
ATOM      3  N   UNL     1       2.318   6.369  19.920  0.00  0.00    +0.000 NA
ATOM      4  C   UNL     1       2.268   7.574  19.398  0.00  0.00    +0.000 A 
ATOM      5  N   UNL     1       1.530   8.578  19.941  0.00  0.00    +0.000 N 
ATOM      6  C   UNL     1       1.059   9.732  19.173  0.00  0.00    +0.000 C 
ATOM      7  C   UNL     1      -0.456   9.949  19.378  0.00  0.00    +0.000 C 
ATOM      8  N   UNL     1      -0.853   9.968  20.822  0.00  0.00    +0.000 NA
ATOM      9  C   UNL     1      -0.402   8.692  21.476  0.00  0.00    +0.000 C 
ATOM     10  C   UNL     1       1.116   8.498  21.350  0.00  0.00    +0.000 C 
ATOM     11  S   UNL     1       3.235   7.752  17.974  0.00  0.00    +0.000 S 
ENDROOT
BRANCH   8  12
ATOM     12  S   UNL     1      -0.483  11.386  21.698  0.00  0.00    +0.000 S 
ATOM     13  O   UNL     1       0.045  10.990  22.987  0.00  0.00    +0.000 OA
ATOM     14  O   UNL     1       0.258  12.282  20.837  0.00  0.00    +0.000 OA
BRANCH  12  15
ATOM     15  C   UNL     1      -2.086  12.093  21.977  0.00  0.00    +0.000 A 
ATOM     16  C   UNL     1      -2.805  12.579  20.881  0.00  0.00    +0.000 A 
ATOM     17  C   UNL     1      -4.069  13.129  21.081  0.00  0.00    +0.000 A 
ATOM     18  C   UNL     1      -4.612  13.184  22.366  0.00  0.00    +0.000 A 
ATOM     19  C   UNL     1      -3.896  12.686  23.456  0.00  0.00    +0.000 A 
ATOM     20  C   UNL     1      -2.627  12.135  23.266  0.00  0.00    +0.000 A 
ENDBRANCH  12  15
ENDBRANCH   8  12
BRANCH   1  22
ATOM     21  C   UNL     1       5.994   5.714  17.327  0.00  0.00    +0.000 C 
ATOM     22  C   UNL     1       4.672   5.583  17.133  0.00  0.00    +0.000 C 
BRANCH  21  24
ATOM     23  O   UNL     1       7.821   4.354  16.604  0.00  0.00    +0.000 OA
ATOM     24  C   UNL     1       6.965   5.186  16.341  0.00  0.00    +0.000 C 
ATOM     25  N   UNL     1       6.783   5.719  15.088  0.00  0.00    +0.000 N 
ATOM     26  H   UNL     1       6.027   6.335  14.819  0.00  0.00    +0.000 HD
BRANCH  25  27
ATOM     27  O   UNL     1       7.592   5.214  14.052  0.00  0.00    +0.000 OA
ATOM     28  H   UNL     1       7.631   4.255  14.258  0.00  0.00    +0.000 HD
ENDBRANCH  25  27
ENDBRANCH  21  24
ENDBRANCH   1  22
TORSDOF 5
ENDMDL
MODEL 4
REMARK VINA RESULT:      -7.2      2.690     10.220
REMARK  Name = 
REMARK  5 active torsions:
REMARK  status: ('A' for Active; 'I' for Inactive)
REMARK    1  A    between atoms: C_2  and  C_3
REMARK    2  A    between atoms: C_4  and  C_5
REMARK    3  A    between atoms: N_12  and  S_13
REMARK    4  A    between atoms: S_13  and  C_16
REMARK    5  A    between atoms: N_25  and  O_26
REMARK                            x       y       z     vdW  Elec       q    Type
REMARK                         _______ _______ _______ _____ _____    ______ ____
ROOT
ATOM      1  C   UNL     1       0.074  10.377  20.273  0.00  0.00    +0.000 A 
ATOM      2  C   UNL     1       0.356  10.283  18.923  0.00  0.00    +0.000 A 
ATOM      3  N   UNL     1       1.183   9.253  18.535  0.00  0.00    +0.000 NA
ATOM      4  C   UNL     1       1.506   8.501  19.563  0.00  0.00    +0.000 A 
ATOM      5  N   UNL     1       2.301   7.404  19.449  0.00  0.00    +0.000 N 
ATOM      6  C   UNL     1       2.289   6.302  20.413  0.00  0.00    +0.000 C 
ATOM      7  C   UNL     1       2.133   4.945  19.694  0.00  0.00    +0.000 C 
ATOM      8  N   UNL     1       3.104   4.767  18.566  0.00  0.00    +0.000 NA
ATOM      9  C   UNL     1       2.953   5.905  17.597  0.00  0.00    +0.000 C 
ATOM     10  C   UNL     1       3.181   7.262  18.279  0.00  0.00    +0.000 C 
ATOM     11  S   UNL     1       0.834   9.051  21.061  0.00  0.00    +0.000 S 
ENDROOT
BRANCH   8  12
ATOM     12  S   UNL     1       4.717   4.408  18.996  0.00  0.00    +0.000 S 
ATOM     13  O   UNL     1       5.205   5.480  19.838  0.00  0.00    +0.000 OA
ATOM     14  O   UNL     1       4.783   3.031  19.437  0.00  0.00    +0.000 OA
BRANCH  12  15
ATOM     15  C   UNL     1       5.564   4.527  17.441  0.00  0.00    +0.000 A 
ATOM     16  C   UNL     1       6.591   5.466  17.308  0.00  0.00    +0.000 A 
ATOM     17  C   UNL     1       7.273   5.567  16.098  0.00  0.00    +0.000 A 
ATOM     18  C   UNL     1       6.934   4.729  15.032  0.00  0.00    +0.000 A 
ATOM     19  C   UNL     1       5.915   3.785  15.175  0.00  0.00    +0.000 A 
ATOM     20  C   UNL     1       5.225   3.678  16.384  0.00  0.00    +0.000 A 
ENDBRANCH  12  15
ENDBRANCH   8  12
BRANCH   1  22
ATOM     21  C   UNL     1      -0.790  11.216  22.348  0.00  0.00    +0.000 C 
ATOM     22  C   UNL     1      -0.683  11.327  21.014  0.00  0.00    +0.000 C 
BRANCH  21  24
ATOM     23  O   UNL     1      -1.207  13.299  23.440  0.00  0.00    +0.000 OA
ATOM     24  C   UNL     1      -1.594  12.182  23.130  0.00  0.00    +0.000 C 
ATOM     25  N   UNL     1      -2.836  11.694  23.451  0.00  0.00    +0.000 N 
ATOM     26  H   UNL     1      -3.220  10.814  23.130  0.00  0.00    +0.000 HD
BRANCH  25  27
ATOM     27  O   UNL     1      -3.720  12.568  24.113  0.00  0.00    +0.000 OA
ATOM     28  H   UNL     1      -4.477  11.982  24.332  0.00  0.00    +0.000 HD
ENDBRANCH  25  27
ENDBRANCH  21  24
ENDBRANCH   1  22
TORSDOF 5
ENDMDL
MODEL 5
REMARK VINA RESULT:      -7.2      1.366      1.557
REMARK  Name = 
REMARK  5 active torsions:
REMARK  status: ('A' for Active; 'I' for Inactive)
REMARK    1  A    between atoms: C_2  and  C_3
REMARK    2  A    between atoms: C_4  and  C_5
REMARK    3  A    between atoms: N_12  and  S_13
REMARK    4  A    between atoms: S_13  and  C_16
REMARK    5  A    between atoms: N_25  and  O_26
REMARK                            x       y       z     vdW  Elec       q    Type
REMARK                         _______ _______ _______ _____ _____    ______ ____
ROOT
ATOM      1  C   UNL     1       3.088   6.600  18.304  0.00  0.00    +0.000 A 
ATOM      2  C   UNL     1       2.683   6.340  19.600  0.00  0.00    +0.000 A 
ATOM      3  N   UNL     1       2.005   7.348  20.248  0.00  0.00    +0.000 NA
ATOM      4  C   UNL     1       1.823   8.377  19.451  0.00  0.00    +0.000 A 
ATOM      5  N   UNL     1       1.164   9.500  19.840  0.00  0.00    +0.000 N 
ATOM      6  C   UNL     1       0.526  10.422  18.899  0.00  0.00    +0.000 C 
ATOM      7  C   UNL     1      -0.933  10.710  19.314  0.00  0.00    +0.000 C 
ATOM      8  N   UNL     1      -1.063  11.110  20.751  0.00  0.00    +0.000 NA
ATOM      9  C   UNL     1      -0.462  10.042  21.620  0.00  0.00    +0.000 C 
ATOM     10  C   UNL     1       1.014   9.795  21.273  0.00  0.00    +0.000 C 
ATOM     11  S   UNL     1       2.511   8.161  17.876  0.00  0.00    +0.000 S 
ENDROOT
BRANCH   8  12
ATOM     12  S   UNL     1      -0.586  12.701  21.148  0.00  0.00    +0.000 S 
ATOM     13  O   UNL     1       0.740  12.640  21.725  0.00  0.00    +0.000 OA
ATOM     14  O   UNL     1      -0.864  13.563  20.019  0.00  0.00    +0.000 OA
BRANCH  12  15
ATOM     15  C   UNL     1      -1.712  13.125  22.452  0.00  0.00    +0.000 A 
ATOM     16  C   UNL     1      -1.348  14.132  23.351  0.00  0.00    +0.000 A 
ATOM     17  C   UNL     1      -2.224  14.484  24.375  0.00  0.00    +0.000 A 
ATOM     18  C   UNL     1      -3.458  13.839  24.493  0.00  0.00    +0.000 A 
ATOM     19  C   UNL     1      -3.821  12.842  23.585  0.00  0.00    +0.000 A 
ATOM     20  C   UNL     1      -2.949  12.482  22.557  0.00  0.00    +0.000 A 
ENDBRANCH  12  15
ENDBRANCH   8  12
BRANCH   1  22
ATOM     21  C   UNL     1       4.968   6.315  16.840  0.00  0.00    +0.000 C 
ATOM     22  C   UNL     1       3.840   5.824  17.378  0.00  0.00    +0.000 C 
BRANCH  21  24
ATOM     23  O   UNL     1       5.288   4.604  15.205  0.00  0.00    +0.000 OA
ATOM     24  C   UNL     1       5.748   5.530  15.857  0.00  0.00    +0.000 C 
ATOM     25  N   UNL     1       7.043   5.970  15.741  0.00  0.00    +0.000 N 
ATOM     26  H   UNL     1       7.425   6.789  16.196  0.00  0.00    +0.000 HD
BRANCH  25  27
ATOM     27  O   UNL     1       7.847   5.353  14.763  0.00  0.00    +0.000 OA
ATOM     28  H   UNL     1       8.145   4.534  15.216  0.00  0.00    +0.000 HD
ENDBRANCH  25  27
ENDBRANCH  21  24
ENDBRANCH   1  22
TORSDOF 5
ENDMDL
MODEL 6
REMARK VINA RESULT:      -7.1      0.861      1.321
REMARK  Name = 
REMARK  5 active torsions:
REMARK  status: ('A' for Active; 'I' for Inactive)
REMARK    1  A    between atoms: C_2  and  C_3
REMARK    2  A    between atoms: C_4  and  C_5
REMARK    3  A    between atoms: N_12  and  S_13
REMARK    4  A    between atoms: S_13  and  C_16
REMARK    5  A    between atoms: N_25  and  O_26
REMARK                            x       y       z     vdW  Elec       q    Type
REMARK                         _______ _______ _______ _____ _____    ______ ____
ROOT
ATOM      1  C   UNL     1       3.651   5.455  18.270  0.00  0.00    +0.000 A 
ATOM      2  C   UNL     1       2.845   4.942  19.269  0.00  0.00    +0.000 A 
ATOM      3  N   UNL     1       2.112   5.850  19.999  0.00  0.00    +0.000 NA
ATOM      4  C   UNL     1       2.292   7.070  19.542  0.00  0.00    +0.000 A 
ATOM      5  N   UNL     1       1.668   8.153  20.077  0.00  0.00    +0.000 N 
ATOM      6  C   UNL     1       1.448   9.397  19.337  0.00  0.00    +0.000 C 
ATOM      7  C   UNL     1      -0.029   9.838  19.428  0.00  0.00    +0.000 C 
ATOM      8  N   UNL     1      -0.547   9.857  20.833  0.00  0.00    +0.000 NA
ATOM      9  C   UNL     1      -0.355   8.501  21.451  0.00  0.00    +0.000 C 
ATOM     10  C   UNL     1       1.121   8.078  21.440  0.00  0.00    +0.000 C 
ATOM     11  S   UNL     1       3.400   7.155  18.215  0.00  0.00    +0.000 S 
ENDROOT
BRANCH   8  12
ATOM     12  S   UNL     1      -0.049  11.162  21.814  0.00  0.00    +0.000 S 
ATOM     13  O   UNL     1      -0.016  10.703  23.187  0.00  0.00    +0.000 OA
ATOM     14  O   UNL     1       1.114  11.777  21.211  0.00  0.00    +0.000 OA
BRANCH  12  15
ATOM     15  C   UNL     1      -1.407  12.294  21.667  0.00  0.00    +0.000 A 
ATOM     16  C   UNL     1      -1.410  13.202  20.604  0.00  0.00    +0.000 A 
ATOM     17  C   UNL     1      -2.473  14.092  20.468  0.00  0.00    +0.000 A 
ATOM     18  C   UNL     1      -3.529  14.066  21.383  0.00  0.00    +0.000 A 
ATOM     19  C   UNL     1      -3.527  13.148  22.435  0.00  0.00    +0.000 A 
ATOM     20  C   UNL     1      -2.464  12.254  22.580  0.00  0.00    +0.000 A 
ENDBRANCH  12  15
ENDBRANCH   8  12
BRANCH   1  22
ATOM     21  C   UNL     1       5.278   5.559  16.510  0.00  0.00    +0.000 C 
ATOM     22  C   UNL     1       4.562   4.826  17.377  0.00  0.00    +0.000 C 
BRANCH  21  24
ATOM     23  O   UNL     1       7.424   4.870  15.716  0.00  0.00    +0.000 OA
ATOM     24  C   UNL     1       6.212   4.916  15.558  0.00  0.00    +0.000 C 
ATOM     25  N   UNL     1       5.565   4.355  14.485  0.00  0.00    +0.000 N 
ATOM     26  H   UNL     1       4.562   4.295  14.373  0.00  0.00    +0.000 HD
BRANCH  25  27
ATOM     27  O   UNL     1       6.351   3.634  13.565  0.00  0.00    +0.000 OA
ATOM     28  H   UNL     1       6.034   3.972  12.700  0.00  0.00    +0.000 HD
ENDBRANCH  25  27
ENDBRANCH  21  24
ENDBRANCH   1  22
TORSDOF 5
ENDMDL
MODEL 7
REMARK VINA RESULT:      -7.1      2.766     10.249
REMARK  Name = 
REMARK  5 active torsions:
REMARK  status: ('A' for Active; 'I' for Inactive)
REMARK    1  A    between atoms: C_2  and  C_3
REMARK    2  A    between atoms: C_4  and  C_5
REMARK    3  A    between atoms: N_12  and  S_13
REMARK    4  A    between atoms: S_13  and  C_16
REMARK    5  A    between atoms: N_25  and  O_26
REMARK                            x       y       z     vdW  Elec       q    Type
REMARK                         _______ _______ _______ _____ _____    ______ ____
ROOT
ATOM      1  C   UNL     1      -0.020  10.303  20.242  0.00  0.00    +0.000 A 
ATOM      2  C   UNL     1       0.303  10.242  18.899  0.00  0.00    +0.000 A 
ATOM      3  N   UNL     1       1.155   9.232  18.515  0.00  0.00    +0.000 NA
ATOM      4  C   UNL     1       1.460   8.463  19.536  0.00  0.00    +0.000 A 
ATOM      5  N   UNL     1       2.274   7.380  19.424  0.00  0.00    +0.000 N 
ATOM      6  C   UNL     1       2.250   6.258  20.363  0.00  0.00    +0.000 C 
ATOM      7  C   UNL     1       2.135   4.914  19.612  0.00  0.00    +0.000 C 
ATOM      8  N   UNL     1       3.141   4.773  18.511  0.00  0.00    +0.000 NA
ATOM      9  C   UNL     1       3.001   5.929  17.561  0.00  0.00    +0.000 C 
ATOM     10  C   UNL     1       3.189   7.275  18.278  0.00  0.00    +0.000 C 
ATOM     11  S   UNL     1       0.736   8.972  21.024  0.00  0.00    +0.000 S 
ENDROOT
BRANCH   8  12
ATOM     12  S   UNL     1       4.746   4.428  18.980  0.00  0.00    +0.000 S 
ATOM     13  O   UNL     1       5.204   5.505  19.832  0.00  0.00    +0.000 OA
ATOM     14  O   UNL     1       4.812   3.053  19.425  0.00  0.00    +0.000 OA
BRANCH  12  15
ATOM     15  C   UNL     1       5.629   4.553  17.447  0.00  0.00    +0.000 A 
ATOM     16  C   UNL     1       5.271   3.704  16.396  0.00  0.00    +0.000 A 
ATOM     17  C   UNL     1       5.948   3.795  15.182  0.00  0.00    +0.000 A 
ATOM     18  C   UNL     1       6.970   4.734  15.019  0.00  0.00    +0.000 A 
ATOM     19  C   UNL     1       7.315   5.588  16.069  0.00  0.00    +0.000 A 
ATOM     20  C   UNL     1       6.643   5.502  17.290  0.00  0.00    +0.000 A 
ENDBRANCH  12  15
ENDBRANCH   8  12
BRANCH   1  22
ATOM     21  C   UNL     1      -0.942  11.096  22.310  0.00  0.00    +0.000 C 
ATOM     22  C   UNL     1      -0.812  11.227  20.980  0.00  0.00    +0.000 C 
BRANCH  21  24
ATOM     23  O   UNL     1      -2.901  11.766  23.503  0.00  0.00    +0.000 OA
ATOM     24  C   UNL     1      -1.783  12.035  23.088  0.00  0.00    +0.000 C 
ATOM     25  N   UNL     1      -1.158  13.237  23.312  0.00  0.00    +0.000 N 
ATOM     26  H   UNL     1      -0.202  13.454  23.064  0.00  0.00    +0.000 HD
BRANCH  25  27
ATOM     27  O   UNL     1      -1.832  14.170  24.124  0.00  0.00    +0.000 OA
ATOM     28  H   UNL     1      -1.456  13.991  25.014  0.00  0.00    +0.000 HD
ENDBRANCH  25  27
ENDBRANCH  21  24
ENDBRANCH   1  22
TORSDOF 5
ENDMDL
MODEL 8
REMARK VINA RESULT:      -7.0      2.621      3.230
REMARK  Name = 
REMARK  5 active torsions:
REMARK  status: ('A' for Active; 'I' for Inactive)
REMARK    1  A    between atoms: C_2  and  C_3
REMARK    2  A    between atoms: C_4  and  C_5
REMARK    3  A    between atoms: N_12  and  S_13
REMARK    4  A    between atoms: S_13  and  C_16
REMARK    5  A    between atoms: N_25  and  O_26
REMARK                            x       y       z     vdW  Elec       q    Type
REMARK                         _______ _______ _______ _____ _____    ______ ____
ROOT
ATOM      1  C   UNL     1       3.469   5.927  18.356  0.00  0.00    +0.000 A 
ATOM      2  C   UNL     1       3.879   6.992  17.574  0.00  0.00    +0.000 A 
ATOM      3  N   UNL     1       3.190   8.173  17.729  0.00  0.00    +0.000 NA
ATOM      4  C   UNL     1       2.278   8.062  18.670  0.00  0.00    +0.000 A 
ATOM      5  N   UNL     1       1.469   9.092  19.034  0.00  0.00    +0.000 N 
ATOM      6  C   UNL     1       0.817   9.175  20.342  0.00  0.00    +0.000 C 
ATOM      7  C   UNL     1       1.073  10.549  20.998  0.00  0.00    +0.000 C 
ATOM      8  N   UNL     1       0.771  11.698  20.085  0.00  0.00    +0.000 NA
ATOM      9  C   UNL     1       1.571  11.551  18.822  0.00  0.00    +0.000 C 
ATOM     10  C   UNL     1       1.272  10.222  18.113  0.00  0.00    +0.000 C 
ATOM     11  S   UNL     1       2.207   6.485  19.381  0.00  0.00    +0.000 S 
ENDROOT
BRANCH   8  12
ATOM     12  S   UNL     1      -0.878  12.068  19.842  0.00  0.00    +0.000 S 
ATOM     13  O   UNL     1      -0.961  13.103  18.833  0.00  0.00    +0.000 OA
ATOM     14  O   UNL     1      -1.614  10.831  19.695  0.00  0.00    +0.000 OA
BRANCH  12  15
ATOM     15  C   UNL     1      -1.339  12.801  21.391  0.00  0.00    +0.000 A 
ATOM     16  C   UNL     1      -0.491  13.756  21.959  0.00  0.00    +0.000 A 
ATOM     17  C   UNL     1      -0.842  14.348  23.170  0.00  0.00    +0.000 A 
ATOM     18  C   UNL     1      -2.036  13.993  23.802  0.00  0.00    +0.000 A 
ATOM     19  C   UNL     1      -2.885  13.047  23.224  0.00  0.00    +0.000 A 
ATOM     20  C   UNL     1      -2.541  12.447  22.012  0.00  0.00    +0.000 A 
ENDBRANCH  12  15
ENDBRANCH   8  12
BRANCH   1  22
ATOM     21  C   UNL     1       3.888   3.906  19.578  0.00  0.00    +0.000 C 
ATOM     22  C   UNL     1       3.911   4.576  18.415  0.00  0.00    +0.000 C 
BRANCH  21  24
ATOM     23  O   UNL     1       4.914   2.030  20.643  0.00  0.00    +0.000 OA
ATOM     24  C   UNL     1       4.367   2.507  19.660  0.00  0.00    +0.000 C 
ATOM     25  N   UNL     1       4.111   1.796  18.514  0.00  0.00    +0.000 N 
ATOM     26  H   UNL     1       3.579   2.135  17.722  0.00  0.00    +0.000 HD
BRANCH  25  27
ATOM     27  O   UNL     1       4.441   0.427  18.520  0.00  0.00    +0.000 OA
ATOM     28  H   UNL     1       5.299   0.415  18.995  0.00  0.00    +0.000 HD
ENDBRANCH  25  27
ENDBRANCH  21  24
ENDBRANCH   1  22
TORSDOF 5
ENDMDL
MODEL 9
REMARK VINA RESULT:      -6.8      1.650      2.012
REMARK  Name = 
REMARK  5 active torsions:
REMARK  status: ('A' for Active; 'I' for Inactive)
REMARK    1  A    between atoms: C_2  and  C_3
REMARK    2  A    between atoms: C_4  and  C_5
REMARK    3  A    between atoms: N_12  and  S_13
REMARK    4  A    between atoms: S_13  and  C_16
REMARK    5  A    between atoms: N_25  and  O_26
REMARK                            x       y       z     vdW  Elec       q    Type
REMARK                         _______ _______ _______ _____ _____    ______ ____
ROOT
ATOM      1  C   UNL     1       2.825   7.002  18.415  0.00  0.00    +0.000 A 
ATOM      2  C   UNL     1       2.450   6.779  19.727  0.00  0.00    +0.000 A 
ATOM      3  N   UNL     1       1.806   7.813  20.369  0.00  0.00    +0.000 NA
ATOM      4  C   UNL     1       1.621   8.826  19.554  0.00  0.00    +0.000 A 
ATOM      5  N   UNL     1       0.992   9.970  19.935  0.00  0.00    +0.000 N 
ATOM      6  C   UNL     1       0.345  10.882  18.989  0.00  0.00    +0.000 C 
ATOM      7  C   UNL     1      -1.097  11.205  19.436  0.00  0.00    +0.000 C 
ATOM      8  N   UNL     1      -1.182  11.639  20.867  0.00  0.00    +0.000 NA
ATOM      9  C   UNL     1      -0.576  10.580  21.743  0.00  0.00    +0.000 C 
ATOM     10  C   UNL     1       0.886  10.300  21.364  0.00  0.00    +0.000 C 
ATOM     11  S   UNL     1       2.264   8.564  17.968  0.00  0.00    +0.000 S 
ENDROOT
BRANCH   8  12
ATOM     12  S   UNL     1      -0.667  13.230  21.215  0.00  0.00    +0.000 S 
ATOM     13  O   UNL     1       0.652  13.154  21.807  0.00  0.00    +0.000 OA
ATOM     14  O   UNL     1      -0.912  14.059  20.055  0.00  0.00    +0.000 OA
BRANCH  12  15
ATOM     15  C   UNL     1      -1.794  13.727  22.493  0.00  0.00    +0.000 A 
ATOM     16  C   UNL     1      -3.160  13.500  22.307  0.00  0.00    +0.000 A 
ATOM     17  C   UNL     1      -4.058  13.875  23.304  0.00  0.00    +0.000 A 
ATOM     18  C   UNL     1      -3.590  14.464  24.481  0.00  0.00    +0.000 A 
ATOM     19  C   UNL     1      -2.222  14.677  24.666  0.00  0.00    +0.000 A 
ATOM     20  C   UNL     1      -1.316  14.306  23.671  0.00  0.00    +0.000 A 
ENDBRANCH  12  15
ENDBRANCH   8  12
BRANCH   1  22
ATOM     21  C   UNL     1       4.878   6.259  17.420  0.00  0.00    +0.000 C 
ATOM     22  C   UNL     1       3.539   6.193  17.488  0.00  0.00    +0.000 C 
BRANCH  21  24
ATOM     23  O   UNL     1       5.253   4.358  16.023  0.00  0.00    +0.000 OA
ATOM     24  C   UNL     1       5.632   5.441  16.444  0.00  0.00    +0.000 C 
ATOM     25  N   UNL     1       6.799   6.045  16.043  0.00  0.00    +0.000 N 
ATOM     26  H   UNL     1       7.092   6.978  16.300  0.00  0.00    +0.000 HD
BRANCH  25  27
ATOM     27  O   UNL     1       7.548   5.395  15.042  0.00  0.00    +0.000 OA
ATOM     28  H   UNL     1       7.525   6.042  14.304  0.00  0.00    +0.000 HD
ENDBRANCH  25  27
ENDBRANCH  21  24
ENDBRANCH   1  22
TORSDOF 5
ENDMDL
