MODEL 1
REMARK VINA RESULT:      -7.4      0.000      0.000
REMARK  Name = 
REMARK  5 active torsions:
REMARK  status: ('A' for Active; 'I' for Inactive)
REMARK    1  A    between atoms: S_2  and  C_4
REMARK    2  A    between atoms: S_2  and  N_10
REMARK    3  A    between atoms: C_4  and  C_5
REMARK    4  A    between atoms: N_13  and  C_14
REMARK    5  A    between atoms: C_14  and  C_15
REMARK                            x       y       z     vdW  Elec       q    Type
REMARK                         _______ _______ _______ _____ _____    ______ ____
ROOT
ATOM      1  N   UNL     1       6.146   5.770  18.101  0.00  0.00    +0.000 NA
ATOM      2  C   UNL     1       5.218   6.916  17.867  0.00  0.00    +0.000 C 
ATOM      3  C   UNL     1       3.910   6.470  17.180  0.00  0.00    +0.000 C 
ATOM      4  N   UNL     1       3.199   5.349  17.832  0.00  0.00    +0.000 NA
ATOM      5  C   UNL     1       4.155   4.246  18.085  0.00  0.00    +0.000 C 
ATOM      6  C   UNL     1       5.454   4.653  18.810  0.00  0.00    +0.000 C 
ENDROOT
BRANCH   1   8
ATOM      7  O   UNL     1       8.052   4.292  17.294  0.00  0.00    +0.000 OA
ATOM      8  S   UNL     1       7.184   5.352  16.814  0.00  0.00    +0.000 S 
ATOM      9  O   UNL     1       7.743   6.567  16.263  0.00  0.00    +0.000 OA
BRANCH   8  10
ATOM     10  C   UNL     1       6.027   4.650  15.646  0.00  0.00    +0.000 C 
BRANCH  10  11
ATOM     11  C   UNL     1       6.537   4.470  14.258  0.00  0.00    +0.000 A 
ATOM     12  C   UNL     1       6.115   3.620  13.207  0.00  0.00    +0.000 A 
ATOM     13  C   UNL     1       6.886   3.989  12.136  0.00  0.00    +0.000 A 
ATOM     14  O   UNL     1       7.735   4.974  12.509  0.00  0.00    +0.000 OA
ATOM     15  N   UNL     1       7.522   5.282  13.840  0.00  0.00    +0.000 NA
ENDBRANCH  10  11
ENDBRANCH   8  10
ENDBRANCH   1   8
BRANCH   4  16
ATOM     16  C   UNL     1       2.476   5.788  19.045  0.00  0.00    +0.000 C 
BRANCH  16  17
ATOM     17  C   UNL     1       2.073   4.641  19.944  0.00  0.00    +0.000 A 
ATOM     18  N   UNL     1       2.459   4.520  21.201  0.00  0.00    +0.000 NA
ATOM     19  C   UNL     1       2.021   3.312  21.707  0.00  0.00    +0.000 A 
ATOM     20  C   UNL     1       1.274   2.540  20.845  0.00  0.00    +0.000 A 
ATOM     21  S   UNL     1       1.110   3.346  19.341  0.00  0.00    +0.000 S 
ENDBRANCH  16  17
ENDBRANCH   4  16
TORSDOF 5
ENDMDL
MODEL 2
REMARK VINA RESULT:      -6.9      1.336      1.485
REMARK  Name = 
REMARK  5 active torsions:
REMARK  status: ('A' for Active; 'I' for Inactive)
REMARK    1  A    between atoms: S_2  and  C_4
REMARK    2  A    between atoms: S_2  and  N_10
REMARK    3  A    between atoms: C_4  and  C_5
REMARK    4  A    between atoms: N_13  and  C_14
REMARK    5  A    between atoms: C_14  and  C_15
REMARK                            x       y       z     vdW  Elec       q    Type
REMARK                         _______ _______ _______ _____ _____    ______ ____
ROOT
ATOM      1  N   UNL     1       5.768   6.383  18.527  0.00  0.00    +0.000 NA
ATOM      2  C   UNL     1       4.741   7.024  17.655  0.00  0.00    +0.000 C 
ATOM      3  C   UNL     1       4.076   6.009  16.702  0.00  0.00    +0.000 C 
ATOM      4  N   UNL     1       3.527   4.796  17.347  0.00  0.00    +0.000 NA
ATOM      5  C   UNL     1       4.557   4.207  18.235  0.00  0.00    +0.000 C 
ATOM      6  C   UNL     1       5.209   5.189  19.229  0.00  0.00    +0.000 C 
ENDROOT
BRANCH   1   8
ATOM      7  O   UNL     1       8.264   6.247  19.001  0.00  0.00    +0.000 OA
ATOM      8  S   UNL     1       7.341   6.242  17.881  0.00  0.00    +0.000 S 
ATOM      9  O   UNL     1       7.482   7.201  16.808  0.00  0.00    +0.000 OA
BRANCH   8  10
ATOM     10  C   UNL     1       7.290   4.590  17.197  0.00  0.00    +0.000 C 
BRANCH  10  11
ATOM     11  C   UNL     1       7.053   4.505  15.729  0.00  0.00    +0.000 A 
ATOM     12  C   UNL     1       6.152   3.721  14.969  0.00  0.00    +0.000 A 
ATOM     13  C   UNL     1       6.310   4.165  13.683  0.00  0.00    +0.000 A 
ATOM     14  O   UNL     1       7.256   5.131  13.652  0.00  0.00    +0.000 OA
ATOM     15  N   UNL     1       7.728   5.350  14.932  0.00  0.00    +0.000 NA
ENDBRANCH  10  11
ENDBRANCH   8  10
ENDBRANCH   1   8
BRANCH   4  16
ATOM     16  C   UNL     1       2.248   5.071  18.036  0.00  0.00    +0.000 C 
BRANCH  16  17
ATOM     17  C   UNL     1       2.003   4.162  19.219  0.00  0.00    +0.000 A 
ATOM     18  N   UNL     1       1.745   2.870  19.114  0.00  0.00    +0.000 NA
ATOM     19  C   UNL     1       1.454   2.353  20.360  0.00  0.00    +0.000 A 
ATOM     20  C   UNL     1       1.527   3.244  21.408  0.00  0.00    +0.000 A 
ATOM     21  S   UNL     1       1.975   4.791  20.822  0.00  0.00    +0.000 S 
ENDBRANCH  16  17
ENDBRANCH   4  16
TORSDOF 5
ENDMDL
MODEL 3
REMARK VINA RESULT:      -6.9      1.216      1.338
REMARK  Name = 
REMARK  5 active torsions:
REMARK  status: ('A' for Active; 'I' for Inactive)
REMARK    1  A    between atoms: S_2  and  C_4
REMARK    2  A    between atoms: S_2  and  N_10
REMARK    3  A    between atoms: C_4  and  C_5
REMARK    4  A    between atoms: N_13  and  C_14
REMARK    5  A    between atoms: C_14  and  C_15
REMARK                            x       y       z     vdW  Elec       q    Type
REMARK                         _______ _______ _______ _____ _____    ______ ____
ROOT
ATOM      1  N   UNL     1       6.157   5.243  18.000  0.00  0.00    +0.000 NA
ATOM      2  C   UNL     1       5.542   6.597  18.128  0.00  0.00    +0.000 C 
ATOM      3  C   UNL     1       4.236   6.719  17.316  0.00  0.00    +0.000 C 
ATOM      4  N   UNL     1       3.229   5.664  17.567  0.00  0.00    +0.000 NA
ATOM      5  C   UNL     1       3.879   4.336  17.471  0.00  0.00    +0.000 C 
ATOM      6  C   UNL     1       5.164   4.170  18.307  0.00  0.00    +0.000 C 
ENDROOT
BRANCH   1   8
ATOM      7  O   UNL     1       8.264   4.131  17.109  0.00  0.00    +0.000 OA
ATOM      8  S   UNL     1       7.185   4.993  16.662  0.00  0.00    +0.000 S 
ATOM      9  O   UNL     1       7.470   6.276  16.058  0.00  0.00    +0.000 OA
BRANCH   8  10
ATOM     10  C   UNL     1       6.122   4.050  15.576  0.00  0.00    +0.000 C 
BRANCH  10  11
ATOM     11  C   UNL     1       6.418   4.166  14.121  0.00  0.00    +0.000 A 
ATOM     12  C   UNL     1       7.491   4.778  13.427  0.00  0.00    +0.000 A 
ATOM     13  C   UNL     1       7.282   4.452  12.113  0.00  0.00    +0.000 A 
ATOM     14  O   UNL     1       6.150   3.718  12.005  0.00  0.00    +0.000 OA
ATOM     15  N   UNL     1       5.603   3.533  13.261  0.00  0.00    +0.000 NA
ENDBRANCH  10  11
ENDBRANCH   8  10
ENDBRANCH   1   8
BRANCH   4  16
ATOM     16  C   UNL     1       2.518   5.878  18.846  0.00  0.00    +0.000 C 
BRANCH  16  17
ATOM     17  C   UNL     1       1.980   4.599  19.447  0.00  0.00    +0.000 A 
ATOM     18  N   UNL     1       1.235   3.732  18.785  0.00  0.00    +0.000 NA
ATOM     19  C   UNL     1       0.809   2.738  19.643  0.00  0.00    +0.000 A 
ATOM     20  C   UNL     1       1.261   2.834  20.940  0.00  0.00    +0.000 A 
ATOM     21  S   UNL     1       2.257   4.220  21.104  0.00  0.00    +0.000 S 
ENDBRANCH  16  17
ENDBRANCH   4  16
TORSDOF 5
ENDMDL
MODEL 4
REMARK VINA RESULT:      -6.9      0.936      1.453
REMARK  Name = 
REMARK  5 active torsions:
REMARK  status: ('A' for Active; 'I' for Inactive)
REMARK    1  A    between atoms: S_2  and  C_4
REMARK    2  A    between atoms: S_2  and  N_10
REMARK    3  A    between atoms: C_4  and  C_5
REMARK    4  A    between atoms: N_13  and  C_14
REMARK    5  A    between atoms: C_14  and  C_15
REMARK                            x       y       z     vdW  Elec       q    Type
REMARK                         _______ _______ _______ _____ _____    ______ ____
ROOT
ATOM      1  N   UNL     1       5.512   4.752  17.106  0.00  0.00    +0.000 NA
ATOM      2  C   UNL     1       5.077   4.108  18.381  0.00  0.00    +0.000 C 
ATOM      3  C   UNL     1       4.627   5.146  19.429  0.00  0.00    +0.000 C 
ATOM      4  N   UNL     1       3.614   6.120  18.965  0.00  0.00    +0.000 NA
ATOM      5  C   UNL     1       4.057   6.711  17.681  0.00  0.00    +0.000 C 
ATOM      6  C   UNL     1       4.472   5.695  16.598  0.00  0.00    +0.000 C 
ENDROOT
BRANCH   1   8
ATOM      7  O   UNL     1       7.959   4.068  16.987  0.00  0.00    +0.000 OA
ATOM      8  S   UNL     1       7.137   5.264  17.023  0.00  0.00    +0.000 S 
ATOM      9  O   UNL     1       7.351   6.274  18.036  0.00  0.00    +0.000 OA
BRANCH   8  10
ATOM     10  C   UNL     1       7.180   6.028  15.407  0.00  0.00    +0.000 C 
BRANCH  10  11
ATOM     11  C   UNL     1       7.056   5.100  14.249  0.00  0.00    +0.000 A 
ATOM     12  C   UNL     1       6.218   3.979  14.031  0.00  0.00    +0.000 A 
ATOM     13  C   UNL     1       6.472   3.606  12.737  0.00  0.00    +0.000 A 
ATOM     14  O   UNL     1       7.415   4.421  12.209  0.00  0.00    +0.000 OA
ATOM     15  N   UNL     1       7.786   5.361  13.152  0.00  0.00    +0.000 NA
ENDBRANCH  10  11
ENDBRANCH   8  10
ENDBRANCH   1   8
BRANCH   4  16
ATOM     16  C   UNL     1       2.265   5.520  18.900  0.00  0.00    +0.000 C 
BRANCH  16  17
ATOM     17  C   UNL     1       2.050   4.429  19.925  0.00  0.00    +0.000 A 
ATOM     18  N   UNL     1       2.239   4.591  21.222  0.00  0.00    +0.000 NA
ATOM     19  C   UNL     1       2.074   3.382  21.869  0.00  0.00    +0.000 A 
ATOM     20  C   UNL     1       1.723   2.319  21.066  0.00  0.00    +0.000 A 
ATOM     21  S   UNL     1       1.596   2.840  19.438  0.00  0.00    +0.000 S 
ENDBRANCH  16  17
ENDBRANCH   4  16
TORSDOF 5
ENDMDL
MODEL 5
REMARK VINA RESULT:      -6.9      1.638      2.075
REMARK  Name = 
REMARK  5 active torsions:
REMARK  status: ('A' for Active; 'I' for Inactive)
REMARK    1  A    between atoms: S_2  and  C_4
REMARK    2  A    between atoms: S_2  and  N_10
REMARK    3  A    between atoms: C_4  and  C_5
REMARK    4  A    between atoms: N_13  and  C_14
REMARK    5  A    between atoms: C_14  and  C_15
REMARK                            x       y       z     vdW  Elec       q    Type
REMARK                         _______ _______ _______ _____ _____    ______ ____
ROOT
ATOM      1  N   UNL     1       5.169   6.231  17.744  0.00  0.00    +0.000 NA
ATOM      2  C   UNL     1       3.940   5.400  17.574  0.00  0.00    +0.000 C 
ATOM      3  C   UNL     1       4.254   3.890  17.604  0.00  0.00    +0.000 C 
ATOM      4  N   UNL     1       5.040   3.427  18.770  0.00  0.00    +0.000 NA
ATOM      5  C   UNL     1       6.229   4.295  18.933  0.00  0.00    +0.000 C 
ATOM      6  C   UNL     1       5.941   5.810  18.950  0.00  0.00    +0.000 C 
ENDROOT
BRANCH   1   8
ATOM      7  O   UNL     1       7.157   7.443  16.721  0.00  0.00    +0.000 OA
ATOM      8  S   UNL     1       6.059   6.577  16.331  0.00  0.00    +0.000 S 
ATOM      9  O   UNL     1       5.135   6.984  15.295  0.00  0.00    +0.000 OA
BRANCH   8  10
ATOM     10  C   UNL     1       6.723   4.966  15.932  0.00  0.00    +0.000 C 
BRANCH  10  11
ATOM     11  C   UNL     1       6.899   4.679  14.481  0.00  0.00    +0.000 A 
ATOM     12  C   UNL     1       6.213   3.800  13.609  0.00  0.00    +0.000 A 
ATOM     13  C   UNL     1       6.739   4.062  12.371  0.00  0.00    +0.000 A 
ATOM     14  O   UNL     1       7.696   5.013  12.480  0.00  0.00    +0.000 OA
ATOM     15  N   UNL     1       7.802   5.406  13.801  0.00  0.00    +0.000 NA
ENDBRANCH  10  11
ENDBRANCH   8  10
ENDBRANCH   1   8
BRANCH   4  16
ATOM     16  C   UNL     1       4.209   3.334  19.990  0.00  0.00    +0.000 C 
BRANCH  16  17
ATOM     17  C   UNL     1       2.764   2.998  19.701  0.00  0.00    +0.000 A 
ATOM     18  N   UNL     1       2.378   1.938  19.013  0.00  0.00    +0.000 NA
ATOM     19  C   UNL     1       1.011   1.981  18.824  0.00  0.00    +0.000 A 
ATOM     20  C   UNL     1       0.362   3.050  19.400  0.00  0.00    +0.000 A 
ATOM     21  S   UNL     1       1.497   4.049  20.208  0.00  0.00    +0.000 S 
ENDBRANCH  16  17
ENDBRANCH   4  16
TORSDOF 5
ENDMDL
MODEL 6
REMARK VINA RESULT:      -6.8      1.461      1.961
REMARK  Name = 
REMARK  5 active torsions:
REMARK  status: ('A' for Active; 'I' for Inactive)
REMARK    1  A    between atoms: S_2  and  C_4
REMARK    2  A    between atoms: S_2  and  N_10
REMARK    3  A    between atoms: C_4  and  C_5
REMARK    4  A    between atoms: N_13  and  C_14
REMARK    5  A    between atoms: C_14  and  C_15
REMARK                            x       y       z     vdW  Elec       q    Type
REMARK                         _______ _______ _______ _____ _____    ______ ____
ROOT
ATOM      1  N   UNL     1       5.303   5.185  15.697  0.00  0.00    +0.000 NA
ATOM      2  C   UNL     1       4.652   4.086  16.471  0.00  0.00    +0.000 C 
ATOM      3  C   UNL     1       4.791   4.291  17.994  0.00  0.00    +0.000 C 
ATOM      4  N   UNL     1       4.358   5.612  18.500  0.00  0.00    +0.000 NA
ATOM      5  C   UNL     1       4.990   6.677  17.688  0.00  0.00    +0.000 C 
ATOM      6  C   UNL     1       4.830   6.523  16.162  0.00  0.00    +0.000 C 
ENDROOT
BRANCH   1   8
ATOM      7  O   UNL     1       7.333   3.654  15.735  0.00  0.00    +0.000 OA
ATOM      8  S   UNL     1       6.970   5.014  15.380  0.00  0.00    +0.000 S 
ATOM      9  O   UNL     1       7.665   6.138  15.967  0.00  0.00    +0.000 OA
BRANCH   8  10
ATOM     10  C   UNL     1       7.004   5.161  13.599  0.00  0.00    +0.000 C 
BRANCH  10  11
ATOM     11  C   UNL     1       6.451   4.003  12.843  0.00  0.00    +0.000 A 
ATOM     12  C   UNL     1       5.125   3.533  12.683  0.00  0.00    +0.000 A 
ATOM     13  C   UNL     1       5.229   2.508  11.781  0.00  0.00    +0.000 A 
ATOM     14  O   UNL     1       6.526   2.342  11.434  0.00  0.00    +0.000 OA
ATOM     15  N   UNL     1       7.300   3.277  12.095  0.00  0.00    +0.000 NA
ENDBRANCH  10  11
ENDBRANCH   8  10
ENDBRANCH   1   8
BRANCH   4  16
ATOM     16  C   UNL     1       2.885   5.719  18.565  0.00  0.00    +0.000 C 
BRANCH  16  17
ATOM     17  C   UNL     1       2.258   4.725  19.515  0.00  0.00    +0.000 A 
ATOM     18  N   UNL     1       2.447   4.736  20.823  0.00  0.00    +0.000 NA
ATOM     19  C   UNL     1       1.836   3.634  21.388  0.00  0.00    +0.000 A 
ATOM     20  C   UNL     1       1.157   2.814  20.515  0.00  0.00    +0.000 A 
ATOM     21  S   UNL     1       1.283   3.435  18.922  0.00  0.00    +0.000 S 
ENDBRANCH  16  17
ENDBRANCH   4  16
TORSDOF 5
ENDMDL
MODEL 7
REMARK VINA RESULT:      -6.7      1.696      2.117
REMARK  Name = 
REMARK  5 active torsions:
REMARK  status: ('A' for Active; 'I' for Inactive)
REMARK    1  A    between atoms: S_2  and  C_4
REMARK    2  A    between atoms: S_2  and  N_10
REMARK    3  A    between atoms: C_4  and  C_5
REMARK    4  A    between atoms: N_13  and  C_14
REMARK    5  A    between atoms: C_14  and  C_15
REMARK                            x       y       z     vdW  Elec       q    Type
REMARK                         _______ _______ _______ _____ _____    ______ ____
ROOT
ATOM      1  N   UNL     1       6.053   4.492  16.527  0.00  0.00    +0.000 NA
ATOM      2  C   UNL     1       6.781   4.379  17.826  0.00  0.00    +0.000 C 
ATOM      3  C   UNL     1       6.189   5.309  18.904  0.00  0.00    +0.000 C 
ATOM      4  N   UNL     1       4.729   5.192  19.114  0.00  0.00    +0.000 NA
ATOM      5  C   UNL     1       4.039   5.269  17.805  0.00  0.00    +0.000 C 
ATOM      6  C   UNL     1       4.582   4.318  16.719  0.00  0.00    +0.000 C 
ENDROOT
BRANCH   1   8
ATOM      7  O   UNL     1       7.577   6.497  16.170  0.00  0.00    +0.000 OA
ATOM      8  S   UNL     1       6.560   5.732  15.471  0.00  0.00    +0.000 S 
ATOM      9  O   UNL     1       5.386   6.386  14.936  0.00  0.00    +0.000 OA
BRANCH   8  10
ATOM     10  C   UNL     1       7.353   4.786  14.178  0.00  0.00    +0.000 C 
BRANCH  10  11
ATOM     11  C   UNL     1       6.439   4.040  13.269  0.00  0.00    +0.000 A 
ATOM     12  C   UNL     1       5.027   3.928  13.243  0.00  0.00    +0.000 A 
ATOM     13  C   UNL     1       4.760   3.209  12.108  0.00  0.00    +0.000 A 
ATOM     14  O   UNL     1       5.922   2.880  11.498  0.00  0.00    +0.000 OA
ATOM     15  N   UNL     1       6.980   3.398  12.220  0.00  0.00    +0.000 NA
ENDBRANCH  10  11
ENDBRANCH   8  10
ENDBRANCH   1   8
BRANCH   4  16
ATOM     16  C   UNL     1       4.381   3.981  19.889  0.00  0.00    +0.000 C 
BRANCH  16  17
ATOM     17  C   UNL     1       2.906   3.653  19.849  0.00  0.00    +0.000 A 
ATOM     18  N   UNL     1       1.974   4.380  20.438  0.00  0.00    +0.000 NA
ATOM     19  C   UNL     1       0.750   3.753  20.315  0.00  0.00    +0.000 A 
ATOM     20  C   UNL     1       0.753   2.574  19.603  0.00  0.00    +0.000 A 
ATOM     21  S   UNL     1       2.342   2.227  19.065  0.00  0.00    +0.000 S 
ENDBRANCH  16  17
ENDBRANCH   4  16
TORSDOF 5
ENDMDL
MODEL 8
REMARK VINA RESULT:      -6.7      1.389      1.882
REMARK  Name = 
REMARK  5 active torsions:
REMARK  status: ('A' for Active; 'I' for Inactive)
REMARK    1  A    between atoms: S_2  and  C_4
REMARK    2  A    between atoms: S_2  and  N_10
REMARK    3  A    between atoms: C_4  and  C_5
REMARK    4  A    between atoms: N_13  and  C_14
REMARK    5  A    between atoms: C_14  and  C_15
REMARK                            x       y       z     vdW  Elec       q    Type
REMARK                         _______ _______ _______ _____ _____    ______ ____
ROOT
ATOM      1  N   UNL     1       5.141   5.106  17.935  0.00  0.00    +0.000 NA
ATOM      2  C   UNL     1       4.429   4.460  19.077  0.00  0.00    +0.000 C 
ATOM      3  C   UNL     1       3.693   5.490  19.957  0.00  0.00    +0.000 C 
ATOM      4  N   UNL     1       2.789   6.414  19.236  0.00  0.00    +0.000 NA
ATOM      5  C   UNL     1       3.513   7.007  18.087  0.00  0.00    +0.000 C 
ATOM      6  C   UNL     1       4.224   5.997  17.164  0.00  0.00    +0.000 C 
ENDROOT
BRANCH   1   8
ATOM      7  O   UNL     1       7.019   5.373  19.629  0.00  0.00    +0.000 OA
ATOM      8  S   UNL     1       6.715   5.687  18.245  0.00  0.00    +0.000 S 
ATOM      9  O   UNL     1       6.803   7.048  17.764  0.00  0.00    +0.000 OA
BRANCH   8  10
ATOM     10  C   UNL     1       7.694   4.623  17.194  0.00  0.00    +0.000 C 
BRANCH  10  11
ATOM     11  C   UNL     1       7.242   4.518  15.779  0.00  0.00    +0.000 A 
ATOM     12  C   UNL     1       6.321   3.646  15.150  0.00  0.00    +0.000 A 
ATOM     13  C   UNL     1       6.230   4.110  13.864  0.00  0.00    +0.000 A 
ATOM     14  O   UNL     1       7.056   5.171  13.708  0.00  0.00    +0.000 OA
ATOM     15  N   UNL     1       7.694   5.434  14.905  0.00  0.00    +0.000 NA
ENDBRANCH  10  11
ENDBRANCH   8  10
ENDBRANCH   1   8
BRANCH   4  16
ATOM     16  C   UNL     1       1.522   5.754  18.852  0.00  0.00    +0.000 C 
BRANCH  16  17
ATOM     17  C   UNL     1       1.350   4.389  19.478  0.00  0.00    +0.000 A 
ATOM     18  N   UNL     1       1.231   4.185  20.777  0.00  0.00    +0.000 NA
ATOM     19  C   UNL     1       1.209   2.828  21.033  0.00  0.00    +0.000 A 
ATOM     20  C   UNL     1       1.274   2.011  19.927  0.00  0.00    +0.000 A 
ATOM     21  S   UNL     1       1.370   2.967  18.507  0.00  0.00    +0.000 S 
ENDBRANCH  16  17
ENDBRANCH   4  16
TORSDOF 5
ENDMDL
MODEL 9
REMARK VINA RESULT:      -6.7      2.829      6.949
REMARK  Name = 
REMARK  5 active torsions:
REMARK  status: ('A' for Active; 'I' for Inactive)
REMARK    1  A    between atoms: S_2  and  C_4
REMARK    2  A    between atoms: S_2  and  N_10
REMARK    3  A    between atoms: C_4  and  C_5
REMARK    4  A    between atoms: N_13  and  C_14
REMARK    5  A    between atoms: C_14  and  C_15
REMARK                            x       y       z     vdW  Elec       q    Type
REMARK                         _______ _______ _______ _____ _____    ______ ____
ROOT
ATOM      1  N   UNL     1       5.408   5.492  17.577  0.00  0.00    +0.000 NA
ATOM      2  C   UNL     1       6.778   5.786  17.063  0.00  0.00    +0.000 C 
ATOM      3  C   UNL     1       7.433   4.546  16.421  0.00  0.00    +0.000 C 
ATOM      4  N   UNL     1       6.625   3.862  15.388  0.00  0.00    +0.000 NA
ATOM      5  C   UNL     1       5.262   3.620  15.915  0.00  0.00    +0.000 C 
ATOM      6  C   UNL     1       4.564   4.853  16.524  0.00  0.00    +0.000 C 
ENDROOT
BRANCH   1   8
ATOM      7  O   UNL     1       6.436   5.373  19.901  0.00  0.00    +0.000 OA
ATOM      8  S   UNL     1       5.304   4.852  19.155  0.00  0.00    +0.000 S 
ATOM      9  O   UNL     1       5.081   3.427  19.057  0.00  0.00    +0.000 OA
BRANCH   8  10
ATOM     10  C   UNL     1       3.818   5.644  19.756  0.00  0.00    +0.000 C 
BRANCH  10  11
ATOM     11  C   UNL     1       2.642   4.751  19.950  0.00  0.00    +0.000 A 
ATOM     12  C   UNL     1       1.753   4.158  19.021  0.00  0.00    +0.000 A 
ATOM     13  C   UNL     1       0.952   3.347  19.782  0.00  0.00    +0.000 A 
ATOM     14  O   UNL     1       1.306   3.455  21.083  0.00  0.00    +0.000 OA
ATOM     15  N   UNL     1       2.366   4.335  21.197  0.00  0.00    +0.000 NA
ENDBRANCH  10  11
ENDBRANCH   8  10
ENDBRANCH   1   8
BRANCH   4  16
ATOM     16  C   UNL     1       6.635   4.598  14.106  0.00  0.00    +0.000 C 
BRANCH  16  17
ATOM     17  C   UNL     1       6.061   3.800  12.957  0.00  0.00    +0.000 A 
ATOM     18  N   UNL     1       4.784   3.809  12.620  0.00  0.00    +0.000 NA
ATOM     19  C   UNL     1       4.564   2.890  11.613  0.00  0.00    +0.000 A 
ATOM     20  C   UNL     1       5.679   2.217  11.166  0.00  0.00    +0.000 A 
ATOM     21  S   UNL     1       7.060   2.743  12.034  0.00  0.00    +0.000 S 
ENDBRANCH  16  17
ENDBRANCH   4  16
TORSDOF 5
ENDMDL
