MODEL 1
REMARK VINA RESULT:      -8.0      0.000      0.000
REMARK  Name = 
REMARK  10 active torsions:
REMARK  status: ('A' for Active; 'I' for Inactive)
REMARK    1  A    between atoms: C_1  and  C_2
REMARK    2  A    between atoms: C_2  and  C_3
REMARK    3  A    between atoms: C_2  and  C_4
REMARK    4  A    between atoms: C_4  and  N_5
REMARK    5  A    between atoms: C_4  and  C_26
REMARK    6  A    between atoms: C_6  and  C_8
REMARK    7  A    between atoms: C_8  and  N_9
REMARK    8  A    between atoms: C_10  and  C_11
REMARK    9  A    between atoms: C_19  and  N_20
REMARK   10  A    between atoms: C_26  and  C_28
REMARK                            x       y       z     vdW  Elec       q    Type
REMARK                         _______ _______ _______ _____ _____    ______ ____
ROOT
ATOM      1  N   UNL     1       2.292   6.917  18.669  0.00  0.00    +0.000 N 
ATOM      2  C   UNL     1       1.986   6.427  19.946  0.00  0.00    +0.000 A 
ATOM      3  C   UNL     1       1.609   7.280  20.913  0.00  0.00    +0.000 A 
ATOM      4  C   UNL     1       1.634   8.700  20.685  0.00  0.00    +0.000 A 
ATOM      5  C   UNL     1       1.727   9.184  19.441  0.00  0.00    +0.000 A 
ATOM      6  C   UNL     1       1.819   8.189  18.312  0.00  0.00    +0.000 A 
ATOM      7  O   UNL     1       1.620   8.583  17.166  0.00  0.00    +0.000 OA
ENDROOT
BRANCH   5   8
ATOM      8  N   UNL     1       1.830  10.516  19.083  0.00  0.00    +0.000 N 
ATOM      9  C   UNL     1       0.788  11.396  18.983  0.00  0.00    +0.000 C 
ATOM     10  N   UNL     1       1.203  12.686  18.837  0.00  0.00    +0.000 N 
ATOM     11  O   UNL     1      -0.403  11.146  19.085  0.00  0.00    +0.000 OA
ATOM     12  H   UNL     1       2.743  10.916  19.241  0.00  0.00    +0.000 HD
ATOM     13  H   UNL     1       2.075  12.887  18.371  0.00  0.00    +0.000 HD
ATOM     14  H   UNL     1       0.452  13.348  18.676  0.00  0.00    +0.000 HD
ENDBRANCH   5   8
BRANCH   2  15
ATOM     15  C   UNL     1       1.883   4.987  20.254  0.00  0.00    +0.000 A 
ATOM     16  C   UNL     1       1.103   4.160  19.428  0.00  0.00    +0.000 A 
ATOM     17  C   UNL     1       0.817   2.846  19.804  0.00  0.00    +0.000 A 
ATOM     18  C   UNL     1       1.310   2.343  21.005  0.00  0.00    +0.000 A 
ATOM     19  C   UNL     1       2.110   3.144  21.817  0.00  0.00    +0.000 A 
ATOM     20  C   UNL     1       2.397   4.462  21.448  0.00  0.00    +0.000 A 
ENDBRANCH   2  15
BRANCH   1  21
ATOM     21  C   UNL     1       2.789   6.018  17.624  0.00  0.00    +0.000 C 
BRANCH  21  23
ATOM     22  N   UNL     1       5.183   6.145  16.894  0.00  0.00    +0.000 N 
ATOM     23  C   UNL     1       4.257   5.575  17.755  0.00  0.00    +0.000 C 
ATOM     24  O   UNL     1       4.616   4.856  18.684  0.00  0.00    +0.000 OA
ATOM     25  H   UNL     1       4.815   6.664  16.105  0.00  0.00    +0.000 HD
BRANCH  22  26
ATOM     26  C   UNL     1       6.571   5.629  16.797  0.00  0.00    +0.000 C 
BRANCH  26  28
ATOM     27  C   UNL     1       7.160   8.037  17.430  0.00  0.00    +0.000 C 
ATOM     28  C   UNL     1       7.619   6.571  17.470  0.00  0.00    +0.000 C 
ATOM     29  C   UNL     1       7.888   6.279  18.955  0.00  0.00    +0.000 C 
ENDBRANCH  26  28
BRANCH  26  30
ATOM     30  C   UNL     1       6.921   5.195  15.346  0.00  0.00    +0.000 C 
ATOM     31  O   UNL     1       7.874   5.678  14.721  0.00  0.00    +0.000 OA
BRANCH  30  32
ATOM     32  C   UNL     1       6.114   4.039  14.783  0.00  0.00    +0.000 C 
ATOM     33  F   UNL     1       6.673   3.456  13.682  0.00  0.00    +0.000 F 
ATOM     34  F   UNL     1       5.890   3.036  15.674  0.00  0.00    +0.000 F 
ATOM     35  F   UNL     1       4.881   4.455  14.369  0.00  0.00    +0.000 F 
ENDBRANCH  30  32
ENDBRANCH  26  30
ENDBRANCH  22  26
ENDBRANCH  21  23
ENDBRANCH   1  21
TORSDOF 8
ENDMDL
MODEL 2
REMARK VINA RESULT:      -7.7      3.956      7.271
REMARK  Name = 
REMARK  10 active torsions:
REMARK  status: ('A' for Active; 'I' for Inactive)
REMARK    1  A    between atoms: C_1  and  C_2
REMARK    2  A    between atoms: C_2  and  C_3
REMARK    3  A    between atoms: C_2  and  C_4
REMARK    4  A    between atoms: C_4  and  N_5
REMARK    5  A    between atoms: C_4  and  C_26
REMARK    6  A    between atoms: C_6  and  C_8
REMARK    7  A    between atoms: C_8  and  N_9
REMARK    8  A    between atoms: C_10  and  C_11
REMARK    9  A    between atoms: C_19  and  N_20
REMARK   10  A    between atoms: C_26  and  C_28
REMARK                            x       y       z     vdW  Elec       q    Type
REMARK                         _______ _______ _______ _____ _____    ______ ____
ROOT
ATOM      1  N   UNL     1       4.049   5.274  18.330  0.00  0.00    +0.000 N 
ATOM      2  C   UNL     1       3.446   4.011  18.275  0.00  0.00    +0.000 A 
ATOM      3  C   UNL     1       3.694   3.201  17.233  0.00  0.00    +0.000 A 
ATOM      4  C   UNL     1       4.474   3.665  16.117  0.00  0.00    +0.000 A 
ATOM      5  C   UNL     1       5.217   4.773  16.225  0.00  0.00    +0.000 A 
ATOM      6  C   UNL     1       5.185   5.507  17.541  0.00  0.00    +0.000 A 
ATOM      7  O   UNL     1       6.054   6.344  17.766  0.00  0.00    +0.000 OA
ENDROOT
BRANCH   5   8
ATOM      8  N   UNL     1       5.957   5.367  15.219  0.00  0.00    +0.000 N 
ATOM      9  C   UNL     1       7.276   5.123  14.950  0.00  0.00    +0.000 C 
ATOM     10  N   UNL     1       7.681   5.672  13.770  0.00  0.00    +0.000 N 
ATOM     11  O   UNL     1       8.048   4.435  15.600  0.00  0.00    +0.000 OA
ATOM     12  H   UNL     1       5.403   5.727  14.456  0.00  0.00    +0.000 HD
ATOM     13  H   UNL     1       7.249   6.519  13.431  0.00  0.00    +0.000 HD
ATOM     14  H   UNL     1       8.674   5.578  13.588  0.00  0.00    +0.000 HD
ENDBRANCH   5   8
BRANCH   2  15
ATOM     15  C   UNL     1       2.677   3.434  19.396  0.00  0.00    +0.000 A 
ATOM     16  C   UNL     1       1.284   3.612  19.439  0.00  0.00    +0.000 A 
ATOM     17  C   UNL     1       0.558   3.262  20.580  0.00  0.00    +0.000 A 
ATOM     18  C   UNL     1       1.214   2.727  21.685  0.00  0.00    +0.000 A 
ATOM     19  C   UNL     1       2.591   2.518  21.642  0.00  0.00    +0.000 A 
ATOM     20  C   UNL     1       3.325   2.869  20.504  0.00  0.00    +0.000 A 
ENDBRANCH   2  15
BRANCH   1  21
ATOM     21  C   UNL     1       3.725   6.210  19.412  0.00  0.00    +0.000 C 
BRANCH  21  23
ATOM     22  N   UNL     1       2.231   8.089  20.130  0.00  0.00    +0.000 N 
ATOM     23  C   UNL     1       2.507   7.120  19.177  0.00  0.00    +0.000 C 
ATOM     24  O   UNL     1       1.894   7.088  18.113  0.00  0.00    +0.000 OA
ATOM     25  H   UNL     1       2.719   8.012  21.015  0.00  0.00    +0.000 HD
BRANCH  22  26
ATOM     26  C   UNL     1       0.966   8.865  20.103  0.00  0.00    +0.000 C 
BRANCH  26  28
ATOM     27  C   UNL     1      -0.578  10.404  18.762  0.00  0.00    +0.000 C 
ATOM     28  C   UNL     1       0.739   9.611  18.750  0.00  0.00    +0.000 C 
ATOM     29  C   UNL     1       1.821  10.643  18.394  0.00  0.00    +0.000 C 
ENDBRANCH  26  28
BRANCH  26  30
ATOM     30  C   UNL     1       0.809   9.750  21.371  0.00  0.00    +0.000 C 
ATOM     31  O   UNL     1       1.444  10.801  21.528  0.00  0.00    +0.000 OA
BRANCH  30  32
ATOM     32  C   UNL     1      -0.274   9.330  22.348  0.00  0.00    +0.000 C 
ATOM     33  F   UNL     1      -0.952   8.205  21.975  0.00  0.00    +0.000 F 
ATOM     34  F   UNL     1       0.179   9.104  23.610  0.00  0.00    +0.000 F 
ATOM     35  F   UNL     1      -1.235  10.295  22.462  0.00  0.00    +0.000 F 
ENDBRANCH  30  32
ENDBRANCH  26  30
ENDBRANCH  22  26
ENDBRANCH  21  23
ENDBRANCH   1  21
TORSDOF 8
ENDMDL
MODEL 3
REMARK VINA RESULT:      -7.7      2.060      2.703
REMARK  Name = 
REMARK  10 active torsions:
REMARK  status: ('A' for Active; 'I' for Inactive)
REMARK    1  A    between atoms: C_1  and  C_2
REMARK    2  A    between atoms: C_2  and  C_3
REMARK    3  A    between atoms: C_2  and  C_4
REMARK    4  A    between atoms: C_4  and  N_5
REMARK    5  A    between atoms: C_4  and  C_26
REMARK    6  A    between atoms: C_6  and  C_8
REMARK    7  A    between atoms: C_8  and  N_9
REMARK    8  A    between atoms: C_10  and  C_11
REMARK    9  A    between atoms: C_19  and  N_20
REMARK   10  A    between atoms: C_26  and  C_28
REMARK                            x       y       z     vdW  Elec       q    Type
REMARK                         _______ _______ _______ _____ _____    ______ ____
ROOT
ATOM      1  N   UNL     1       2.434   6.713  18.589  0.00  0.00    +0.000 N 
ATOM      2  C   UNL     1       2.181   6.241  19.884  0.00  0.00    +0.000 A 
ATOM      3  C   UNL     1       1.747   7.091  20.829  0.00  0.00    +0.000 A 
ATOM      4  C   UNL     1       1.657   8.500  20.557  0.00  0.00    +0.000 A 
ATOM      5  C   UNL     1       1.698   8.951  19.297  0.00  0.00    +0.000 A 
ATOM      6  C   UNL     1       1.858   7.931  18.199  0.00  0.00    +0.000 A 
ATOM      7  O   UNL     1       1.617   8.272  17.044  0.00  0.00    +0.000 OA
ENDROOT
BRANCH   5   8
ATOM      8  N   UNL     1       1.691  10.275  18.898  0.00  0.00    +0.000 N 
ATOM      9  C   UNL     1       0.575  11.042  18.706  0.00  0.00    +0.000 C 
ATOM     10  N   UNL     1       0.869  12.363  18.537  0.00  0.00    +0.000 N 
ATOM     11  O   UNL     1      -0.590  10.677  18.748  0.00  0.00    +0.000 OA
ATOM     12  H   UNL     1       2.548  10.770  19.094  0.00  0.00    +0.000 HD
ATOM     13  H   UNL     1       1.744  12.636  18.115  0.00  0.00    +0.000 HD
ATOM     14  H   UNL     1       0.067  12.941  18.309  0.00  0.00    +0.000 HD
ENDBRANCH   5   8
BRANCH   2  15
ATOM     15  C   UNL     1       2.196   4.807  20.237  0.00  0.00    +0.000 A 
ATOM     16  C   UNL     1       0.995   4.174  20.597  0.00  0.00    +0.000 A 
ATOM     17  C   UNL     1       1.005   2.884  21.133  0.00  0.00    +0.000 A 
ATOM     18  C   UNL     1       2.211   2.212  21.308  0.00  0.00    +0.000 A 
ATOM     19  C   UNL     1       3.406   2.819  20.924  0.00  0.00    +0.000 A 
ATOM     20  C   UNL     1       3.404   4.112  20.392  0.00  0.00    +0.000 A 
ENDBRANCH   2  15
BRANCH   1  21
ATOM     21  C   UNL     1       2.992   5.824  17.566  0.00  0.00    +0.000 C 
BRANCH  21  23
ATOM     22  N   UNL     1       5.211   5.096  16.657  0.00  0.00    +0.000 N 
ATOM     23  C   UNL     1       4.419   6.148  17.092  0.00  0.00    +0.000 C 
ATOM     24  O   UNL     1       4.790   7.313  16.965  0.00  0.00    +0.000 OA
ATOM     25  H   UNL     1       4.880   4.160  16.861  0.00  0.00    +0.000 HD
BRANCH  22  26
ATOM     26  C   UNL     1       6.660   5.275  16.389  0.00  0.00    +0.000 C 
BRANCH  26  28
ATOM     27  C   UNL     1       5.960   3.857  14.377  0.00  0.00    +0.000 C 
ATOM     28  C   UNL     1       7.117   4.611  15.051  0.00  0.00    +0.000 C 
ATOM     29  C   UNL     1       7.626   5.593  13.985  0.00  0.00    +0.000 C 
ENDBRANCH  26  28
BRANCH  26  30
ATOM     30  C   UNL     1       7.522   4.907  17.628  0.00  0.00    +0.000 C 
ATOM     31  O   UNL     1       8.299   3.944  17.633  0.00  0.00    +0.000 OA
BRANCH  30  32
ATOM     32  C   UNL     1       7.467   5.881  18.791  0.00  0.00    +0.000 C 
ATOM     33  F   UNL     1       7.560   7.192  18.423  0.00  0.00    +0.000 F 
ATOM     34  F   UNL     1       6.340   5.775  19.547  0.00  0.00    +0.000 F 
ATOM     35  F   UNL     1       8.512   5.684  19.649  0.00  0.00    +0.000 F 
ENDBRANCH  30  32
ENDBRANCH  26  30
ENDBRANCH  22  26
ENDBRANCH  21  23
ENDBRANCH   1  21
TORSDOF 8
ENDMDL
MODEL 4
REMARK VINA RESULT:      -7.6      3.577      7.074
REMARK  Name = 
REMARK  10 active torsions:
REMARK  status: ('A' for Active; 'I' for Inactive)
REMARK    1  A    between atoms: C_1  and  C_2
REMARK    2  A    between atoms: C_2  and  C_3
REMARK    3  A    between atoms: C_2  and  C_4
REMARK    4  A    between atoms: C_4  and  N_5
REMARK    5  A    between atoms: C_4  and  C_26
REMARK    6  A    between atoms: C_6  and  C_8
REMARK    7  A    between atoms: C_8  and  N_9
REMARK    8  A    between atoms: C_10  and  C_11
REMARK    9  A    between atoms: C_19  and  N_20
REMARK   10  A    between atoms: C_26  and  C_28
REMARK                            x       y       z     vdW  Elec       q    Type
REMARK                         _______ _______ _______ _____ _____    ______ ____
ROOT
ATOM      1  N   UNL     1       3.725   5.957  18.051  0.00  0.00    +0.000 N 
ATOM      2  C   UNL     1       3.229   4.652  18.173  0.00  0.00    +0.000 A 
ATOM      3  C   UNL     1       3.645   3.700  17.320  0.00  0.00    +0.000 A 
ATOM      4  C   UNL     1       4.499   4.035  16.212  0.00  0.00    +0.000 A 
ATOM      5  C   UNL     1       5.140   5.210  16.182  0.00  0.00    +0.000 A 
ATOM      6  C   UNL     1       4.915   6.155  17.336  0.00  0.00    +0.000 A 
ATOM      7  O   UNL     1       5.690   7.096  17.481  0.00  0.00    +0.000 OA
ENDROOT
BRANCH   5   8
ATOM      8  N   UNL     1       5.932   5.688  15.155  0.00  0.00    +0.000 N 
ATOM      9  C   UNL     1       7.199   5.265  14.863  0.00  0.00    +0.000 C 
ATOM     10  N   UNL     1       7.650   5.742  13.669  0.00  0.00    +0.000 N 
ATOM     11  O   UNL     1       7.885   4.485  15.507  0.00  0.00    +0.000 OA
ATOM     12  H   UNL     1       5.415   6.112  14.398  0.00  0.00    +0.000 HD
ATOM     13  H   UNL     1       7.330   6.635  13.327  0.00  0.00    +0.000 HD
ATOM     14  H   UNL     1       8.618   5.512  13.469  0.00  0.00    +0.000 HD
ENDBRANCH   5   8
BRANCH   2  15
ATOM     15  C   UNL     1       2.395   4.208  19.307  0.00  0.00    +0.000 A 
ATOM     16  C   UNL     1       2.944   4.188  20.600  0.00  0.00    +0.000 A 
ATOM     17  C   UNL     1       2.258   3.583  21.655  0.00  0.00    +0.000 A 
ATOM     18  C   UNL     1       1.015   2.998  21.431  0.00  0.00    +0.000 A 
ATOM     19  C   UNL     1       0.446   3.039  20.159  0.00  0.00    +0.000 A 
ATOM     20  C   UNL     1       1.130   3.640  19.098  0.00  0.00    +0.000 A 
ENDBRANCH   2  15
BRANCH   1  21
ATOM     21  C   UNL     1       3.220   7.030  18.913  0.00  0.00    +0.000 C 
BRANCH  21  23
ATOM     22  N   UNL     1       1.755   9.061  19.007  0.00  0.00    +0.000 N 
ATOM     23  C   UNL     1       2.421   8.142  18.210  0.00  0.00    +0.000 C 
ATOM     24  O   UNL     1       2.494   8.296  16.994  0.00  0.00    +0.000 OA
ATOM     25  H   UNL     1       1.667   8.835  19.991  0.00  0.00    +0.000 HD
BRANCH  22  26
ATOM     26  C   UNL     1       0.790  10.031  18.431  0.00  0.00    +0.000 C 
BRANCH  26  28
ATOM     27  C   UNL     1       1.436  11.974  19.967  0.00  0.00    +0.000 C 
ATOM     28  C   UNL     1       1.293  11.508  18.509  0.00  0.00    +0.000 C 
ATOM     29  C   UNL     1       2.672  11.753  17.876  0.00  0.00    +0.000 C 
ENDBRANCH  26  28
BRANCH  26  30
ATOM     30  C   UNL     1      -0.647   9.801  18.975  0.00  0.00    +0.000 C 
ATOM     31  O   UNL     1      -0.867   9.471  20.148  0.00  0.00    +0.000 OA
BRANCH  30  32
ATOM     32  C   UNL     1      -1.782  10.142  18.027  0.00  0.00    +0.000 C 
ATOM     33  F   UNL     1      -1.459  10.014  16.706  0.00  0.00    +0.000 F 
ATOM     34  F   UNL     1      -2.905   9.400  18.220  0.00  0.00    +0.000 F 
ATOM     35  F   UNL     1      -2.166  11.446  18.167  0.00  0.00    +0.000 F 
ENDBRANCH  30  32
ENDBRANCH  26  30
ENDBRANCH  22  26
ENDBRANCH  21  23
ENDBRANCH   1  21
TORSDOF 8
ENDMDL
MODEL 5
REMARK VINA RESULT:      -7.6      2.045      2.751
REMARK  Name = 
REMARK  10 active torsions:
REMARK  status: ('A' for Active; 'I' for Inactive)
REMARK    1  A    between atoms: C_1  and  C_2
REMARK    2  A    between atoms: C_2  and  C_3
REMARK    3  A    between atoms: C_2  and  C_4
REMARK    4  A    between atoms: C_4  and  N_5
REMARK    5  A    between atoms: C_4  and  C_26
REMARK    6  A    between atoms: C_6  and  C_8
REMARK    7  A    between atoms: C_8  and  N_9
REMARK    8  A    between atoms: C_10  and  C_11
REMARK    9  A    between atoms: C_19  and  N_20
REMARK   10  A    between atoms: C_26  and  C_28
REMARK                            x       y       z     vdW  Elec       q    Type
REMARK                         _______ _______ _______ _____ _____    ______ ____
ROOT
ATOM      1  N   UNL     1       2.401   6.833  18.628  0.00  0.00    +0.000 N 
ATOM      2  C   UNL     1       2.143   6.404  19.936  0.00  0.00    +0.000 A 
ATOM      3  C   UNL     1       1.723   7.289  20.855  0.00  0.00    +0.000 A 
ATOM      4  C   UNL     1       1.654   8.690  20.542  0.00  0.00    +0.000 A 
ATOM      5  C   UNL     1       1.701   9.103  19.269  0.00  0.00    +0.000 A 
ATOM      6  C   UNL     1       1.844   8.048  18.201  0.00  0.00    +0.000 A 
ATOM      7  O   UNL     1       1.607   8.358  17.037  0.00  0.00    +0.000 OA
ENDROOT
BRANCH   5   8
ATOM      8  N   UNL     1       1.714  10.413  18.830  0.00  0.00    +0.000 N 
ATOM      9  C   UNL     1       0.614  11.210  18.668  0.00  0.00    +0.000 C 
ATOM     10  N   UNL     1       0.939  12.515  18.445  0.00  0.00    +0.000 N 
ATOM     11  O   UNL     1      -0.558  10.883  18.776  0.00  0.00    +0.000 OA
ATOM     12  H   UNL     1       2.594  10.887  18.970  0.00  0.00    +0.000 HD
ATOM     13  H   UNL     1       1.800  12.748  17.973  0.00  0.00    +0.000 HD
ATOM     14  H   UNL     1       0.144  13.110  18.237  0.00  0.00    +0.000 HD
ENDBRANCH   5   8
BRANCH   2  15
ATOM     15  C   UNL     1       2.135   4.981  20.332  0.00  0.00    +0.000 A 
ATOM     16  C   UNL     1       3.348   4.274  20.382  0.00  0.00    +0.000 A 
ATOM     17  C   UNL     1       3.355   2.887  20.548  0.00  0.00    +0.000 A 
ATOM     18  C   UNL     1       2.154   2.195  20.672  0.00  0.00    +0.000 A 
ATOM     19  C   UNL     1       0.946   2.890  20.655  0.00  0.00    +0.000 A 
ATOM     20  C   UNL     1       0.931   4.278  20.484  0.00  0.00    +0.000 A 
ENDBRANCH   2  15
BRANCH   1  21
ATOM     21  C   UNL     1       2.944   5.905  17.631  0.00  0.00    +0.000 C 
BRANCH  21  23
ATOM     22  N   UNL     1       5.141   5.148  16.693  0.00  0.00    +0.000 N 
ATOM     23  C   UNL     1       4.362   6.213  17.120  0.00  0.00    +0.000 C 
ATOM     24  O   UNL     1       4.734   7.373  16.959  0.00  0.00    +0.000 OA
ATOM     25  H   UNL     1       4.811   4.218  16.926  0.00  0.00    +0.000 HD
BRANCH  22  26
ATOM     26  C   UNL     1       6.585   5.315  16.391  0.00  0.00    +0.000 C 
BRANCH  26  28
ATOM     27  C   UNL     1       5.788   4.082  14.295  0.00  0.00    +0.000 C 
ATOM     28  C   UNL     1       7.007   4.640  15.047  0.00  0.00    +0.000 C 
ATOM     29  C   UNL     1       7.697   5.578  14.044  0.00  0.00    +0.000 C 
ENDBRANCH  26  28
BRANCH  26  30
ATOM     30  C   UNL     1       7.473   4.949  17.612  0.00  0.00    +0.000 C 
ATOM     31  O   UNL     1       8.230   3.970  17.611  0.00  0.00    +0.000 OA
BRANCH  30  32
ATOM     32  C   UNL     1       7.469   5.941  18.761  0.00  0.00    +0.000 C 
ATOM     33  F   UNL     1       8.522   5.801  19.619  0.00  0.00    +0.000 F 
ATOM     34  F   UNL     1       7.467   7.243  18.366  0.00  0.00    +0.000 F 
ATOM     35  F   UNL     1       6.359   5.786  19.542  0.00  0.00    +0.000 F 
ENDBRANCH  30  32
ENDBRANCH  26  30
ENDBRANCH  22  26
ENDBRANCH  21  23
ENDBRANCH   1  21
TORSDOF 8
ENDMDL
MODEL 6
REMARK VINA RESULT:      -7.6      3.914      7.304
REMARK  Name = 
REMARK  10 active torsions:
REMARK  status: ('A' for Active; 'I' for Inactive)
REMARK    1  A    between atoms: C_1  and  C_2
REMARK    2  A    between atoms: C_2  and  C_3
REMARK    3  A    between atoms: C_2  and  C_4
REMARK    4  A    between atoms: C_4  and  N_5
REMARK    5  A    between atoms: C_4  and  C_26
REMARK    6  A    between atoms: C_6  and  C_8
REMARK    7  A    between atoms: C_8  and  N_9
REMARK    8  A    between atoms: C_10  and  C_11
REMARK    9  A    between atoms: C_19  and  N_20
REMARK   10  A    between atoms: C_26  and  C_28
REMARK                            x       y       z     vdW  Elec       q    Type
REMARK                         _______ _______ _______ _____ _____    ______ ____
ROOT
ATOM      1  N   UNL     1       4.519   5.178  18.313  0.00  0.00    +0.000 N 
ATOM      2  C   UNL     1       3.819   3.974  18.162  0.00  0.00    +0.000 A 
ATOM      3  C   UNL     1       4.080   3.182  17.109  0.00  0.00    +0.000 A 
ATOM      4  C   UNL     1       4.980   3.615  16.074  0.00  0.00    +0.000 A 
ATOM      5  C   UNL     1       5.802   4.651  16.282  0.00  0.00    +0.000 A 
ATOM      6  C   UNL     1       5.728   5.340  17.621  0.00  0.00    +0.000 A 
ATOM      7  O   UNL     1       6.644   6.091  17.944  0.00  0.00    +0.000 OA
ENDROOT
BRANCH   5   8
ATOM      8  N   UNL     1       6.664   5.213  15.359  0.00  0.00    +0.000 N 
ATOM      9  C   UNL     1       6.907   4.735  14.101  0.00  0.00    +0.000 C 
ATOM     10  N   UNL     1       7.620   5.609  13.336  0.00  0.00    +0.000 N 
ATOM     11  O   UNL     1       6.499   3.691  13.616  0.00  0.00    +0.000 OA
ATOM     12  H   UNL     1       6.846   6.195  15.509  0.00  0.00    +0.000 HD
ATOM     13  H   UNL     1       8.279   6.239  13.768  0.00  0.00    +0.000 HD
ATOM     14  H   UNL     1       7.886   5.244  12.428  0.00  0.00    +0.000 HD
ENDBRANCH   5   8
BRANCH   2  15
ATOM     15  C   UNL     1       2.920   3.427  19.198  0.00  0.00    +0.000 A 
ATOM     16  C   UNL     1       1.532   3.588  19.060  0.00  0.00    +0.000 A 
ATOM     17  C   UNL     1       0.671   3.270  20.113  0.00  0.00    +0.000 A 
ATOM     18  C   UNL     1       1.187   2.784  21.310  0.00  0.00    +0.000 A 
ATOM     19  C   UNL     1       2.560   2.590  21.447  0.00  0.00    +0.000 A 
ATOM     20  C   UNL     1       3.428   2.911  20.399  0.00  0.00    +0.000 A 
ENDBRANCH   2  15
BRANCH   1  21
ATOM     21  C   UNL     1       4.190   6.101  19.405  0.00  0.00    +0.000 C 
BRANCH  21  23
ATOM     22  N   UNL     1       2.656   7.932  20.161  0.00  0.00    +0.000 N 
ATOM     23  C   UNL     1       2.939   6.973  19.200  0.00  0.00    +0.000 C 
ATOM     24  O   UNL     1       2.301   6.920  18.152  0.00  0.00    +0.000 OA
ATOM     25  H   UNL     1       3.169   7.872  21.033  0.00  0.00    +0.000 HD
BRANCH  22  26
ATOM     26  C   UNL     1       1.368   8.669  20.165  0.00  0.00    +0.000 C 
BRANCH  26  28
ATOM     27  C   UNL     1      -0.022   9.642  18.250  0.00  0.00    +0.000 C 
ATOM     28  C   UNL     1       1.285   9.758  19.049  0.00  0.00    +0.000 C 
ATOM     29  C   UNL     1       1.311  11.207  19.560  0.00  0.00    +0.000 C 
ENDBRANCH  26  28
BRANCH  26  30
ATOM     30  C   UNL     1       0.996   9.165  21.590  0.00  0.00    +0.000 C 
ATOM     31  O   UNL     1       1.830   9.663  22.357  0.00  0.00    +0.000 OA
BRANCH  30  32
ATOM     32  C   UNL     1      -0.480   9.136  21.942  0.00  0.00    +0.000 C 
ATOM     33  F   UNL     1      -0.732   9.178  23.284  0.00  0.00    +0.000 F 
ATOM     34  F   UNL     1      -1.201  10.148  21.386  0.00  0.00    +0.000 F 
ATOM     35  F   UNL     1      -1.067   7.979  21.513  0.00  0.00    +0.000 F 
ENDBRANCH  30  32
ENDBRANCH  26  30
ENDBRANCH  22  26
ENDBRANCH  21  23
ENDBRANCH   1  21
TORSDOF 8
ENDMDL
MODEL 7
REMARK VINA RESULT:      -7.6      3.889      7.273
REMARK  Name = 
REMARK  10 active torsions:
REMARK  status: ('A' for Active; 'I' for Inactive)
REMARK    1  A    between atoms: C_1  and  C_2
REMARK    2  A    between atoms: C_2  and  C_3
REMARK    3  A    between atoms: C_2  and  C_4
REMARK    4  A    between atoms: C_4  and  N_5
REMARK    5  A    between atoms: C_4  and  C_26
REMARK    6  A    between atoms: C_6  and  C_8
REMARK    7  A    between atoms: C_8  and  N_9
REMARK    8  A    between atoms: C_10  and  C_11
REMARK    9  A    between atoms: C_19  and  N_20
REMARK   10  A    between atoms: C_26  and  C_28
REMARK                            x       y       z     vdW  Elec       q    Type
REMARK                         _______ _______ _______ _____ _____    ______ ____
ROOT
ATOM      1  N   UNL     1       4.002   5.297  18.281  0.00  0.00    +0.000 N 
ATOM      2  C   UNL     1       3.430   4.019  18.249  0.00  0.00    +0.000 A 
ATOM      3  C   UNL     1       3.687   3.201  17.215  0.00  0.00    +0.000 A 
ATOM      4  C   UNL     1       4.443   3.668  16.085  0.00  0.00    +0.000 A 
ATOM      5  C   UNL     1       5.160   4.796  16.169  0.00  0.00    +0.000 A 
ATOM      6  C   UNL     1       5.123   5.547  17.476  0.00  0.00    +0.000 A 
ATOM      7  O   UNL     1       5.974   6.408  17.680  0.00  0.00    +0.000 OA
ENDROOT
BRANCH   5   8
ATOM      8  N   UNL     1       5.874   5.395  15.148  0.00  0.00    +0.000 N 
ATOM      9  C   UNL     1       7.173   5.122  14.818  0.00  0.00    +0.000 C 
ATOM     10  N   UNL     1       7.545   5.689  13.636  0.00  0.00    +0.000 N 
ATOM     11  O   UNL     1       7.952   4.397  15.419  0.00  0.00    +0.000 OA
ATOM     12  H   UNL     1       5.299   5.788  14.418  0.00  0.00    +0.000 HD
ATOM     13  H   UNL     1       7.123   6.555  13.335  0.00  0.00    +0.000 HD
ATOM     14  H   UNL     1       8.527   5.573  13.410  0.00  0.00    +0.000 HD
ENDBRANCH   5   8
BRANCH   2  15
ATOM     15  C   UNL     1       2.687   3.438  19.386  0.00  0.00    +0.000 A 
ATOM     16  C   UNL     1       1.292   3.589  19.446  0.00  0.00    +0.000 A 
ATOM     17  C   UNL     1       0.588   3.237  20.601  0.00  0.00    +0.000 A 
ATOM     18  C   UNL     1       1.269   2.726  21.702  0.00  0.00    +0.000 A 
ATOM     19  C   UNL     1       2.650   2.543  21.642  0.00  0.00    +0.000 A 
ATOM     20  C   UNL     1       3.361   2.898  20.491  0.00  0.00    +0.000 A 
ENDBRANCH   2  15
BRANCH   1  21
ATOM     21  C   UNL     1       3.666   6.239  19.354  0.00  0.00    +0.000 C 
BRANCH  21  23
ATOM     22  N   UNL     1       2.125   8.080  20.071  0.00  0.00    +0.000 N 
ATOM     23  C   UNL     1       2.424   7.116  19.119  0.00  0.00    +0.000 C 
ATOM     24  O   UNL     1       1.809   7.064  18.058  0.00  0.00    +0.000 OA
ATOM     25  H   UNL     1       2.618   8.019  20.954  0.00  0.00    +0.000 HD
BRANCH  22  26
ATOM     26  C   UNL     1       0.840   8.822  20.045  0.00  0.00    +0.000 C 
BRANCH  26  28
ATOM     27  C   UNL     1       1.812  10.342  18.230  0.00  0.00    +0.000 C 
ATOM     28  C   UNL     1       0.995  10.289  19.531  0.00  0.00    +0.000 C 
ATOM     29  C   UNL     1      -0.328  10.998  19.200  0.00  0.00    +0.000 C 
ENDBRANCH  26  28
BRANCH  26  30
ATOM     30  C   UNL     1       0.068   8.679  21.386  0.00  0.00    +0.000 C 
ATOM     31  O   UNL     1      -0.872   7.886  21.529  0.00  0.00    +0.000 OA
BRANCH  30  32
ATOM     32  C   UNL     1       0.621   9.464  22.562  0.00  0.00    +0.000 C 
ATOM     33  F   UNL     1       0.048   9.148  23.760  0.00  0.00    +0.000 F 
ATOM     34  F   UNL     1       1.964   9.329  22.733  0.00  0.00    +0.000 F 
ATOM     35  F   UNL     1       0.396  10.803  22.409  0.00  0.00    +0.000 F 
ENDBRANCH  30  32
ENDBRANCH  26  30
ENDBRANCH  22  26
ENDBRANCH  21  23
ENDBRANCH   1  21
TORSDOF 8
ENDMDL
MODEL 8
REMARK VINA RESULT:      -7.6      0.885      1.101
REMARK  Name = 
REMARK  10 active torsions:
REMARK  status: ('A' for Active; 'I' for Inactive)
REMARK    1  A    between atoms: C_1  and  C_2
REMARK    2  A    between atoms: C_2  and  C_3
REMARK    3  A    between atoms: C_2  and  C_4
REMARK    4  A    between atoms: C_4  and  N_5
REMARK    5  A    between atoms: C_4  and  C_26
REMARK    6  A    between atoms: C_6  and  C_8
REMARK    7  A    between atoms: C_8  and  N_9
REMARK    8  A    between atoms: C_10  and  C_11
REMARK    9  A    between atoms: C_19  and  N_20
REMARK   10  A    between atoms: C_26  and  C_28
REMARK                            x       y       z     vdW  Elec       q    Type
REMARK                         _______ _______ _______ _____ _____    ______ ____
ROOT
ATOM      1  N   UNL     1       2.328   6.968  18.871  0.00  0.00    +0.000 N 
ATOM      2  C   UNL     1       1.850   6.453  20.084  0.00  0.00    +0.000 A 
ATOM      3  C   UNL     1       1.269   7.276  20.972  0.00  0.00    +0.000 A 
ATOM      4  C   UNL     1       1.242   8.696  20.744  0.00  0.00    +0.000 A 
ATOM      5  C   UNL     1       1.506   9.191  19.528  0.00  0.00    +0.000 A 
ATOM      6  C   UNL     1       1.842   8.209  18.435  0.00  0.00    +0.000 A 
ATOM      7  O   UNL     1       1.807   8.596  17.270  0.00  0.00    +0.000 OA
ENDROOT
BRANCH   5   8
ATOM      8  N   UNL     1       1.581  10.528  19.185  0.00  0.00    +0.000 N 
ATOM      9  C   UNL     1       0.517  11.340  18.903  0.00  0.00    +0.000 C 
ATOM     10  N   UNL     1       0.867  12.655  18.822  0.00  0.00    +0.000 N 
ATOM     11  O   UNL     1      -0.655  11.013  18.801  0.00  0.00    +0.000 OA
ATOM     12  H   UNL     1       2.426  10.986  19.494  0.00  0.00    +0.000 HD
ATOM     13  H   UNL     1       1.791  12.914  18.510  0.00  0.00    +0.000 HD
ATOM     14  H   UNL     1       0.113  13.267  18.531  0.00  0.00    +0.000 HD
ENDBRANCH   5   8
BRANCH   2  15
ATOM     15  C   UNL     1       1.788   5.008  20.378  0.00  0.00    +0.000 A 
ATOM     16  C   UNL     1       0.995   4.174  19.573  0.00  0.00    +0.000 A 
ATOM     17  C   UNL     1       0.750   2.850  19.945  0.00  0.00    +0.000 A 
ATOM     18  C   UNL     1       1.300   2.344  21.120  0.00  0.00    +0.000 A 
ATOM     19  C   UNL     1       2.114   3.153  21.910  0.00  0.00    +0.000 A 
ATOM     20  C   UNL     1       2.359   4.481  21.546  0.00  0.00    +0.000 A 
ENDBRANCH   2  15
BRANCH   1  21
ATOM     21  C   UNL     1       3.045   6.106  17.926  0.00  0.00    +0.000 C 
BRANCH  21  23
ATOM     22  N   UNL     1       5.485   6.587  17.627  0.00  0.00    +0.000 N 
ATOM     23  C   UNL     1       4.519   5.817  18.257  0.00  0.00    +0.000 C 
ATOM     24  O   UNL     1       4.820   5.036  19.155  0.00  0.00    +0.000 OA
ATOM     25  H   UNL     1       5.180   7.154  16.844  0.00  0.00    +0.000 HD
BRANCH  22  26
ATOM     26  C   UNL     1       6.927   6.245  17.714  0.00  0.00    +0.000 C 
BRANCH  26  28
ATOM     27  C   UNL     1       7.052   8.768  17.307  0.00  0.00    +0.000 C 
ATOM     28  C   UNL     1       7.856   7.497  17.623  0.00  0.00    +0.000 C 
ATOM     29  C   UNL     1       8.625   7.823  18.914  0.00  0.00    +0.000 C 
ENDBRANCH  26  28
BRANCH  26  30
ATOM     30  C   UNL     1       7.300   5.085  16.749  0.00  0.00    +0.000 C 
ATOM     31  O   UNL     1       8.123   4.211  17.050  0.00  0.00    +0.000 OA
BRANCH  30  32
ATOM     32  C   UNL     1       6.492   4.998  15.467  0.00  0.00    +0.000 C 
ATOM     33  F   UNL     1       5.889   6.171  15.110  0.00  0.00    +0.000 F 
ATOM     34  F   UNL     1       7.214   4.595  14.386  0.00  0.00    +0.000 F 
ATOM     35  F   UNL     1       5.468   4.102  15.589  0.00  0.00    +0.000 F 
ENDBRANCH  30  32
ENDBRANCH  26  30
ENDBRANCH  22  26
ENDBRANCH  21  23
ENDBRANCH   1  21
TORSDOF 8
ENDMDL
MODEL 9
REMARK VINA RESULT:      -7.5      1.649      2.448
REMARK  Name = 
REMARK  10 active torsions:
REMARK  status: ('A' for Active; 'I' for Inactive)
REMARK    1  A    between atoms: C_1  and  C_2
REMARK    2  A    between atoms: C_2  and  C_3
REMARK    3  A    between atoms: C_2  and  C_4
REMARK    4  A    between atoms: C_4  and  N_5
REMARK    5  A    between atoms: C_4  and  C_26
REMARK    6  A    between atoms: C_6  and  C_8
REMARK    7  A    between atoms: C_8  and  N_9
REMARK    8  A    between atoms: C_10  and  C_11
REMARK    9  A    between atoms: C_19  and  N_20
REMARK   10  A    between atoms: C_26  and  C_28
REMARK                            x       y       z     vdW  Elec       q    Type
REMARK                         _______ _______ _______ _____ _____    ______ ____
ROOT
ATOM      1  N   UNL     1       2.290   7.019  18.739  0.00  0.00    +0.000 N 
ATOM      2  C   UNL     1       1.926   6.509  19.991  0.00  0.00    +0.000 A 
ATOM      3  C   UNL     1       1.430   7.335  20.928  0.00  0.00    +0.000 A 
ATOM      4  C   UNL     1       1.385   8.754  20.699  0.00  0.00    +0.000 A 
ATOM      5  C   UNL     1       1.536   9.246  19.462  0.00  0.00    +0.000 A 
ATOM      6  C   UNL     1       1.767   8.260  18.346  0.00  0.00    +0.000 A 
ATOM      7  O   UNL     1       1.626   8.643  17.188  0.00  0.00    +0.000 OA
ENDROOT
BRANCH   5   8
ATOM      8  N   UNL     1       1.582  10.582  19.109  0.00  0.00    +0.000 N 
ATOM      9  C   UNL     1       0.501  11.410  18.984  0.00  0.00    +0.000 C 
ATOM     10  N   UNL     1       0.856  12.720  18.851  0.00  0.00    +0.000 N 
ATOM     11  O   UNL     1      -0.679  11.102  19.054  0.00  0.00    +0.000 OA
ATOM     12  H   UNL     1       2.469  11.026  19.292  0.00  0.00    +0.000 HD
ATOM     13  H   UNL     1       1.729  12.964  18.408  0.00  0.00    +0.000 HD
ATOM     14  H   UNL     1       0.077  13.344  18.671  0.00  0.00    +0.000 HD
ENDBRANCH   5   8
BRANCH   2  15
ATOM     15  C   UNL     1       1.889   5.064  20.295  0.00  0.00    +0.000 A 
ATOM     16  C   UNL     1       1.059   4.222  19.537  0.00  0.00    +0.000 A 
ATOM     17  C   UNL     1       0.842   2.898  19.926  0.00  0.00    +0.000 A 
ATOM     18  C   UNL     1       1.457   2.401  21.072  0.00  0.00    +0.000 A 
ATOM     19  C   UNL     1       2.308   3.218  21.814  0.00  0.00    +0.000 A 
ATOM     20  C   UNL     1       2.525   4.546  21.432  0.00  0.00    +0.000 A 
ENDBRANCH   2  15
BRANCH   1  21
ATOM     21  C   UNL     1       2.914   6.154  17.733  0.00  0.00    +0.000 C 
BRANCH  21  23
ATOM     22  N   UNL     1       5.030   5.686  16.474  0.00  0.00    +0.000 N 
ATOM     23  C   UNL     1       4.300   6.593  17.229  0.00  0.00    +0.000 C 
ATOM     24  O   UNL     1       4.680   7.753  17.364  0.00  0.00    +0.000 OA
ATOM     25  H   UNL     1       4.701   4.728  16.466  0.00  0.00    +0.000 HD
BRANCH  22  26
ATOM     26  C   UNL     1       6.452   5.933  16.128  0.00  0.00    +0.000 C 
BRANCH  26  28
ATOM     27  C   UNL     1       6.037   3.706  14.937  0.00  0.00    +0.000 C 
ATOM     28  C   UNL     1       7.053   4.830  15.201  0.00  0.00    +0.000 C 
ATOM     29  C   UNL     1       7.473   5.320  13.806  0.00  0.00    +0.000 C 
ENDBRANCH  26  28
BRANCH  26  30
ATOM     30  C   UNL     1       7.300   6.258  17.389  0.00  0.00    +0.000 C 
ATOM     31  O   UNL     1       7.676   7.407  17.657  0.00  0.00    +0.000 OA
BRANCH  30  32
ATOM     32  C   UNL     1       7.525   5.110  18.356  0.00  0.00    +0.000 C 
ATOM     33  F   UNL     1       6.374   4.525  18.801  0.00  0.00    +0.000 F 
ATOM     34  F   UNL     1       8.294   4.107  17.853  0.00  0.00    +0.000 F 
ATOM     35  F   UNL     1       8.159   5.536  19.489  0.00  0.00    +0.000 F 
ENDBRANCH  30  32
ENDBRANCH  26  30
ENDBRANCH  22  26
ENDBRANCH  21  23
ENDBRANCH   1  21
TORSDOF 8
ENDMDL
