MODEL 1
REMARK VINA RESULT:      -7.9      0.000      0.000
REMARK  Name = 
REMARK  11 active torsions:
REMARK  status: ('A' for Active; 'I' for Inactive)
REMARK    1  A    between atoms: C_1  and  O_2
REMARK    2  A    between atoms: O_2  and  C_3
REMARK    3  A    between atoms: C_6  and  S_7
REMARK    4  A    between atoms: S_7  and  N_10
REMARK    5  A    between atoms: N_10  and  C_11
REMARK    6  A    between atoms: C_11  and  C_12
REMARK    7  A    between atoms: C_11  and  C_13
REMARK    8  A    between atoms: C_13  and  C_14
REMARK    9  A    between atoms: C_14  and  N_15
REMARK   10  A    between atoms: N_18  and  C_19
REMARK   11  A    between atoms: C_23  and  C_24
REMARK                            x       y       z     vdW  Elec       q    Type
REMARK                         _______ _______ _______ _____ _____    ______ ____
ROOT
ATOM      1  C   UNL     1       3.150   3.250  19.196  0.00  0.00    +0.000 C 
ENDROOT
BRANCH   1   2
ATOM      2  N   UNL     1       1.807   3.761  18.933  0.00  0.00    +0.000 NA
ATOM      3  C   UNL     1       1.191   4.310  20.151  0.00  0.00    +0.000 C 
ATOM      4  C   UNL     1       1.971   5.504  20.721  0.00  0.00    +0.000 C 
ATOM      5  N   UNL     1       2.098   6.560  19.707  0.00  0.00    +0.000 N 
ATOM      6  C   UNL     1       2.544   6.161  18.368  0.00  0.00    +0.000 C 
ATOM      7  C   UNL     1       1.850   4.848  17.917  0.00  0.00    +0.000 C 
BRANCH   5   8
ATOM      8  C   UNL     1       1.630   7.830  19.961  0.00  0.00    +0.000 A 
ATOM      9  C   UNL     1       1.676   8.835  18.989  0.00  0.00    +0.000 A 
ATOM     10  C   UNL     1       1.147  10.101  19.213  0.00  0.00    +0.000 A 
ATOM     11  C   UNL     1       0.565  10.397  20.437  0.00  0.00    +0.000 A 
ATOM     12  C   UNL     1       0.520   9.428  21.450  0.00  0.00    +0.000 A 
ATOM     13  C   UNL     1       1.058   8.152  21.198  0.00  0.00    +0.000 A 
BRANCH  12  14
ATOM     14  C   UNL     1      -0.096   9.722  22.787  0.00  0.00    +0.000 C 
ATOM     15  F   UNL     1      -1.172   8.938  23.076  0.00  0.00    +0.000 F 
ATOM     16  F   UNL     1       0.781   9.543  23.817  0.00  0.00    +0.000 F 
ATOM     17  F   UNL     1      -0.533  11.008  22.892  0.00  0.00    +0.000 F 
ENDBRANCH  12  14
ENDBRANCH   5   8
ENDBRANCH   1   2
BRANCH   1  18
ATOM     18  C   UNL     1       4.099   3.322  18.005  0.00  0.00    +0.000 C 
BRANCH  18  19
ATOM     19  C   UNL     1       5.456   3.997  18.252  0.00  0.00    +0.000 C 
ATOM     20  C   UNL     1       5.357   4.691  19.630  0.00  0.00    +0.000 C 
BRANCH  19  21
ATOM     21  N   UNL     1       5.802   5.060  17.292  0.00  0.00    +0.000 NA
ATOM     22  H   UNL     1       5.138   5.812  17.121  0.00  0.00    +0.000 HD
BRANCH  21  23
ATOM     23  S   UNL     1       7.199   5.193  16.370  0.00  0.00    +0.000 S 
ATOM     24  O   UNL     1       8.190   4.257  16.840  0.00  0.00    +0.000 OA
ATOM     25  O   UNL     1       7.473   6.606  16.262  0.00  0.00    +0.000 OA
BRANCH  23  29
ATOM     26  C   UNL     1       5.910   3.508  12.325  0.00  0.00    +0.000 A 
ATOM     27  C   UNL     1       5.029   3.494  13.402  0.00  0.00    +0.000 A 
ATOM     28  C   UNL     1       5.376   4.124  14.593  0.00  0.00    +0.000 A 
ATOM     29  C   UNL     1       6.646   4.700  14.737  0.00  0.00    +0.000 A 
ATOM     30  C   UNL     1       7.548   4.697  13.664  0.00  0.00    +0.000 A 
ATOM     31  C   UNL     1       7.167   4.105  12.452  0.00  0.00    +0.000 A 
BRANCH  26  33
ATOM     32  C   UNL     1       5.914   1.487  11.150  0.00  0.00    +0.000 C 
ATOM     33  O   UNL     1       5.481   2.843  11.208  0.00  0.00    +0.000 OA
ENDBRANCH  26  33
ENDBRANCH  23  29
ENDBRANCH  21  23
ENDBRANCH  19  21
ENDBRANCH  18  19
ENDBRANCH   1  18
TORSDOF 9
ENDMDL
MODEL 2
REMARK VINA RESULT:      -7.6      6.347      8.843
REMARK  Name = 
REMARK  11 active torsions:
REMARK  status: ('A' for Active; 'I' for Inactive)
REMARK    1  A    between atoms: C_1  and  O_2
REMARK    2  A    between atoms: O_2  and  C_3
REMARK    3  A    between atoms: C_6  and  S_7
REMARK    4  A    between atoms: S_7  and  N_10
REMARK    5  A    between atoms: N_10  and  C_11
REMARK    6  A    between atoms: C_11  and  C_12
REMARK    7  A    between atoms: C_11  and  C_13
REMARK    8  A    between atoms: C_13  and  C_14
REMARK    9  A    between atoms: C_14  and  N_15
REMARK   10  A    between atoms: N_18  and  C_19
REMARK   11  A    between atoms: C_23  and  C_24
REMARK                            x       y       z     vdW  Elec       q    Type
REMARK                         _______ _______ _______ _____ _____    ______ ____
ROOT
ATOM      1  C   UNL     1       7.273   8.216  17.726  0.00  0.00    +0.000 C 
ENDROOT
BRANCH   1   2
ATOM      2  N   UNL     1       7.289   6.955  16.989  0.00  0.00    +0.000 NA
ATOM      3  C   UNL     1       7.430   5.803  17.894  0.00  0.00    +0.000 C 
ATOM      4  C   UNL     1       6.260   5.679  18.881  0.00  0.00    +0.000 C 
ATOM      5  N   UNL     1       4.987   5.586  18.152  0.00  0.00    +0.000 N 
ATOM      6  C   UNL     1       4.746   6.563  17.085  0.00  0.00    +0.000 C 
ATOM      7  C   UNL     1       6.022   6.779  16.228  0.00  0.00    +0.000 C 
BRANCH   5   8
ATOM      8  C   UNL     1       4.154   4.506  18.340  0.00  0.00    +0.000 A 
ATOM      9  C   UNL     1       4.350   3.302  17.656  0.00  0.00    +0.000 A 
ATOM     10  C   UNL     1       3.555   2.185  17.886  0.00  0.00    +0.000 A 
ATOM     11  C   UNL     1       2.522   2.255  18.809  0.00  0.00    +0.000 A 
ATOM     12  C   UNL     1       2.272   3.450  19.500  0.00  0.00    +0.000 A 
ATOM     13  C   UNL     1       3.094   4.566  19.253  0.00  0.00    +0.000 A 
BRANCH  12  14
ATOM     14  C   UNL     1       1.156   3.558  20.499  0.00  0.00    +0.000 C 
ATOM     15  F   UNL     1       1.469   3.047  21.723  0.00  0.00    +0.000 F 
ATOM     16  F   UNL     1       0.777   4.849  20.721  0.00  0.00    +0.000 F 
ATOM     17  F   UNL     1       0.030   2.904  20.099  0.00  0.00    +0.000 F 
ENDBRANCH  12  14
ENDBRANCH   5   8
ENDBRANCH   1   2
BRANCH   1  18
ATOM     18  C   UNL     1       8.634   8.658  18.253  0.00  0.00    +0.000 C 
BRANCH  18  19
ATOM     19  C   UNL     1       8.736  10.104  18.757  0.00  0.00    +0.000 C 
ATOM     20  C   UNL     1       8.068  10.992  17.681  0.00  0.00    +0.000 C 
BRANCH  19  21
ATOM     21  N   UNL     1      10.110  10.615  18.900  0.00  0.00    +0.000 NA
ATOM     22  H   UNL     1      10.820  10.329  18.229  0.00  0.00    +0.000 HD
BRANCH  21  23
ATOM     23  S   UNL     1      10.707  11.630  20.098  0.00  0.00    +0.000 S 
ATOM     24  O   UNL     1      12.143  11.516  20.168  0.00  0.00    +0.000 OA
ATOM     25  O   UNL     1       9.868  11.422  21.252  0.00  0.00    +0.000 OA
BRANCH  23  29
ATOM     26  C   UNL     1       9.233  15.588  18.358  0.00  0.00    +0.000 A 
ATOM     27  C   UNL     1       8.754  15.141  19.586  0.00  0.00    +0.000 A 
ATOM     28  C   UNL     1       9.300  14.004  20.174  0.00  0.00    +0.000 A 
ATOM     29  C   UNL     1      10.272  13.260  19.491  0.00  0.00    +0.000 A 
ATOM     30  C   UNL     1      10.742  13.690  18.243  0.00  0.00    +0.000 A 
ATOM     31  C   UNL     1      10.222  14.866  17.684  0.00  0.00    +0.000 A 
BRANCH  26  33
ATOM     32  C   UNL     1       7.405  17.035  18.531  0.00  0.00    +0.000 C 
ATOM     33  O   UNL     1       8.615  16.702  17.858  0.00  0.00    +0.000 OA
ENDBRANCH  26  33
ENDBRANCH  23  29
ENDBRANCH  21  23
ENDBRANCH  19  21
ENDBRANCH  18  19
ENDBRANCH   1  18
TORSDOF 9
ENDMDL
MODEL 3
REMARK VINA RESULT:      -7.3      6.698      9.353
REMARK  Name = 
REMARK  11 active torsions:
REMARK  status: ('A' for Active; 'I' for Inactive)
REMARK    1  A    between atoms: C_1  and  O_2
REMARK    2  A    between atoms: O_2  and  C_3
REMARK    3  A    between atoms: C_6  and  S_7
REMARK    4  A    between atoms: S_7  and  N_10
REMARK    5  A    between atoms: N_10  and  C_11
REMARK    6  A    between atoms: C_11  and  C_12
REMARK    7  A    between atoms: C_11  and  C_13
REMARK    8  A    between atoms: C_13  and  C_14
REMARK    9  A    between atoms: C_14  and  N_15
REMARK   10  A    between atoms: N_18  and  C_19
REMARK   11  A    between atoms: C_23  and  C_24
REMARK                            x       y       z     vdW  Elec       q    Type
REMARK                         _______ _______ _______ _____ _____    ______ ____
ROOT
ATOM      1  C   UNL     1       7.921   7.970  18.351  0.00  0.00    +0.000 C 
ENDROOT
BRANCH   1   2
ATOM      2  N   UNL     1       7.746   6.853  17.426  0.00  0.00    +0.000 NA
ATOM      3  C   UNL     1       7.670   5.569  18.142  0.00  0.00    +0.000 C 
ATOM      4  C   UNL     1       6.469   5.494  19.096  0.00  0.00    +0.000 C 
ATOM      5  N   UNL     1       5.218   5.730  18.360  0.00  0.00    +0.000 N 
ATOM      6  C   UNL     1       5.172   6.885  17.458  0.00  0.00    +0.000 C 
ATOM      7  C   UNL     1       6.489   7.011  16.646  0.00  0.00    +0.000 C 
BRANCH   5   8
ATOM      8  C   UNL     1       4.213   4.790  18.378  0.00  0.00    +0.000 A 
ATOM      9  C   UNL     1       3.901   4.031  17.245  0.00  0.00    +0.000 A 
ATOM     10  C   UNL     1       2.931   3.034  17.269  0.00  0.00    +0.000 A 
ATOM     11  C   UNL     1       2.234   2.783  18.442  0.00  0.00    +0.000 A 
ATOM     12  C   UNL     1       2.495   3.536  19.595  0.00  0.00    +0.000 A 
ATOM     13  C   UNL     1       3.484   4.537  19.546  0.00  0.00    +0.000 A 
BRANCH  12  14
ATOM     14  C   UNL     1       1.750   3.292  20.875  0.00  0.00    +0.000 C 
ATOM     15  F   UNL     1       0.408   3.506  20.774  0.00  0.00    +0.000 F 
ATOM     16  F   UNL     1       1.888   2.011  21.324  0.00  0.00    +0.000 F 
ATOM     17  F   UNL     1       2.179   4.090  21.892  0.00  0.00    +0.000 F 
ENDBRANCH  12  14
ENDBRANCH   5   8
ENDBRANCH   1   2
BRANCH   1  18
ATOM     18  C   UNL     1       8.242   9.302  17.681  0.00  0.00    +0.000 C 
BRANCH  18  19
ATOM     19  C   UNL     1       9.401  10.109  18.283  0.00  0.00    +0.000 C 
ATOM     20  C   UNL     1       9.141  10.182  19.805  0.00  0.00    +0.000 C 
BRANCH  19  21
ATOM     21  N   UNL     1       9.487  11.506  17.824  0.00  0.00    +0.000 NA
ATOM     22  H   UNL     1       8.671  11.942  17.399  0.00  0.00    +0.000 HD
BRANCH  21  23
ATOM     23  S   UNL     1      10.822  12.523  17.879  0.00  0.00    +0.000 S 
ATOM     24  O   UNL     1      10.937  13.250  16.639  0.00  0.00    +0.000 OA
ATOM     25  O   UNL     1      11.907  11.729  18.401  0.00  0.00    +0.000 OA
BRANCH  23  29
ATOM     26  C   UNL     1       9.680  15.742  20.911  0.00  0.00    +0.000 A 
ATOM     27  C   UNL     1       8.693  14.970  20.304  0.00  0.00    +0.000 A 
ATOM     28  C   UNL     1       9.050  13.906  19.482  0.00  0.00    +0.000 A 
ATOM     29  C   UNL     1      10.401  13.663  19.196  0.00  0.00    +0.000 A 
ATOM     30  C   UNL     1      11.400  14.452  19.785  0.00  0.00    +0.000 A 
ATOM     31  C   UNL     1      11.030  15.489  20.652  0.00  0.00    +0.000 A 
BRANCH  26  33
ATOM     32  C   UNL     1       9.009  17.981  20.954  0.00  0.00    +0.000 C 
ATOM     33  O   UNL     1       9.223  16.777  21.682  0.00  0.00    +0.000 OA
ENDBRANCH  26  33
ENDBRANCH  23  29
ENDBRANCH  21  23
ENDBRANCH  19  21
ENDBRANCH  18  19
ENDBRANCH   1  18
TORSDOF 9
ENDMDL
MODEL 4
REMARK VINA RESULT:      -7.2      6.585      9.297
REMARK  Name = 
REMARK  11 active torsions:
REMARK  status: ('A' for Active; 'I' for Inactive)
REMARK    1  A    between atoms: C_1  and  O_2
REMARK    2  A    between atoms: O_2  and  C_3
REMARK    3  A    between atoms: C_6  and  S_7
REMARK    4  A    between atoms: S_7  and  N_10
REMARK    5  A    between atoms: N_10  and  C_11
REMARK    6  A    between atoms: C_11  and  C_12
REMARK    7  A    between atoms: C_11  and  C_13
REMARK    8  A    between atoms: C_13  and  C_14
REMARK    9  A    between atoms: C_14  and  N_15
REMARK   10  A    between atoms: N_18  and  C_19
REMARK   11  A    between atoms: C_23  and  C_24
REMARK                            x       y       z     vdW  Elec       q    Type
REMARK                         _______ _______ _______ _____ _____    ______ ____
ROOT
ATOM      1  C   UNL     1       8.105   7.759  18.370  0.00  0.00    +0.000 C 
ENDROOT
BRANCH   1   2
ATOM      2  N   UNL     1       7.711   6.750  17.391  0.00  0.00    +0.000 NA
ATOM      3  C   UNL     1       7.576   5.422  18.010  0.00  0.00    +0.000 C 
ATOM      4  C   UNL     1       6.486   5.381  19.091  0.00  0.00    +0.000 C 
ATOM      5  N   UNL     1       5.195   5.802  18.528  0.00  0.00    +0.000 N 
ATOM      6  C   UNL     1       5.175   7.031  17.729  0.00  0.00    +0.000 C 
ATOM      7  C   UNL     1       6.400   7.099  16.778  0.00  0.00    +0.000 C 
BRANCH   5   8
ATOM      8  C   UNL     1       4.102   4.967  18.592  0.00  0.00    +0.000 A 
ATOM      9  C   UNL     1       3.348   4.660  17.455  0.00  0.00    +0.000 A 
ATOM     10  C   UNL     1       2.282   3.767  17.496  0.00  0.00    +0.000 A 
ATOM     11  C   UNL     1       1.935   3.167  18.697  0.00  0.00    +0.000 A 
ATOM     12  C   UNL     1       2.647   3.465  19.868  0.00  0.00    +0.000 A 
ATOM     13  C   UNL     1       3.724   4.368  19.800  0.00  0.00    +0.000 A 
BRANCH  12  14
ATOM     14  C   UNL     1       2.288   2.836  21.183  0.00  0.00    +0.000 C 
ATOM     15  F   UNL     1       3.291   2.088  21.721  0.00  0.00    +0.000 F 
ATOM     16  F   UNL     1       1.965   3.760  22.134  0.00  0.00    +0.000 F 
ATOM     17  F   UNL     1       1.212   2.006  21.092  0.00  0.00    +0.000 F 
ENDBRANCH  12  14
ENDBRANCH   5   8
ENDBRANCH   1   2
BRANCH   1  18
ATOM     18  C   UNL     1       8.208   9.175  17.814  0.00  0.00    +0.000 C 
BRANCH  18  19
ATOM     19  C   UNL     1       9.343  10.047  18.368  0.00  0.00    +0.000 C 
ATOM     20  C   UNL     1       9.057  10.235  19.876  0.00  0.00    +0.000 C 
BRANCH  19  21
ATOM     21  N   UNL     1       9.414  11.406  17.803  0.00  0.00    +0.000 NA
ATOM     22  H   UNL     1       8.650  11.743  17.219  0.00  0.00    +0.000 HD
BRANCH  21  23
ATOM     23  S   UNL     1      10.658  12.522  17.967  0.00  0.00    +0.000 S 
ATOM     24  O   UNL     1      10.779  13.304  16.761  0.00  0.00    +0.000 OA
ATOM     25  O   UNL     1      11.774  11.795  18.521  0.00  0.00    +0.000 OA
BRANCH  23  29
ATOM     26  C   UNL     1       9.266  15.554  21.087  0.00  0.00    +0.000 A 
ATOM     27  C   UNL     1       8.382  15.092  20.116  0.00  0.00    +0.000 A 
ATOM     28  C   UNL     1       8.769  14.074  19.250  0.00  0.00    +0.000 A 
ATOM     29  C   UNL     1      10.077  13.572  19.299  0.00  0.00    +0.000 A 
ATOM     30  C   UNL     1      10.981  14.049  20.257  0.00  0.00    +0.000 A 
ATOM     31  C   UNL     1      10.564  15.038  21.159  0.00  0.00    +0.000 A 
BRANCH  26  33
ATOM     32  C   UNL     1       8.303  16.134  23.136  0.00  0.00    +0.000 C 
ATOM     33  O   UNL     1       8.795  16.570  21.873  0.00  0.00    +0.000 OA
ENDBRANCH  26  33
ENDBRANCH  23  29
ENDBRANCH  21  23
ENDBRANCH  19  21
ENDBRANCH  18  19
ENDBRANCH   1  18
TORSDOF 9
ENDMDL
MODEL 5
REMARK VINA RESULT:      -7.2      3.352      5.147
REMARK  Name = 
REMARK  11 active torsions:
REMARK  status: ('A' for Active; 'I' for Inactive)
REMARK    1  A    between atoms: C_1  and  O_2
REMARK    2  A    between atoms: O_2  and  C_3
REMARK    3  A    between atoms: C_6  and  S_7
REMARK    4  A    between atoms: S_7  and  N_10
REMARK    5  A    between atoms: N_10  and  C_11
REMARK    6  A    between atoms: C_11  and  C_12
REMARK    7  A    between atoms: C_11  and  C_13
REMARK    8  A    between atoms: C_13  and  C_14
REMARK    9  A    between atoms: C_14  and  N_15
REMARK   10  A    between atoms: N_18  and  C_19
REMARK   11  A    between atoms: C_23  and  C_24
REMARK                            x       y       z     vdW  Elec       q    Type
REMARK                         _______ _______ _______ _____ _____    ______ ____
ROOT
ATOM      1  C   UNL     1       1.916   6.051  18.916  0.00  0.00    +0.000 C 
ENDROOT
BRANCH   1   2
ATOM      2  N   UNL     1       2.776   7.191  19.226  0.00  0.00    +0.000 NA
ATOM      3  C   UNL     1       2.909   8.094  18.071  0.00  0.00    +0.000 C 
ATOM      4  C   UNL     1       1.568   8.706  17.640  0.00  0.00    +0.000 C 
ATOM      5  N   UNL     1       0.951   9.423  18.765  0.00  0.00    +0.000 N 
ATOM      6  C   UNL     1       0.885   8.728  20.055  0.00  0.00    +0.000 C 
ATOM      7  C   UNL     1       2.211   7.980  20.354  0.00  0.00    +0.000 C 
BRANCH   5   8
ATOM      8  C   UNL     1       0.631  10.757  18.649  0.00  0.00    +0.000 A 
ATOM      9  C   UNL     1      -0.694  11.182  18.506  0.00  0.00    +0.000 A 
ATOM     10  C   UNL     1      -1.034  12.530  18.454  0.00  0.00    +0.000 A 
ATOM     11  C   UNL     1      -0.039  13.493  18.530  0.00  0.00    +0.000 A 
ATOM     12  C   UNL     1       1.306  13.112  18.647  0.00  0.00    +0.000 A 
ATOM     13  C   UNL     1       1.625  11.742  18.703  0.00  0.00    +0.000 A 
BRANCH  12  14
ATOM     14  C   UNL     1       2.405  14.133  18.723  0.00  0.00    +0.000 C 
ATOM     15  F   UNL     1       3.547  13.752  18.087  0.00  0.00    +0.000 F 
ATOM     16  F   UNL     1       2.049  15.326  18.165  0.00  0.00    +0.000 F 
ATOM     17  F   UNL     1       2.768  14.417  20.004  0.00  0.00    +0.000 F 
ENDBRANCH  12  14
ENDBRANCH   5   8
ENDBRANCH   1   2
BRANCH   1  18
ATOM     18  C   UNL     1       1.753   5.053  20.058  0.00  0.00    +0.000 C 
BRANCH  18  19
ATOM     19  C   UNL     1       1.190   3.674  19.686  0.00  0.00    +0.000 C 
ATOM     20  C   UNL     1       1.134   2.855  20.996  0.00  0.00    +0.000 C 
BRANCH  19  21
ATOM     21  N   UNL     1       2.028   2.892  18.760  0.00  0.00    +0.000 NA
ATOM     22  H   UNL     1       1.635   2.584  17.873  0.00  0.00    +0.000 HD
BRANCH  21  23
ATOM     23  S   UNL     1       3.611   2.382  18.992  0.00  0.00    +0.000 S 
ATOM     24  O   UNL     1       3.866   1.198  18.209  0.00  0.00    +0.000 OA
ATOM     25  O   UNL     1       3.838   2.420  20.416  0.00  0.00    +0.000 OA
BRANCH  23  29
ATOM     26  C   UNL     1       6.395   5.559  17.252  0.00  0.00    +0.000 A 
ATOM     27  C   UNL     1       5.634   4.755  16.407  0.00  0.00    +0.000 A 
ATOM     28  C   UNL     1       4.693   3.881  16.940  0.00  0.00    +0.000 A 
ATOM     29  C   UNL     1       4.569   3.746  18.330  0.00  0.00    +0.000 A 
ATOM     30  C   UNL     1       5.348   4.534  19.188  0.00  0.00    +0.000 A 
ATOM     31  C   UNL     1       6.257   5.449  18.639  0.00  0.00    +0.000 A 
BRANCH  26  33
ATOM     32  C   UNL     1       7.597   7.561  17.350  0.00  0.00    +0.000 C 
ATOM     33  O   UNL     1       7.306   6.368  16.629  0.00  0.00    +0.000 OA
ENDBRANCH  26  33
ENDBRANCH  23  29
ENDBRANCH  21  23
ENDBRANCH  19  21
ENDBRANCH  18  19
ENDBRANCH   1  18
TORSDOF 9
ENDMDL
MODEL 6
REMARK VINA RESULT:      -7.2      6.109      9.344
REMARK  Name = 
REMARK  11 active torsions:
REMARK  status: ('A' for Active; 'I' for Inactive)
REMARK    1  A    between atoms: C_1  and  O_2
REMARK    2  A    between atoms: O_2  and  C_3
REMARK    3  A    between atoms: C_6  and  S_7
REMARK    4  A    between atoms: S_7  and  N_10
REMARK    5  A    between atoms: N_10  and  C_11
REMARK    6  A    between atoms: C_11  and  C_12
REMARK    7  A    between atoms: C_11  and  C_13
REMARK    8  A    between atoms: C_13  and  C_14
REMARK    9  A    between atoms: C_14  and  N_15
REMARK   10  A    between atoms: N_18  and  C_19
REMARK   11  A    between atoms: C_23  and  C_24
REMARK                            x       y       z     vdW  Elec       q    Type
REMARK                         _______ _______ _______ _____ _____    ______ ____
ROOT
ATOM      1  C   UNL     1       7.634   7.683  17.616  0.00  0.00    +0.000 C 
ENDROOT
BRANCH   1   2
ATOM      2  N   UNL     1       7.784   6.257  17.336  0.00  0.00    +0.000 NA
ATOM      3  C   UNL     1       7.568   5.445  18.545  0.00  0.00    +0.000 C 
ATOM      4  C   UNL     1       6.150   5.597  19.115  0.00  0.00    +0.000 C 
ATOM      5  N   UNL     1       5.152   5.247  18.094  0.00  0.00    +0.000 N 
ATOM      6  C   UNL     1       5.309   5.840  16.762  0.00  0.00    +0.000 C 
ATOM      7  C   UNL     1       6.795   5.818  16.314  0.00  0.00    +0.000 C 
BRANCH   5   8
ATOM      8  C   UNL     1       4.229   4.254  18.335  0.00  0.00    +0.000 A 
ATOM      9  C   UNL     1       4.087   3.162  17.472  0.00  0.00    +0.000 A 
ATOM     10  C   UNL     1       3.205   2.121  17.740  0.00  0.00    +0.000 A 
ATOM     11  C   UNL     1       2.424   2.159  18.886  0.00  0.00    +0.000 A 
ATOM     12  C   UNL     1       2.514   3.247  19.766  0.00  0.00    +0.000 A 
ATOM     13  C   UNL     1       3.418   4.286  19.476  0.00  0.00    +0.000 A 
BRANCH  12  14
ATOM     14  C   UNL     1       1.676   3.319  21.010  0.00  0.00    +0.000 C 
ATOM     15  F   UNL     1       2.245   4.049  22.009  0.00  0.00    +0.000 F 
ATOM     16  F   UNL     1       0.455   3.885  20.785  0.00  0.00    +0.000 F 
ATOM     17  F   UNL     1       1.422   2.092  21.543  0.00  0.00    +0.000 F 
ENDBRANCH  12  14
ENDBRANCH   5   8
ENDBRANCH   1   2
BRANCH   1  18
ATOM     18  C   UNL     1       8.563   8.216  18.701  0.00  0.00    +0.000 C 
BRANCH  18  19
ATOM     19  C   UNL     1       8.547   9.734  18.930  0.00  0.00    +0.000 C 
ATOM     20  C   UNL     1       8.705  10.390  17.539  0.00  0.00    +0.000 C 
BRANCH  19  21
ATOM     21  N   UNL     1       9.662  10.250  19.744  0.00  0.00    +0.000 NA
ATOM     22  H   UNL     1      10.232   9.597  20.278  0.00  0.00    +0.000 HD
BRANCH  21  23
ATOM     23  S   UNL     1      10.126  11.851  19.950  0.00  0.00    +0.000 S 
ATOM     24  O   UNL     1       9.677  12.641  18.831  0.00  0.00    +0.000 OA
ATOM     25  O   UNL     1      11.510  11.816  20.354  0.00  0.00    +0.000 OA
BRANCH  23  29
ATOM     26  C   UNL     1       8.217  13.042  23.926  0.00  0.00    +0.000 A 
ATOM     27  C   UNL     1       8.869  13.995  23.149  0.00  0.00    +0.000 A 
ATOM     28  C   UNL     1       9.335  13.659  21.881  0.00  0.00    +0.000 A 
ATOM     29  C   UNL     1       9.223  12.340  21.420  0.00  0.00    +0.000 A 
ATOM     30  C   UNL     1       8.589  11.368  22.207  0.00  0.00    +0.000 A 
ATOM     31  C   UNL     1       8.078  11.731  23.461  0.00  0.00    +0.000 A 
BRANCH  26  33
ATOM     32  C   UNL     1       8.712  14.398  25.764  0.00  0.00    +0.000 C 
ATOM     33  O   UNL     1       7.817  13.468  25.163  0.00  0.00    +0.000 OA
ENDBRANCH  26  33
ENDBRANCH  23  29
ENDBRANCH  21  23
ENDBRANCH  19  21
ENDBRANCH  18  19
ENDBRANCH   1  18
TORSDOF 9
ENDMDL
MODEL 7
REMARK VINA RESULT:      -7.1      6.441     10.742
REMARK  Name = 
REMARK  11 active torsions:
REMARK  status: ('A' for Active; 'I' for Inactive)
REMARK    1  A    between atoms: C_1  and  O_2
REMARK    2  A    between atoms: O_2  and  C_3
REMARK    3  A    between atoms: C_6  and  S_7
REMARK    4  A    between atoms: S_7  and  N_10
REMARK    5  A    between atoms: N_10  and  C_11
REMARK    6  A    between atoms: C_11  and  C_12
REMARK    7  A    between atoms: C_11  and  C_13
REMARK    8  A    between atoms: C_13  and  C_14
REMARK    9  A    between atoms: C_14  and  N_15
REMARK   10  A    between atoms: N_18  and  C_19
REMARK   11  A    between atoms: C_23  and  C_24
REMARK                            x       y       z     vdW  Elec       q    Type
REMARK                         _______ _______ _______ _____ _____    ______ ____
ROOT
ATOM      1  C   UNL     1       1.366  10.957  19.411  0.00  0.00    +0.000 C 
ENDROOT
BRANCH   1   2
ATOM      2  N   UNL     1       0.487   9.846  19.055  0.00  0.00    +0.000 NA
ATOM      3  C   UNL     1       0.878   9.240  17.772  0.00  0.00    +0.000 C 
ATOM      4  C   UNL     1       2.291   8.640  17.808  0.00  0.00    +0.000 C 
ATOM      5  N   UNL     1       2.394   7.642  18.883  0.00  0.00    +0.000 N 
ATOM      6  C   UNL     1       1.890   8.022  20.207  0.00  0.00    +0.000 C 
ATOM      7  C   UNL     1       0.542   8.782  20.094  0.00  0.00    +0.000 C 
BRANCH   5   8
ATOM      8  C   UNL     1       2.768   6.349  18.599  0.00  0.00    +0.000 A 
ATOM      9  C   UNL     1       3.964   6.062  17.933  0.00  0.00    +0.000 A 
ATOM     10  C   UNL     1       4.384   4.757  17.698  0.00  0.00    +0.000 A 
ATOM     11  C   UNL     1       3.595   3.696  18.119  0.00  0.00    +0.000 A 
ATOM     12  C   UNL     1       2.376   3.936  18.767  0.00  0.00    +0.000 A 
ATOM     13  C   UNL     1       1.975   5.266  18.997  0.00  0.00    +0.000 A 
BRANCH  12  14
ATOM     14  C   UNL     1       1.498   2.807  19.227  0.00  0.00    +0.000 C 
ATOM     15  F   UNL     1       0.353   2.677  18.500  0.00  0.00    +0.000 F 
ATOM     16  F   UNL     1       2.123   1.597  19.154  0.00  0.00    +0.000 F 
ATOM     17  F   UNL     1       1.103   2.944  20.523  0.00  0.00    +0.000 F 
ENDBRANCH  12  14
ENDBRANCH   5   8
ENDBRANCH   1   2
BRANCH   1  18
ATOM     18  C   UNL     1       0.641  12.203  19.911  0.00  0.00    +0.000 C 
BRANCH  18  19
ATOM     19  C   UNL     1      -0.618  12.618  19.138  0.00  0.00    +0.000 C 
ATOM     20  C   UNL     1      -1.101  13.946  19.766  0.00  0.00    +0.000 C 
BRANCH  19  21
ATOM     21  N   UNL     1      -1.752  11.685  19.253  0.00  0.00    +0.000 NA
ATOM     22  H   UNL     1      -2.031  11.352  20.173  0.00  0.00    +0.000 HD
BRANCH  21  23
ATOM     23  S   UNL     1      -2.675  11.034  18.010  0.00  0.00    +0.000 S 
ATOM     24  O   UNL     1      -2.682   9.596  18.104  0.00  0.00    +0.000 OA
ATOM     25  O   UNL     1      -2.266  11.719  16.808  0.00  0.00    +0.000 OA
BRANCH  23  29
ATOM     26  C   UNL     1      -6.733  13.012  18.710  0.00  0.00    +0.000 A 
ATOM     27  C   UNL     1      -6.475  12.347  17.515  0.00  0.00    +0.000 A 
ATOM     28  C   UNL     1      -5.290  11.636  17.356  0.00  0.00    +0.000 A 
ATOM     29  C   UNL     1      -4.318  11.658  18.366  0.00  0.00    +0.000 A 
ATOM     30  C   UNL     1      -4.560  12.345  19.564  0.00  0.00    +0.000 A 
ATOM     31  C   UNL     1      -5.780  13.015  19.733  0.00  0.00    +0.000 A 
BRANCH  26  33
ATOM     32  C   UNL     1      -7.779  15.045  19.198  0.00  0.00    +0.000 C 
ATOM     33  O   UNL     1      -7.917  13.698  18.756  0.00  0.00    +0.000 OA
ENDBRANCH  26  33
ENDBRANCH  23  29
ENDBRANCH  21  23
ENDBRANCH  19  21
ENDBRANCH  18  19
ENDBRANCH   1  18
TORSDOF 9
ENDMDL
MODEL 8
REMARK VINA RESULT:      -7.1      6.138      9.052
REMARK  Name = 
REMARK  11 active torsions:
REMARK  status: ('A' for Active; 'I' for Inactive)
REMARK    1  A    between atoms: C_1  and  O_2
REMARK    2  A    between atoms: O_2  and  C_3
REMARK    3  A    between atoms: C_6  and  S_7
REMARK    4  A    between atoms: S_7  and  N_10
REMARK    5  A    between atoms: N_10  and  C_11
REMARK    6  A    between atoms: C_11  and  C_12
REMARK    7  A    between atoms: C_11  and  C_13
REMARK    8  A    between atoms: C_13  and  C_14
REMARK    9  A    between atoms: C_14  and  N_15
REMARK   10  A    between atoms: N_18  and  C_19
REMARK   11  A    between atoms: C_23  and  C_24
REMARK                            x       y       z     vdW  Elec       q    Type
REMARK                         _______ _______ _______ _____ _____    ______ ____
ROOT
ATOM      1  C   UNL     1       7.922   7.672  18.314  0.00  0.00    +0.000 C 
ENDROOT
BRANCH   1   2
ATOM      2  N   UNL     1       7.751   6.534  17.415  0.00  0.00    +0.000 NA
ATOM      3  C   UNL     1       7.685   5.265  18.157  0.00  0.00    +0.000 C 
ATOM      4  C   UNL     1       6.488   5.203  19.117  0.00  0.00    +0.000 C 
ATOM      5  N   UNL     1       5.234   5.416  18.381  0.00  0.00    +0.000 N 
ATOM      6  C   UNL     1       5.177   6.551  17.455  0.00  0.00    +0.000 C 
ATOM      7  C   UNL     1       6.490   6.669  16.636  0.00  0.00    +0.000 C 
BRANCH   5   8
ATOM      8  C   UNL     1       4.234   4.470  18.422  0.00  0.00    +0.000 A 
ATOM      9  C   UNL     1       4.221   3.380  17.546  0.00  0.00    +0.000 A 
ATOM     10  C   UNL     1       3.253   2.385  17.621  0.00  0.00    +0.000 A 
ATOM     11  C   UNL     1       2.254   2.469  18.580  0.00  0.00    +0.000 A 
ATOM     12  C   UNL     1       2.212   3.558  19.463  0.00  0.00    +0.000 A 
ATOM     13  C   UNL     1       3.206   4.550  19.370  0.00  0.00    +0.000 A 
BRANCH  12  14
ATOM     14  C   UNL     1       1.138   3.680  20.505  0.00  0.00    +0.000 C 
ATOM     15  F   UNL     1       1.496   3.172  21.718  0.00  0.00    +0.000 F 
ATOM     16  F   UNL     1       0.779   4.975  20.737  0.00  0.00    +0.000 F 
ATOM     17  F   UNL     1      -0.009   3.035  20.155  0.00  0.00    +0.000 F 
ENDBRANCH  12  14
ENDBRANCH   5   8
ENDBRANCH   1   2
BRANCH   1  18
ATOM     18  C   UNL     1       8.208   8.996  17.614  0.00  0.00    +0.000 C 
BRANCH  18  19
ATOM     19  C   UNL     1       8.558  10.186  18.517  0.00  0.00    +0.000 C 
ATOM     20  C   UNL     1       8.187  11.462  17.727  0.00  0.00    +0.000 C 
BRANCH  19  21
ATOM     21  N   UNL     1       9.989  10.319  18.841  0.00  0.00    +0.000 NA
ATOM     22  H   UNL     1      10.529   9.485  19.064  0.00  0.00    +0.000 HD
BRANCH  21  23
ATOM     23  S   UNL     1      10.894  11.732  18.932  0.00  0.00    +0.000 S 
ATOM     24  O   UNL     1      10.562  12.599  17.829  0.00  0.00    +0.000 OA
ATOM     25  O   UNL     1      12.250  11.320  19.198  0.00  0.00    +0.000 OA
BRANCH  23  29
ATOM     26  C   UNL     1       9.040  13.702  22.612  0.00  0.00    +0.000 A 
ATOM     27  C   UNL     1       8.835  12.348  22.365  0.00  0.00    +0.000 A 
ATOM     28  C   UNL     1       9.505  11.722  21.318  0.00  0.00    +0.000 A 
ATOM     29  C   UNL     1      10.321  12.473  20.461  0.00  0.00    +0.000 A 
ATOM     30  C   UNL     1      10.515  13.842  20.689  0.00  0.00    +0.000 A 
ATOM     31  C   UNL     1       9.875  14.451  21.778  0.00  0.00    +0.000 A 
BRANCH  26  33
ATOM     32  C   UNL     1       7.019  14.671  23.275  0.00  0.00    +0.000 C 
ATOM     33  O   UNL     1       8.318  14.225  23.651  0.00  0.00    +0.000 OA
ENDBRANCH  26  33
ENDBRANCH  23  29
ENDBRANCH  21  23
ENDBRANCH  19  21
ENDBRANCH  18  19
ENDBRANCH   1  18
TORSDOF 9
ENDMDL
MODEL 9
REMARK VINA RESULT:      -7.1      6.709     11.517
REMARK  Name = 
REMARK  11 active torsions:
REMARK  status: ('A' for Active; 'I' for Inactive)
REMARK    1  A    between atoms: C_1  and  O_2
REMARK    2  A    between atoms: O_2  and  C_3
REMARK    3  A    between atoms: C_6  and  S_7
REMARK    4  A    between atoms: S_7  and  N_10
REMARK    5  A    between atoms: N_10  and  C_11
REMARK    6  A    between atoms: C_11  and  C_12
REMARK    7  A    between atoms: C_11  and  C_13
REMARK    8  A    between atoms: C_13  and  C_14
REMARK    9  A    between atoms: C_14  and  N_15
REMARK   10  A    between atoms: N_18  and  C_19
REMARK   11  A    between atoms: C_23  and  C_24
REMARK                            x       y       z     vdW  Elec       q    Type
REMARK                         _______ _______ _______ _____ _____    ______ ____
ROOT
ATOM      1  C   UNL     1       0.056  11.957  19.975  0.00  0.00    +0.000 C 
ENDROOT
BRANCH   1   2
ATOM      2  N   UNL     1      -0.659  10.714  19.697  0.00  0.00    +0.000 NA
ATOM      3  C   UNL     1      -0.242  10.129  18.413  0.00  0.00    +0.000 C 
ATOM      4  C   UNL     1       1.246   9.750  18.391  0.00  0.00    +0.000 C 
ATOM      5  N   UNL     1       1.551   8.818  19.486  0.00  0.00    +0.000 N 
ATOM      6  C   UNL     1       1.058   9.163  20.824  0.00  0.00    +0.000 C 
ATOM      7  C   UNL     1      -0.394   9.708  20.761  0.00  0.00    +0.000 C 
BRANCH   5   8
ATOM      8  C   UNL     1       2.104   7.586  19.219  0.00  0.00    +0.000 A 
ATOM      9  C   UNL     1       2.982   7.395  18.147  0.00  0.00    +0.000 A 
ATOM     10  C   UNL     1       3.597   6.172  17.907  0.00  0.00    +0.000 A 
ATOM     11  C   UNL     1       3.330   5.093  18.738  0.00  0.00    +0.000 A 
ATOM     12  C   UNL     1       2.436   5.232  19.809  0.00  0.00    +0.000 A 
ATOM     13  C   UNL     1       1.829   6.482  20.034  0.00  0.00    +0.000 A 
BRANCH  12  14
ATOM     14  C   UNL     1       2.122   4.080  20.720  0.00  0.00    +0.000 C 
ATOM     15  F   UNL     1       2.487   4.294  22.014  0.00  0.00    +0.000 F 
ATOM     16  F   UNL     1       0.789   3.789  20.753  0.00  0.00    +0.000 F 
ATOM     17  F   UNL     1       2.743   2.928  20.342  0.00  0.00    +0.000 F 
ENDBRANCH  12  14
ENDBRANCH   5   8
ENDBRANCH   1   2
BRANCH   1  18
ATOM     18  C   UNL     1      -0.294  13.112  19.044  0.00  0.00    +0.000 C 
BRANCH  18  19
ATOM     19  C   UNL     1      -0.592  14.462  19.710  0.00  0.00    +0.000 C 
ATOM     20  C   UNL     1       0.084  15.543  18.835  0.00  0.00    +0.000 C 
BRANCH  19  21
ATOM     21  N   UNL     1      -0.024  14.626  21.059  0.00  0.00    +0.000 NA
ATOM     22  H   UNL     1       0.882  14.212  21.271  0.00  0.00    +0.000 HD
BRANCH  21  23
ATOM     23  S   UNL     1      -0.712  15.413  22.374  0.00  0.00    +0.000 S 
ATOM     24  O   UNL     1      -1.197  16.710  21.971  0.00  0.00    +0.000 OA
ATOM     25  O   UNL     1       0.216  15.251  23.466  0.00  0.00    +0.000 OA
BRANCH  23  29
ATOM     26  C   UNL     1      -4.139  12.781  23.854  0.00  0.00    +0.000 A 
ATOM     27  C   UNL     1      -4.294  14.163  23.793  0.00  0.00    +0.000 A 
ATOM     28  C   UNL     1      -3.299  14.950  23.221  0.00  0.00    +0.000 A 
ATOM     29  C   UNL     1      -2.104  14.361  22.783  0.00  0.00    +0.000 A 
ATOM     30  C   UNL     1      -1.931  12.972  22.863  0.00  0.00    +0.000 A 
ATOM     31  C   UNL     1      -2.962  12.184  23.394  0.00  0.00    +0.000 A 
BRANCH  26  33
ATOM     32  C   UNL     1      -6.453  12.618  24.137  0.00  0.00    +0.000 C 
ATOM     33  O   UNL     1      -5.164  12.102  24.455  0.00  0.00    +0.000 OA
ENDBRANCH  26  33
ENDBRANCH  23  29
ENDBRANCH  21  23
ENDBRANCH  19  21
ENDBRANCH  18  19
ENDBRANCH   1  18
TORSDOF 9
ENDMDL
