MODEL 1
REMARK VINA RESULT:      -7.9      0.000      0.000
REMARK  Name = 
REMARK  5 active torsions:
REMARK  status: ('A' for Active; 'I' for Inactive)
REMARK    1  A    between atoms: C_1  and  C_2
REMARK    2  A    between atoms: C_2  and  C_3
REMARK    3  A    between atoms: C_6  and  C_7
REMARK    4  A    between atoms: N_13  and  C_14
REMARK    5  A    between atoms: C_14  and  C_15
REMARK                            x       y       z     vdW  Elec       q    Type
REMARK                         _______ _______ _______ _____ _____    ______ ____
ROOT
ATOM      1  C   UNL     1       3.322   5.676  18.700  0.00  0.00    +0.000 A 
ATOM      2  C   UNL     1       3.265   4.694  19.677  0.00  0.00    +0.000 A 
ATOM      3  S   UNL     1       2.295   5.128  21.011  0.00  0.00    +0.000 S 
ATOM      4  C   UNL     1       1.928   6.642  20.323  0.00  0.00    +0.000 A 
ATOM      5  N   UNL     1       1.117   7.513  20.974  0.00  0.00    +0.000 NA
ATOM      6  C   UNL     1       0.957   8.646  20.372  0.00  0.00    +0.000 A 
ATOM      7  N   UNL     1       1.541   9.009  19.179  0.00  0.00    +0.000 N 
ATOM      8  C   UNL     1       2.303   8.110  18.435  0.00  0.00    +0.000 A 
ATOM      9  O   UNL     1       2.759   8.408  17.334  0.00  0.00    +0.000 OA
ATOM     10  C   UNL     1       2.544   6.828  19.097  0.00  0.00    +0.000 A 
ENDROOT
BRANCH   1  14
ATOM     11  C   UNL     1       5.718   4.952  15.214  0.00  0.00    +0.000 A 
ATOM     12  C   UNL     1       5.677   6.223  15.792  0.00  0.00    +0.000 A 
ATOM     13  C   UNL     1       4.879   6.464  16.914  0.00  0.00    +0.000 A 
ATOM     14  C   UNL     1       4.088   5.444  17.470  0.00  0.00    +0.000 A 
ATOM     15  C   UNL     1       4.076   4.200  16.834  0.00  0.00    +0.000 A 
ATOM     16  C   UNL     1       4.903   3.945  15.738  0.00  0.00    +0.000 A 
BRANCH  11  18
ATOM     17  C   UNL     1       6.077   3.666  13.107  0.00  0.00    +0.000 C 
ATOM     18  C   UNL     1       6.688   4.640  14.105  0.00  0.00    +0.000 C 
ENDBRANCH  11  18
ENDBRANCH   1  14
BRANCH   7  19
ATOM     19  C   UNL     1       1.369  10.356  18.658  0.00  0.00    +0.000 C 
BRANCH  19  20
ATOM     20  C   UNL     1      -0.105  10.761  18.562  0.00  0.00    +0.000 C 
ATOM     21  O   UNL     1      -0.914  10.090  17.919  0.00  0.00    +0.000 OA
ATOM     22  N   UNL     1      -0.489  11.887  19.278  0.00  0.00    +0.000 N 
ATOM     23  C   UNL     1       0.373  12.732  20.113  0.00  0.00    +0.000 C 
ATOM     24  C   UNL     1      -0.231  12.887  21.515  0.00  0.00    +0.000 C 
ATOM     25  O   UNL     1      -1.582  13.365  21.451  0.00  0.00    +0.000 OA
ATOM     26  C   UNL     1      -2.412  12.471  20.688  0.00  0.00    +0.000 C 
ATOM     27  C   UNL     1      -1.887  12.327  19.256  0.00  0.00    +0.000 C 
ENDBRANCH  19  20
ENDBRANCH   7  19
TORSDOF 4
ENDMDL
MODEL 2
REMARK VINA RESULT:      -7.9      1.129      1.528
REMARK  Name = 
REMARK  5 active torsions:
REMARK  status: ('A' for Active; 'I' for Inactive)
REMARK    1  A    between atoms: C_1  and  C_2
REMARK    2  A    between atoms: C_2  and  C_3
REMARK    3  A    between atoms: C_6  and  C_7
REMARK    4  A    between atoms: N_13  and  C_14
REMARK    5  A    between atoms: C_14  and  C_15
REMARK                            x       y       z     vdW  Elec       q    Type
REMARK                         _______ _______ _______ _____ _____    ______ ____
ROOT
ATOM      1  C   UNL     1       3.370   5.433  18.850  0.00  0.00    +0.000 A 
ATOM      2  C   UNL     1       3.295   4.381  19.751  0.00  0.00    +0.000 A 
ATOM      3  S   UNL     1       2.287   4.710  21.087  0.00  0.00    +0.000 S 
ATOM      4  C   UNL     1       1.927   6.269  20.504  0.00  0.00    +0.000 A 
ATOM      5  N   UNL     1       1.092   7.084  21.195  0.00  0.00    +0.000 NA
ATOM      6  C   UNL     1       0.939   8.258  20.675  0.00  0.00    +0.000 A 
ATOM      7  N   UNL     1       1.551   8.711  19.528  0.00  0.00    +0.000 N 
ATOM      8  C   UNL     1       2.339   7.874  18.740  0.00  0.00    +0.000 A 
ATOM      9  O   UNL     1       2.821   8.256  17.676  0.00  0.00    +0.000 OA
ATOM     10  C   UNL     1       2.573   6.548  19.311  0.00  0.00    +0.000 A 
ENDROOT
BRANCH   1  14
ATOM     11  C   UNL     1       5.851   4.958  15.382  0.00  0.00    +0.000 A 
ATOM     12  C   UNL     1       5.911   6.131  16.139  0.00  0.00    +0.000 A 
ATOM     13  C   UNL     1       5.086   6.295  17.256  0.00  0.00    +0.000 A 
ATOM     14  C   UNL     1       4.169   5.297  17.628  0.00  0.00    +0.000 A 
ATOM     15  C   UNL     1       4.062   4.165  16.815  0.00  0.00    +0.000 A 
ATOM     16  C   UNL     1       4.913   3.981  15.724  0.00  0.00    +0.000 A 
BRANCH  11  18
ATOM     17  C   UNL     1       6.239   3.798  13.209  0.00  0.00    +0.000 C 
ATOM     18  C   UNL     1       6.840   4.705  14.274  0.00  0.00    +0.000 C 
ENDBRANCH  11  18
ENDBRANCH   1  14
BRANCH   7  19
ATOM     19  C   UNL     1       1.382  10.092  19.103  0.00  0.00    +0.000 C 
BRANCH  19  20
ATOM     20  C   UNL     1       0.649  10.939  20.147  0.00  0.00    +0.000 C 
ATOM     21  O   UNL     1       1.260  11.512  21.051  0.00  0.00    +0.000 OA
ATOM     22  N   UNL     1      -0.724  11.071  19.990  0.00  0.00    +0.000 N 
ATOM     23  C   UNL     1      -1.546  10.477  18.929  0.00  0.00    +0.000 C 
ATOM     24  C   UNL     1      -2.391  11.560  18.243  0.00  0.00    +0.000 C 
ATOM     25  O   UNL     1      -3.166  12.299  19.197  0.00  0.00    +0.000 OA
ATOM     26  C   UNL     1      -2.319  12.928  20.176  0.00  0.00    +0.000 C 
ATOM     27  C   UNL     1      -1.495  11.884  20.936  0.00  0.00    +0.000 C 
ENDBRANCH  19  20
ENDBRANCH   7  19
TORSDOF 4
ENDMDL
MODEL 3
REMARK VINA RESULT:      -7.8      1.804      2.396
REMARK  Name = 
REMARK  5 active torsions:
REMARK  status: ('A' for Active; 'I' for Inactive)
REMARK    1  A    between atoms: C_1  and  C_2
REMARK    2  A    between atoms: C_2  and  C_3
REMARK    3  A    between atoms: C_6  and  C_7
REMARK    4  A    between atoms: N_13  and  C_14
REMARK    5  A    between atoms: C_14  and  C_15
REMARK                            x       y       z     vdW  Elec       q    Type
REMARK                         _______ _______ _______ _____ _____    ______ ____
ROOT
ATOM      1  C   UNL     1       4.328   4.183  18.299  0.00  0.00    +0.000 A 
ATOM      2  C   UNL     1       4.396   2.938  18.904  0.00  0.00    +0.000 A 
ATOM      3  S   UNL     1       3.371   2.792  20.260  0.00  0.00    +0.000 S 
ATOM      4  C   UNL     1       2.811   4.390  20.079  0.00  0.00    +0.000 A 
ATOM      5  N   UNL     1       1.889   4.894  20.937  0.00  0.00    +0.000 NA
ATOM      6  C   UNL     1       1.584   6.133  20.726  0.00  0.00    +0.000 A 
ATOM      7  N   UNL     1       2.121   6.933  19.742  0.00  0.00    +0.000 N 
ATOM      8  C   UNL     1       2.998   6.427  18.785  0.00  0.00    +0.000 A 
ATOM      9  O   UNL     1       3.416   7.121  17.861  0.00  0.00    +0.000 OA
ATOM     10  C   UNL     1       3.403   5.038  19.009  0.00  0.00    +0.000 A 
ENDROOT
BRANCH   1  14
ATOM     11  C   UNL     1       6.713   4.808  14.787  0.00  0.00    +0.000 A 
ATOM     12  C   UNL     1       7.262   4.999  16.057  0.00  0.00    +0.000 A 
ATOM     13  C   UNL     1       6.478   4.818  17.201  0.00  0.00    +0.000 A 
ATOM     14  C   UNL     1       5.123   4.461  17.098  0.00  0.00    +0.000 A 
ATOM     15  C   UNL     1       4.566   4.353  15.820  0.00  0.00    +0.000 A 
ATOM     16  C   UNL     1       5.356   4.493  14.677  0.00  0.00    +0.000 A 
BRANCH  11  18
ATOM     17  C   UNL     1       6.930   4.094  12.407  0.00  0.00    +0.000 C 
ATOM     18  C   UNL     1       7.582   4.848  13.557  0.00  0.00    +0.000 C 
ENDBRANCH  11  18
ENDBRANCH   1  14
BRANCH   7  19
ATOM     19  C   UNL     1       1.775   8.345  19.675  0.00  0.00    +0.000 C 
BRANCH  19  20
ATOM     20  C   UNL     1       1.194   8.867  20.992  0.00  0.00    +0.000 C 
ATOM     21  O   UNL     1       1.734   8.625  22.072  0.00  0.00    +0.000 OA
ATOM     22  N   UNL     1       0.064   9.669  20.898  0.00  0.00    +0.000 N 
ATOM     23  C   UNL     1      -0.634  10.063  19.669  0.00  0.00    +0.000 C 
ATOM     24  C   UNL     1      -0.795  11.588  19.614  0.00  0.00    +0.000 C 
ATOM     25  O   UNL     1      -1.433  12.088  20.798  0.00  0.00    +0.000 OA
ATOM     26  C   UNL     1      -0.680  11.746  21.976  0.00  0.00    +0.000 C 
ATOM     27  C   UNL     1      -0.540  10.227  22.113  0.00  0.00    +0.000 C 
ENDBRANCH  19  20
ENDBRANCH   7  19
TORSDOF 4
ENDMDL
MODEL 4
REMARK VINA RESULT:      -7.7      1.219      1.860
REMARK  Name = 
REMARK  5 active torsions:
REMARK  status: ('A' for Active; 'I' for Inactive)
REMARK    1  A    between atoms: C_1  and  C_2
REMARK    2  A    between atoms: C_2  and  C_3
REMARK    3  A    between atoms: C_6  and  C_7
REMARK    4  A    between atoms: N_13  and  C_14
REMARK    5  A    between atoms: C_14  and  C_15
REMARK                            x       y       z     vdW  Elec       q    Type
REMARK                         _______ _______ _______ _____ _____    ______ ____
ROOT
ATOM      1  C   UNL     1       3.632   5.213  18.861  0.00  0.00    +0.000 A 
ATOM      2  C   UNL     1       3.509   4.188  19.786  0.00  0.00    +0.000 A 
ATOM      3  S   UNL     1       2.400   4.537  21.034  0.00  0.00    +0.000 S 
ATOM      4  C   UNL     1       2.058   6.070  20.377  0.00  0.00    +0.000 A 
ATOM      5  N   UNL     1       1.161   6.890  20.980  0.00  0.00    +0.000 NA
ATOM      6  C   UNL     1       1.027   8.045  20.414  0.00  0.00    +0.000 A 
ATOM      7  N   UNL     1       1.714   8.475  19.301  0.00  0.00    +0.000 N 
ATOM      8  C   UNL     1       2.572   7.630  18.599  0.00  0.00    +0.000 A 
ATOM      9  O   UNL     1       3.124   7.989  17.562  0.00  0.00    +0.000 OA
ATOM     10  C   UNL     1       2.785   6.326  19.227  0.00  0.00    +0.000 A 
ENDROOT
BRANCH   1  14
ATOM     11  C   UNL     1       6.115   4.874  15.378  0.00  0.00    +0.000 A 
ATOM     12  C   UNL     1       5.061   3.980  15.585  0.00  0.00    +0.000 A 
ATOM     13  C   UNL     1       4.267   4.077  16.731  0.00  0.00    +0.000 A 
ATOM     14  C   UNL     1       4.522   5.056  17.705  0.00  0.00    +0.000 A 
ATOM     15  C   UNL     1       5.628   5.891  17.525  0.00  0.00    +0.000 A 
ATOM     16  C   UNL     1       6.398   5.824  16.362  0.00  0.00    +0.000 A 
BRANCH  11  18
ATOM     17  C   UNL     1       6.343   3.812  13.132  0.00  0.00    +0.000 C 
ATOM     18  C   UNL     1       6.878   4.879  14.079  0.00  0.00    +0.000 C 
ENDBRANCH  11  18
ENDBRANCH   1  14
BRANCH   7  19
ATOM     19  C   UNL     1       1.554   9.839  18.821  0.00  0.00    +0.000 C 
BRANCH  19  20
ATOM     20  C   UNL     1       0.776  10.717  19.807  0.00  0.00    +0.000 C 
ATOM     21  O   UNL     1       1.347  11.321  20.716  0.00  0.00    +0.000 OA
ATOM     22  N   UNL     1      -0.590  10.839  19.588  0.00  0.00    +0.000 N 
ATOM     23  C   UNL     1      -1.366  10.208  18.514  0.00  0.00    +0.000 C 
ATOM     24  C   UNL     1      -2.183  11.265  17.759  0.00  0.00    +0.000 C 
ATOM     25  O   UNL     1      -2.999  12.032  18.656  0.00  0.00    +0.000 OA
ATOM     26  C   UNL     1      -2.195  12.695  19.648  0.00  0.00    +0.000 C 
ATOM     27  C   UNL     1      -1.401  11.679  20.475  0.00  0.00    +0.000 C 
ENDBRANCH  19  20
ENDBRANCH   7  19
TORSDOF 4
ENDMDL
MODEL 5
REMARK VINA RESULT:      -7.7      1.186      2.030
REMARK  Name = 
REMARK  5 active torsions:
REMARK  status: ('A' for Active; 'I' for Inactive)
REMARK    1  A    between atoms: C_1  and  C_2
REMARK    2  A    between atoms: C_2  and  C_3
REMARK    3  A    between atoms: C_6  and  C_7
REMARK    4  A    between atoms: N_13  and  C_14
REMARK    5  A    between atoms: C_14  and  C_15
REMARK                            x       y       z     vdW  Elec       q    Type
REMARK                         _______ _______ _______ _____ _____    ______ ____
ROOT
ATOM      1  C   UNL     1       3.325   5.812  18.723  0.00  0.00    +0.000 A 
ATOM      2  C   UNL     1       3.298   4.858  19.728  0.00  0.00    +0.000 A 
ATOM      3  S   UNL     1       2.318   5.302  21.052  0.00  0.00    +0.000 S 
ATOM      4  C   UNL     1       1.906   6.784  20.322  0.00  0.00    +0.000 A 
ATOM      5  N   UNL     1       1.071   7.649  20.950  0.00  0.00    +0.000 NA
ATOM      6  C   UNL     1       0.877   8.760  20.316  0.00  0.00    +0.000 A 
ATOM      7  N   UNL     1       1.449   9.105  19.112  0.00  0.00    +0.000 N 
ATOM      8  C   UNL     1       2.235   8.208  18.392  0.00  0.00    +0.000 A 
ATOM      9  O   UNL     1       2.680   8.487  17.282  0.00  0.00    +0.000 OA
ATOM     10  C   UNL     1       2.514   6.952  19.090  0.00  0.00    +0.000 A 
ENDROOT
BRANCH   1  14
ATOM     11  C   UNL     1       5.733   5.054  15.254  0.00  0.00    +0.000 A 
ATOM     12  C   UNL     1       5.681   6.334  15.812  0.00  0.00    +0.000 A 
ATOM     13  C   UNL     1       4.878   6.586  16.929  0.00  0.00    +0.000 A 
ATOM     14  C   UNL     1       4.095   5.568  17.499  0.00  0.00    +0.000 A 
ATOM     15  C   UNL     1       4.095   4.314  16.882  0.00  0.00    +0.000 A 
ATOM     16  C   UNL     1       4.926   4.048  15.792  0.00  0.00    +0.000 A 
BRANCH  11  18
ATOM     17  C   UNL     1       6.123   3.707  13.191  0.00  0.00    +0.000 C 
ATOM     18  C   UNL     1       6.709   4.733  14.151  0.00  0.00    +0.000 C 
ENDBRANCH  11  18
ENDBRANCH   1  14
BRANCH   7  19
ATOM     19  C   UNL     1       1.236  10.431  18.553  0.00  0.00    +0.000 C 
BRANCH  19  20
ATOM     20  C   UNL     1      -0.026  11.101  19.102  0.00  0.00    +0.000 C 
ATOM     21  O   UNL     1       0.037  11.989  19.954  0.00  0.00    +0.000 OA
ATOM     22  N   UNL     1      -1.236  10.697  18.551  0.00  0.00    +0.000 N 
ATOM     23  C   UNL     1      -1.428   9.689  17.503  0.00  0.00    +0.000 C 
ATOM     24  C   UNL     1      -2.268  10.269  16.356  0.00  0.00    +0.000 C 
ATOM     25  O   UNL     1      -3.505  10.812  16.838  0.00  0.00    +0.000 OA
ATOM     26  C   UNL     1      -3.273  11.848  17.809  0.00  0.00    +0.000 C 
ATOM     27  C   UNL     1      -2.488  11.307  19.008  0.00  0.00    +0.000 C 
ENDBRANCH  19  20
ENDBRANCH   7  19
TORSDOF 4
ENDMDL
MODEL 6
REMARK VINA RESULT:      -7.4      0.937      1.275
REMARK  Name = 
REMARK  5 active torsions:
REMARK  status: ('A' for Active; 'I' for Inactive)
REMARK    1  A    between atoms: C_1  and  C_2
REMARK    2  A    between atoms: C_2  and  C_3
REMARK    3  A    between atoms: C_6  and  C_7
REMARK    4  A    between atoms: N_13  and  C_14
REMARK    5  A    between atoms: C_14  and  C_15
REMARK                            x       y       z     vdW  Elec       q    Type
REMARK                         _______ _______ _______ _____ _____    ______ ____
ROOT
ATOM      1  C   UNL     1       4.067   5.261  18.371  0.00  0.00    +0.000 A 
ATOM      2  C   UNL     1       4.017   4.303  19.373  0.00  0.00    +0.000 A 
ATOM      3  S   UNL     1       2.946   4.708  20.638  0.00  0.00    +0.000 S 
ATOM      4  C   UNL     1       2.524   6.177  19.886  0.00  0.00    +0.000 A 
ATOM      5  N   UNL     1       1.623   7.010  20.466  0.00  0.00    +0.000 NA
ATOM      6  C   UNL     1       1.426   8.114  19.823  0.00  0.00    +0.000 A 
ATOM      7  N   UNL     1       2.054   8.483  18.653  0.00  0.00    +0.000 N 
ATOM      8  C   UNL     1       2.912   7.617  17.979  0.00  0.00    +0.000 A 
ATOM      9  O   UNL     1       3.410   7.915  16.897  0.00  0.00    +0.000 OA
ATOM     10  C   UNL     1       3.196   6.370  18.691  0.00  0.00    +0.000 A 
ENDROOT
BRANCH   1  14
ATOM     11  C   UNL     1       6.447   4.780  14.834  0.00  0.00    +0.000 A 
ATOM     12  C   UNL     1       5.272   4.041  15.002  0.00  0.00    +0.000 A 
ATOM     13  C   UNL     1       4.509   4.182  16.165  0.00  0.00    +0.000 A 
ATOM     14  C   UNL     1       4.915   5.048  17.194  0.00  0.00    +0.000 A 
ATOM     15  C   UNL     1       6.132   5.719  17.048  0.00  0.00    +0.000 A 
ATOM     16  C   UNL     1       6.876   5.612  15.870  0.00  0.00    +0.000 A 
BRANCH  11  18
ATOM     17  C   UNL     1       6.631   3.682  12.601  0.00  0.00    +0.000 C 
ATOM     18  C   UNL     1       7.192   4.754  13.525  0.00  0.00    +0.000 C 
ENDBRANCH  11  18
ENDBRANCH   1  14
BRANCH   7  19
ATOM     19  C   UNL     1       1.826   9.802  18.084  0.00  0.00    +0.000 C 
BRANCH  19  20
ATOM     20  C   UNL     1       0.374  10.262  18.237  0.00  0.00    +0.000 C 
ATOM     21  O   UNL     1      -0.554   9.643  17.715  0.00  0.00    +0.000 OA
ATOM     22  N   UNL     1       0.155  11.375  19.039  0.00  0.00    +0.000 N 
ATOM     23  C   UNL     1       1.173  12.160  19.747  0.00  0.00    +0.000 C 
ATOM     24  C   UNL     1       0.807  12.286  21.232  0.00  0.00    +0.000 C 
ATOM     25  O   UNL     1      -0.517  12.815  21.400  0.00  0.00    +0.000 OA
ATOM     26  C   UNL     1      -1.493  11.978  20.755  0.00  0.00    +0.000 C 
ATOM     27  C   UNL     1      -1.210  11.865  19.254  0.00  0.00    +0.000 C 
ENDBRANCH  19  20
ENDBRANCH   7  19
TORSDOF 4
ENDMDL
MODEL 7
REMARK VINA RESULT:      -7.3      1.718      2.365
REMARK  Name = 
REMARK  5 active torsions:
REMARK  status: ('A' for Active; 'I' for Inactive)
REMARK    1  A    between atoms: C_1  and  C_2
REMARK    2  A    between atoms: C_2  and  C_3
REMARK    3  A    between atoms: C_6  and  C_7
REMARK    4  A    between atoms: N_13  and  C_14
REMARK    5  A    between atoms: C_14  and  C_15
REMARK                            x       y       z     vdW  Elec       q    Type
REMARK                         _______ _______ _______ _____ _____    ______ ____
ROOT
ATOM      1  C   UNL     1       3.984   3.805  17.839  0.00  0.00    +0.000 A 
ATOM      2  C   UNL     1       3.659   2.501  18.177  0.00  0.00    +0.000 A 
ATOM      3  S   UNL     1       2.456   2.397  19.382  0.00  0.00    +0.000 S 
ATOM      4  C   UNL     1       2.338   4.092  19.490  0.00  0.00    +0.000 A 
ATOM      5  N   UNL     1       1.462   4.665  20.353  0.00  0.00    +0.000 NA
ATOM      6  C   UNL     1       1.504   5.957  20.377  0.00  0.00    +0.000 A 
ATOM      7  N   UNL     1       2.351   6.745  19.629  0.00  0.00    +0.000 N 
ATOM      8  C   UNL     1       3.197   6.200  18.665  0.00  0.00    +0.000 A 
ATOM      9  O   UNL     1       3.894   6.909  17.944  0.00  0.00    +0.000 OA
ATOM     10  C   UNL     1       3.211   4.737  18.631  0.00  0.00    +0.000 A 
ENDROOT
BRANCH   1  14
ATOM     11  C   UNL     1       6.832   4.759  14.775  0.00  0.00    +0.000 A 
ATOM     12  C   UNL     1       5.549   4.321  14.437  0.00  0.00    +0.000 A 
ATOM     13  C   UNL     1       4.629   3.989  15.435  0.00  0.00    +0.000 A 
ATOM     14  C   UNL     1       4.978   4.068  16.793  0.00  0.00    +0.000 A 
ATOM     15  C   UNL     1       6.289   4.429  17.116  0.00  0.00    +0.000 A 
ATOM     16  C   UNL     1       7.198   4.801  16.123  0.00  0.00    +0.000 A 
BRANCH  11  18
ATOM     17  C   UNL     1       7.404   4.717  12.348  0.00  0.00    +0.000 C 
ATOM     18  C   UNL     1       7.777   5.267  13.718  0.00  0.00    +0.000 C 
ENDBRANCH  11  18
ENDBRANCH   1  14
BRANCH   7  19
ATOM     19  C   UNL     1       2.377   8.186  19.827  0.00  0.00    +0.000 C 
BRANCH  19  20
ATOM     20  C   UNL     1       1.449   8.926  18.858  0.00  0.00    +0.000 C 
ATOM     21  O   UNL     1       1.270   8.523  17.708  0.00  0.00    +0.000 OA
ATOM     22  N   UNL     1       0.782  10.035  19.361  0.00  0.00    +0.000 N 
ATOM     23  C   UNL     1       0.879  10.576  20.721  0.00  0.00    +0.000 C 
ATOM     24  C   UNL     1      -0.520  10.729  21.333  0.00  0.00    +0.000 C 
ATOM     25  O   UNL     1      -1.377  11.508  20.487  0.00  0.00    +0.000 OA
ATOM     26  C   UNL     1      -1.507  10.906  19.187  0.00  0.00    +0.000 C 
ATOM     27  C   UNL     1      -0.142  10.784  18.503  0.00  0.00    +0.000 C 
ENDBRANCH  19  20
ENDBRANCH   7  19
TORSDOF 4
ENDMDL
MODEL 8
REMARK VINA RESULT:      -7.3      0.987      1.204
REMARK  Name = 
REMARK  5 active torsions:
REMARK  status: ('A' for Active; 'I' for Inactive)
REMARK    1  A    between atoms: C_1  and  C_2
REMARK    2  A    between atoms: C_2  and  C_3
REMARK    3  A    between atoms: C_6  and  C_7
REMARK    4  A    between atoms: N_13  and  C_14
REMARK    5  A    between atoms: C_14  and  C_15
REMARK                            x       y       z     vdW  Elec       q    Type
REMARK                         _______ _______ _______ _____ _____    ______ ____
ROOT
ATOM      1  C   UNL     1       3.333   5.768  18.681  0.00  0.00    +0.000 A 
ATOM      2  C   UNL     1       3.281   4.830  19.701  0.00  0.00    +0.000 A 
ATOM      3  S   UNL     1       2.312   5.321  21.017  0.00  0.00    +0.000 S 
ATOM      4  C   UNL     1       1.940   6.802  20.263  0.00  0.00    +0.000 A 
ATOM      5  N   UNL     1       1.127   7.698  20.877  0.00  0.00    +0.000 NA
ATOM      6  C   UNL     1       0.962   8.803  20.226  0.00  0.00    +0.000 A 
ATOM      7  N   UNL     1       1.543   9.114  19.016  0.00  0.00    +0.000 N 
ATOM      8  C   UNL     1       2.306   8.185  18.311  0.00  0.00    +0.000 A 
ATOM      9  O   UNL     1       2.759   8.435  17.197  0.00  0.00    +0.000 OA
ATOM     10  C   UNL     1       2.552   6.934  19.029  0.00  0.00    +0.000 A 
ENDROOT
BRANCH   1  14
ATOM     11  C   UNL     1       5.722   4.892  15.226  0.00  0.00    +0.000 A 
ATOM     12  C   UNL     1       5.702   6.181  15.764  0.00  0.00    +0.000 A 
ATOM     13  C   UNL     1       4.906   6.472  16.876  0.00  0.00    +0.000 A 
ATOM     14  C   UNL     1       4.097   5.484  17.462  0.00  0.00    +0.000 A 
ATOM     15  C   UNL     1       4.064   4.220  16.865  0.00  0.00    +0.000 A 
ATOM     16  C   UNL     1       4.889   3.916  15.780  0.00  0.00    +0.000 A 
BRANCH  11  18
ATOM     17  C   UNL     1       6.011   3.668  13.072  0.00  0.00    +0.000 C 
ATOM     18  C   UNL     1       6.689   4.529  14.130  0.00  0.00    +0.000 C 
ENDBRANCH  11  18
ENDBRANCH   1  14
BRANCH   7  19
ATOM     19  C   UNL     1       1.366  10.436  18.436  0.00  0.00    +0.000 C 
BRANCH  19  20
ATOM     20  C   UNL     1       0.266  11.239  19.137  0.00  0.00    +0.000 C 
ATOM     21  O   UNL     1      -0.883  10.803  19.234  0.00  0.00    +0.000 OA
ATOM     22  N   UNL     1       0.642  12.450  19.701  0.00  0.00    +0.000 N 
ATOM     23  C   UNL     1       1.984  13.043  19.690  0.00  0.00    +0.000 C 
ATOM     24  C   UNL     1       2.415  13.409  21.117  0.00  0.00    +0.000 C 
ATOM     25  O   UNL     1       1.443  14.248  21.757  0.00  0.00    +0.000 OA
ATOM     26  C   UNL     1       0.159  13.601  21.815  0.00  0.00    +0.000 C 
ATOM     27  C   UNL     1      -0.348  13.267  20.409  0.00  0.00    +0.000 C 
ENDBRANCH  19  20
ENDBRANCH   7  19
TORSDOF 4
ENDMDL
MODEL 9
REMARK VINA RESULT:      -7.2      1.773      2.596
REMARK  Name = 
REMARK  5 active torsions:
REMARK  status: ('A' for Active; 'I' for Inactive)
REMARK    1  A    between atoms: C_1  and  C_2
REMARK    2  A    between atoms: C_2  and  C_3
REMARK    3  A    between atoms: C_6  and  C_7
REMARK    4  A    between atoms: N_13  and  C_14
REMARK    5  A    between atoms: C_14  and  C_15
REMARK                            x       y       z     vdW  Elec       q    Type
REMARK                         _______ _______ _______ _____ _____    ______ ____
ROOT
ATOM      1  C   UNL     1       3.843   3.838  17.818  0.00  0.00    +0.000 A 
ATOM      2  C   UNL     1       3.542   2.499  18.014  0.00  0.00    +0.000 A 
ATOM      3  S   UNL     1       2.384   2.240  19.239  0.00  0.00    +0.000 S 
ATOM      4  C   UNL     1       2.255   3.910  19.546  0.00  0.00    +0.000 A 
ATOM      5  N   UNL     1       1.405   4.368  20.499  0.00  0.00    +0.000 NA
ATOM      6  C   UNL     1       1.436   5.649  20.672  0.00  0.00    +0.000 A 
ATOM      7  N   UNL     1       2.248   6.529  19.992  0.00  0.00    +0.000 N 
ATOM      8  C   UNL     1       3.064   6.110  18.943  0.00  0.00    +0.000 A 
ATOM      9  O   UNL     1       3.729   6.907  18.285  0.00  0.00    +0.000 OA
ATOM     10  C   UNL     1       3.091   4.662  18.738  0.00  0.00    +0.000 A 
ENDROOT
BRANCH   1  14
ATOM     11  C   UNL     1       6.696   4.805  14.763  0.00  0.00    +0.000 A 
ATOM     12  C   UNL     1       7.050   4.887  16.112  0.00  0.00    +0.000 A 
ATOM     13  C   UNL     1       6.113   4.593  17.108  0.00  0.00    +0.000 A 
ATOM     14  C   UNL     1       4.797   4.232  16.776  0.00  0.00    +0.000 A 
ATOM     15  C   UNL     1       4.434   4.234  15.426  0.00  0.00    +0.000 A 
ATOM     16  C   UNL     1       5.378   4.487  14.428  0.00  0.00    +0.000 A 
BRANCH  11  18
ATOM     17  C   UNL     1       7.212   4.452  12.349  0.00  0.00    +0.000 C 
ATOM     18  C   UNL     1       7.734   4.967  13.683  0.00  0.00    +0.000 C 
ENDBRANCH  11  18
ENDBRANCH   1  14
BRANCH   7  19
ATOM     19  C   UNL     1       2.268   7.938  20.354  0.00  0.00    +0.000 C 
BRANCH  19  20
ATOM     20  C   UNL     1       0.862   8.539  20.442  0.00  0.00    +0.000 C 
ATOM     21  O   UNL     1       0.060   8.172  21.302  0.00  0.00    +0.000 OA
ATOM     22  N   UNL     1       0.560   9.552  19.540  0.00  0.00    +0.000 N 
ATOM     23  C   UNL     1       1.448  10.101  18.509  0.00  0.00    +0.000 C 
ATOM     24  C   UNL     1       1.526  11.628  18.634  0.00  0.00    +0.000 C 
ATOM     25  O   UNL     1       0.219  12.221  18.614  0.00  0.00    +0.000 OA
ATOM     26  C   UNL     1      -0.595  11.713  19.685  0.00  0.00    +0.000 C 
ATOM     27  C   UNL     1      -0.758  10.193  19.575  0.00  0.00    +0.000 C 
ENDBRANCH  19  20
ENDBRANCH   7  19
TORSDOF 4
ENDMDL
