MODEL 1
REMARK VINA RESULT:      -6.7      0.000      0.000
REMARK  Name = 
REMARK  10 active torsions:
REMARK  status: ('A' for Active; 'I' for Inactive)
REMARK    1  A    between atoms: C_1  and  O_2
REMARK    2  A    between atoms: O_2  and  C_3
REMARK    3  A    between atoms: C_3  and  C_4
REMARK    4  A    between atoms: C_4  and  N_5
REMARK    5  A    between atoms: C_4  and  C_17
REMARK    6  A    between atoms: N_5  and  S_6
REMARK    7  A    between atoms: S_6  and  N_9
REMARK    8  A    between atoms: N_9  and  C_10
REMARK    9  A    between atoms: C_10  and  C_11
REMARK   10  A    between atoms: N_21  and  C_22
REMARK                            x       y       z     vdW  Elec       q    Type
REMARK                         _______ _______ _______ _____ _____    ______ ____
ROOT
ATOM      1  N   UNL     1       4.249   5.219  18.077  0.00  0.00    +0.000 NA
ATOM      2  H   UNL     1       3.966   4.618  17.308  0.00  0.00    +0.000 HD
ENDROOT
BRANCH   1   3
ATOM      3  S   UNL     1       5.870   5.325  18.276  0.00  0.00    +0.000 S 
ATOM      4  O   UNL     1       6.235   6.592  17.679  0.00  0.00    +0.000 OA
ATOM      5  O   UNL     1       6.266   4.968  19.608  0.00  0.00    +0.000 OA
BRANCH   3   6
ATOM      6  N   UNL     1       6.445   4.137  17.224  0.00  0.00    +0.000 NA
ATOM      7  H   UNL     1       6.486   3.237  17.692  0.00  0.00    +0.000 HD
BRANCH   6   8
ATOM      8  C   UNL     1       5.509   4.012  16.064  0.00  0.00    +0.000 C 
BRANCH   8   9
ATOM      9  C   UNL     1       6.167   4.101  14.708  0.00  0.00    +0.000 A 
ATOM     10  C   UNL     1       5.650   3.382  13.617  0.00  0.00    +0.000 A 
ATOM     11  C   UNL     1       6.174   3.558  12.334  0.00  0.00    +0.000 A 
ATOM     12  C   UNL     1       7.221   4.452  12.126  0.00  0.00    +0.000 A 
ATOM     13  C   UNL     1       7.750   5.164  13.202  0.00  0.00    +0.000 A 
ATOM     14  C   UNL     1       7.229   4.987  14.487  0.00  0.00    +0.000 A 
ENDBRANCH   8   9
ENDBRANCH   6   8
ENDBRANCH   3   6
ENDBRANCH   1   3
BRANCH   1  15
ATOM     15  C   UNL     1       3.200   5.594  19.025  0.00  0.00    +0.000 C 
BRANCH  15  16
ATOM     16  C   UNL     1       2.653   4.411  19.780  0.00  0.00    +0.000 A 
ATOM     17  C   UNL     1       2.328   4.371  21.130  0.00  0.00    +0.000 A 
ATOM     18  C   UNL     1       1.786   3.103  21.362  0.00  0.00    +0.000 A 
ATOM     19  N   UNL     1       1.734   2.376  20.253  0.00  0.00    +0.000 NA
ATOM     20  N   UNL     1       2.274   3.171  19.303  0.00  0.00    +0.000 N 
ATOM     21  C   UNL     1       2.323   2.623  17.969  0.00  0.00    +0.000 C 
ENDBRANCH  15  16
BRANCH  15  22
ATOM     22  C   UNL     1       2.261   6.632  18.411  0.00  0.00    +0.000 C 
BRANCH  22  24
ATOM     23  C   UNL     1       2.266   8.920  17.813  0.00  0.00    +0.000 C 
ATOM     24  O   UNL     1       3.026   7.722  17.888  0.00  0.00    +0.000 OA
ENDBRANCH  22  24
ENDBRANCH  15  22
ENDBRANCH   1  15
TORSDOF 8
ENDMDL
MODEL 2
REMARK VINA RESULT:      -6.7      1.017      1.600
REMARK  Name = 
REMARK  10 active torsions:
REMARK  status: ('A' for Active; 'I' for Inactive)
REMARK    1  A    between atoms: C_1  and  O_2
REMARK    2  A    between atoms: O_2  and  C_3
REMARK    3  A    between atoms: C_3  and  C_4
REMARK    4  A    between atoms: C_4  and  N_5
REMARK    5  A    between atoms: C_4  and  C_17
REMARK    6  A    between atoms: N_5  and  S_6
REMARK    7  A    between atoms: S_6  and  N_9
REMARK    8  A    between atoms: N_9  and  C_10
REMARK    9  A    between atoms: C_10  and  C_11
REMARK   10  A    between atoms: N_21  and  C_22
REMARK                            x       y       z     vdW  Elec       q    Type
REMARK                         _______ _______ _______ _____ _____    ______ ____
ROOT
ATOM      1  N   UNL     1       4.376   5.539  18.130  0.00  0.00    +0.000 NA
ATOM      2  H   UNL     1       4.040   5.428  17.177  0.00  0.00    +0.000 HD
ENDROOT
BRANCH   1   3
ATOM      3  S   UNL     1       6.004   5.450  18.276  0.00  0.00    +0.000 S 
ATOM      4  O   UNL     1       6.495   6.690  17.714  0.00  0.00    +0.000 OA
ATOM      5  O   UNL     1       6.396   4.997  19.579  0.00  0.00    +0.000 OA
BRANCH   3   6
ATOM      6  N   UNL     1       6.404   4.247  17.161  0.00  0.00    +0.000 NA
ATOM      7  H   UNL     1       5.582   3.957  16.641  0.00  0.00    +0.000 HD
BRANCH   6   8
ATOM      8  C   UNL     1       7.401   4.791  16.188  0.00  0.00    +0.000 C 
BRANCH   8   9
ATOM      9  C   UNL     1       7.031   4.610  14.735  0.00  0.00    +0.000 A 
ATOM     10  C   UNL     1       7.800   5.209  13.724  0.00  0.00    +0.000 A 
ATOM     11  C   UNL     1       7.541   4.943  12.377  0.00  0.00    +0.000 A 
ATOM     12  C   UNL     1       6.509   4.076  12.025  0.00  0.00    +0.000 A 
ATOM     13  C   UNL     1       5.731   3.482  13.019  0.00  0.00    +0.000 A 
ATOM     14  C   UNL     1       5.988   3.750  14.367  0.00  0.00    +0.000 A 
ENDBRANCH   8   9
ENDBRANCH   6   8
ENDBRANCH   3   6
ENDBRANCH   1   3
BRANCH   1  15
ATOM     15  C   UNL     1       3.371   5.430  19.187  0.00  0.00    +0.000 C 
BRANCH  15  16
ATOM     16  C   UNL     1       2.599   4.138  19.119  0.00  0.00    +0.000 A 
ATOM     17  C   UNL     1       1.343   3.954  18.555  0.00  0.00    +0.000 A 
ATOM     18  C   UNL     1       1.070   2.586  18.651  0.00  0.00    +0.000 A 
ATOM     19  N   UNL     1       2.073   1.918  19.209  0.00  0.00    +0.000 NA
ATOM     20  N   UNL     1       2.989   2.868  19.502  0.00  0.00    +0.000 N 
ATOM     21  C   UNL     1       4.212   2.405  20.110  0.00  0.00    +0.000 C 
ENDBRANCH  15  16
BRANCH  15  22
ATOM     22  C   UNL     1       2.649   6.762  19.389  0.00  0.00    +0.000 C 
BRANCH  22  24
ATOM     23  C   UNL     1       1.873   8.552  18.053  0.00  0.00    +0.000 C 
ATOM     24  O   UNL     1       2.928   7.631  18.286  0.00  0.00    +0.000 OA
ENDBRANCH  22  24
ENDBRANCH  15  22
ENDBRANCH   1  15
TORSDOF 8
ENDMDL
MODEL 3
REMARK VINA RESULT:      -6.7      0.779      1.759
REMARK  Name = 
REMARK  10 active torsions:
REMARK  status: ('A' for Active; 'I' for Inactive)
REMARK    1  A    between atoms: C_1  and  O_2
REMARK    2  A    between atoms: O_2  and  C_3
REMARK    3  A    between atoms: C_3  and  C_4
REMARK    4  A    between atoms: C_4  and  N_5
REMARK    5  A    between atoms: C_4  and  C_17
REMARK    6  A    between atoms: N_5  and  S_6
REMARK    7  A    between atoms: S_6  and  N_9
REMARK    8  A    between atoms: N_9  and  C_10
REMARK    9  A    between atoms: C_10  and  C_11
REMARK   10  A    between atoms: N_21  and  C_22
REMARK                            x       y       z     vdW  Elec       q    Type
REMARK                         _______ _______ _______ _____ _____    ______ ____
ROOT
ATOM      1  N   UNL     1       4.695   4.969  17.846  0.00  0.00    +0.000 NA
ATOM      2  H   UNL     1       4.512   4.133  17.296  0.00  0.00    +0.000 HD
ENDROOT
BRANCH   1   3
ATOM      3  S   UNL     1       6.286   5.287  18.062  0.00  0.00    +0.000 S 
ATOM      4  O   UNL     1       6.469   6.628  17.550  0.00  0.00    +0.000 OA
ATOM      5  O   UNL     1       6.731   4.904  19.371  0.00  0.00    +0.000 OA
BRANCH   3   6
ATOM      6  N   UNL     1       7.019   4.260  16.940  0.00  0.00    +0.000 NA
ATOM      7  H   UNL     1       7.363   3.422  17.397  0.00  0.00    +0.000 HD
BRANCH   6   8
ATOM      8  C   UNL     1       6.008   3.848  15.917  0.00  0.00    +0.000 C 
BRANCH   8   9
ATOM      9  C   UNL     1       6.399   4.139  14.488  0.00  0.00    +0.000 A 
ATOM     10  C   UNL     1       7.386   5.097  14.201  0.00  0.00    +0.000 A 
ATOM     11  C   UNL     1       7.844   5.281  12.894  0.00  0.00    +0.000 A 
ATOM     12  C   UNL     1       7.319   4.512  11.858  0.00  0.00    +0.000 A 
ATOM     13  C   UNL     1       6.331   3.565  12.128  0.00  0.00    +0.000 A 
ATOM     14  C   UNL     1       5.871   3.381  13.435  0.00  0.00    +0.000 A 
ENDBRANCH   8   9
ENDBRANCH   6   8
ENDBRANCH   3   6
ENDBRANCH   1   3
BRANCH   1  15
ATOM     15  C   UNL     1       3.560   5.518  18.586  0.00  0.00    +0.000 C 
BRANCH  15  16
ATOM     16  C   UNL     1       2.471   4.502  18.813  0.00  0.00    +0.000 A 
ATOM     17  C   UNL     1       1.866   3.710  17.845  0.00  0.00    +0.000 A 
ATOM     18  C   UNL     1       0.981   2.870  18.529  0.00  0.00    +0.000 A 
ATOM     19  N   UNL     1       1.018   3.072  19.841  0.00  0.00    +0.000 NA
ATOM     20  N   UNL     1       1.913   4.072  20.002  0.00  0.00    +0.000 N 
ATOM     21  C   UNL     1       2.165   4.485  21.361  0.00  0.00    +0.000 C 
ENDBRANCH  15  16
BRANCH  15  22
ATOM     22  C   UNL     1       3.224   6.927  18.097  0.00  0.00    +0.000 C 
BRANCH  22  24
ATOM     23  C   UNL     1       1.829   8.794  18.497  0.00  0.00    +0.000 C 
ATOM     24  O   UNL     1       2.200   7.491  18.923  0.00  0.00    +0.000 OA
ENDBRANCH  22  24
ENDBRANCH  15  22
ENDBRANCH   1  15
TORSDOF 8
ENDMDL
MODEL 4
REMARK VINA RESULT:      -6.7      1.336      2.072
REMARK  Name = 
REMARK  10 active torsions:
REMARK  status: ('A' for Active; 'I' for Inactive)
REMARK    1  A    between atoms: C_1  and  O_2
REMARK    2  A    between atoms: O_2  and  C_3
REMARK    3  A    between atoms: C_3  and  C_4
REMARK    4  A    between atoms: C_4  and  N_5
REMARK    5  A    between atoms: C_4  and  C_17
REMARK    6  A    between atoms: N_5  and  S_6
REMARK    7  A    between atoms: S_6  and  N_9
REMARK    8  A    between atoms: N_9  and  C_10
REMARK    9  A    between atoms: C_10  and  C_11
REMARK   10  A    between atoms: N_21  and  C_22
REMARK                            x       y       z     vdW  Elec       q    Type
REMARK                         _______ _______ _______ _____ _____    ______ ____
ROOT
ATOM      1  N   UNL     1       4.381   5.454  18.749  0.00  0.00    +0.000 NA
ATOM      2  H   UNL     1       4.440   6.115  17.978  0.00  0.00    +0.000 HD
ENDROOT
BRANCH   1   3
ATOM      3  S   UNL     1       5.496   4.258  18.684  0.00  0.00    +0.000 S 
ATOM      4  O   UNL     1       6.770   4.941  18.619  0.00  0.00    +0.000 OA
ATOM      5  O   UNL     1       5.231   3.232  19.652  0.00  0.00    +0.000 OA
BRANCH   3   6
ATOM      6  N   UNL     1       5.242   3.606  17.148  0.00  0.00    +0.000 NA
ATOM      7  H   UNL     1       4.437   2.987  17.153  0.00  0.00    +0.000 HD
BRANCH   6   8
ATOM      8  C   UNL     1       4.968   4.714  16.182  0.00  0.00    +0.000 C 
BRANCH   8   9
ATOM      9  C   UNL     1       5.673   4.584  14.853  0.00  0.00    +0.000 A 
ATOM     10  C   UNL     1       6.933   5.172  14.654  0.00  0.00    +0.000 A 
ATOM     11  C   UNL     1       7.647   4.949  13.474  0.00  0.00    +0.000 A 
ATOM     12  C   UNL     1       7.109   4.138  12.478  0.00  0.00    +0.000 A 
ATOM     13  C   UNL     1       5.854   3.556  12.659  0.00  0.00    +0.000 A 
ATOM     14  C   UNL     1       5.138   3.780  13.838  0.00  0.00    +0.000 A 
ENDBRANCH   8   9
ENDBRANCH   6   8
ENDBRANCH   3   6
ENDBRANCH   1   3
BRANCH   1  15
ATOM     15  C   UNL     1       3.160   5.503  19.552  0.00  0.00    +0.000 C 
BRANCH  15  16
ATOM     16  C   UNL     1       2.284   4.295  19.348  0.00  0.00    +0.000 A 
ATOM     17  C   UNL     1       1.741   3.862  18.145  0.00  0.00    +0.000 A 
ATOM     18  C   UNL     1       1.075   2.666  18.427  0.00  0.00    +0.000 A 
ATOM     19  N   UNL     1       1.191   2.323  19.705  0.00  0.00    +0.000 NA
ATOM     20  N   UNL     1       1.912   3.323  20.258  0.00  0.00    +0.000 N 
ATOM     21  C   UNL     1       2.207   3.192  21.664  0.00  0.00    +0.000 C 
ENDBRANCH  15  16
BRANCH  15  22
ATOM     22  C   UNL     1       2.564   6.911  19.547  0.00  0.00    +0.000 C 
BRANCH  22  24
ATOM     23  C   UNL     1       1.347   8.411  20.911  0.00  0.00    +0.000 C 
ATOM     24  O   UNL     1       1.652   7.051  20.641  0.00  0.00    +0.000 OA
ENDBRANCH  22  24
ENDBRANCH  15  22
ENDBRANCH   1  15
TORSDOF 8
ENDMDL
MODEL 5
REMARK VINA RESULT:      -6.7      1.283      2.165
REMARK  Name = 
REMARK  10 active torsions:
REMARK  status: ('A' for Active; 'I' for Inactive)
REMARK    1  A    between atoms: C_1  and  O_2
REMARK    2  A    between atoms: O_2  and  C_3
REMARK    3  A    between atoms: C_3  and  C_4
REMARK    4  A    between atoms: C_4  and  N_5
REMARK    5  A    between atoms: C_4  and  C_17
REMARK    6  A    between atoms: N_5  and  S_6
REMARK    7  A    between atoms: S_6  and  N_9
REMARK    8  A    between atoms: N_9  and  C_10
REMARK    9  A    between atoms: C_10  and  C_11
REMARK   10  A    between atoms: N_21  and  C_22
REMARK                            x       y       z     vdW  Elec       q    Type
REMARK                         _______ _______ _______ _____ _____    ______ ____
ROOT
ATOM      1  N   UNL     1       4.911   5.667  17.717  0.00  0.00    +0.000 NA
ATOM      2  H   UNL     1       4.690   5.860  16.744  0.00  0.00    +0.000 HD
ENDROOT
BRANCH   1   3
ATOM      3  S   UNL     1       6.505   5.427  18.001  0.00  0.00    +0.000 S 
ATOM      4  O   UNL     1       7.161   6.587  17.436  0.00  0.00    +0.000 OA
ATOM      5  O   UNL     1       6.745   4.997  19.349  0.00  0.00    +0.000 OA
BRANCH   3   6
ATOM      6  N   UNL     1       6.869   4.142  16.970  0.00  0.00    +0.000 NA
ATOM      7  H   UNL     1       6.902   3.268  17.487  0.00  0.00    +0.000 HD
BRANCH   6   8
ATOM      8  C   UNL     1       5.798   4.025  15.932  0.00  0.00    +0.000 C 
BRANCH   8   9
ATOM      9  C   UNL     1       6.269   4.230  14.512  0.00  0.00    +0.000 A 
ATOM     10  C   UNL     1       7.341   5.095  14.235  0.00  0.00    +0.000 A 
ATOM     11  C   UNL     1       7.864   5.192  12.943  0.00  0.00    +0.000 A 
ATOM     12  C   UNL     1       7.320   4.429  11.912  0.00  0.00    +0.000 A 
ATOM     13  C   UNL     1       6.249   3.574  12.173  0.00  0.00    +0.000 A 
ATOM     14  C   UNL     1       5.723   3.477  13.463  0.00  0.00    +0.000 A 
ENDBRANCH   8   9
ENDBRANCH   6   8
ENDBRANCH   3   6
ENDBRANCH   1   3
BRANCH   1  15
ATOM     15  C   UNL     1       3.782   5.328  18.582  0.00  0.00    +0.000 C 
BRANCH  15  16
ATOM     16  C   UNL     1       3.306   3.912  18.384  0.00  0.00    +0.000 A 
ATOM     17  C   UNL     1       2.469   3.456  17.374  0.00  0.00    +0.000 A 
ATOM     18  C   UNL     1       2.373   2.072  17.545  0.00  0.00    +0.000 A 
ATOM     19  N   UNL     1       3.106   1.646  18.567  0.00  0.00    +0.000 NA
ATOM     20  N   UNL     1       3.656   2.769  19.078  0.00  0.00    +0.000 N 
ATOM     21  C   UNL     1       4.534   2.589  20.209  0.00  0.00    +0.000 C 
ENDBRANCH  15  16
BRANCH  15  22
ATOM     22  C   UNL     1       2.785   6.485  18.652  0.00  0.00    +0.000 C 
BRANCH  22  24
ATOM     23  C   UNL     1       1.853   5.629  20.650  0.00  0.00    +0.000 C 
ATOM     24  O   UNL     1       2.452   6.751  20.018  0.00  0.00    +0.000 OA
ENDBRANCH  22  24
ENDBRANCH  15  22
ENDBRANCH   1  15
TORSDOF 8
ENDMDL
MODEL 6
REMARK VINA RESULT:      -6.7      1.267      1.654
REMARK  Name = 
REMARK  10 active torsions:
REMARK  status: ('A' for Active; 'I' for Inactive)
REMARK    1  A    between atoms: C_1  and  O_2
REMARK    2  A    between atoms: O_2  and  C_3
REMARK    3  A    between atoms: C_3  and  C_4
REMARK    4  A    between atoms: C_4  and  N_5
REMARK    5  A    between atoms: C_4  and  C_17
REMARK    6  A    between atoms: N_5  and  S_6
REMARK    7  A    between atoms: S_6  and  N_9
REMARK    8  A    between atoms: N_9  and  C_10
REMARK    9  A    between atoms: C_10  and  C_11
REMARK   10  A    between atoms: N_21  and  C_22
REMARK                            x       y       z     vdW  Elec       q    Type
REMARK                         _______ _______ _______ _____ _____    ______ ____
ROOT
ATOM      1  N   UNL     1       4.969   6.027  17.737  0.00  0.00    +0.000 NA
ATOM      2  H   UNL     1       4.561   6.061  16.805  0.00  0.00    +0.000 HD
ENDROOT
BRANCH   1   3
ATOM      3  S   UNL     1       6.606   6.028  17.746  0.00  0.00    +0.000 S 
ATOM      4  O   UNL     1       6.980   7.133  16.889  0.00  0.00    +0.000 OA
ATOM      5  O   UNL     1       7.129   5.883  19.073  0.00  0.00    +0.000 OA
BRANCH   3   6
ATOM      6  N   UNL     1       6.976   4.627  16.881  0.00  0.00    +0.000 NA
ATOM      7  H   UNL     1       7.064   3.834  17.509  0.00  0.00    +0.000 HD
BRANCH   6   8
ATOM      8  C   UNL     1       5.869   4.335  15.918  0.00  0.00    +0.000 C 
BRANCH   8   9
ATOM      9  C   UNL     1       6.270   4.369  14.463  0.00  0.00    +0.000 A 
ATOM     10  C   UNL     1       7.370   5.138  14.046  0.00  0.00    +0.000 A 
ATOM     11  C   UNL     1       7.826   5.074  12.726  0.00  0.00    +0.000 A 
ATOM     12  C   UNL     1       7.186   4.245  11.808  0.00  0.00    +0.000 A 
ATOM     13  C   UNL     1       6.087   3.485  12.208  0.00  0.00    +0.000 A 
ATOM     14  C   UNL     1       5.629   3.549  13.526  0.00  0.00    +0.000 A 
ENDBRANCH   8   9
ENDBRANCH   6   8
ENDBRANCH   3   6
ENDBRANCH   1   3
BRANCH   1  15
ATOM     15  C   UNL     1       4.063   5.664  18.826  0.00  0.00    +0.000 C 
BRANCH  15  16
ATOM     16  C   UNL     1       3.775   4.186  18.870  0.00  0.00    +0.000 A 
ATOM     17  C   UNL     1       4.562   3.208  19.466  0.00  0.00    +0.000 A 
ATOM     18  C   UNL     1       3.860   2.007  19.328  0.00  0.00    +0.000 A 
ATOM     19  N   UNL     1       2.694   2.181  18.716  0.00  0.00    +0.000 NA
ATOM     20  N   UNL     1       2.658   3.502  18.430  0.00  0.00    +0.000 N 
ATOM     21  C   UNL     1       1.467   3.976  17.767  0.00  0.00    +0.000 C 
ENDBRANCH  15  16
BRANCH  15  22
ATOM     22  C   UNL     1       2.933   6.685  18.955  0.00  0.00    +0.000 C 
BRANCH  22  24
ATOM     23  C   UNL     1       2.213   8.740  18.033  0.00  0.00    +0.000 C 
ATOM     24  O   UNL     1       2.913   7.527  17.798  0.00  0.00    +0.000 OA
ENDBRANCH  22  24
ENDBRANCH  15  22
ENDBRANCH   1  15
TORSDOF 8
ENDMDL
MODEL 7
REMARK VINA RESULT:      -6.7      0.906      1.593
REMARK  Name = 
REMARK  10 active torsions:
REMARK  status: ('A' for Active; 'I' for Inactive)
REMARK    1  A    between atoms: C_1  and  O_2
REMARK    2  A    between atoms: O_2  and  C_3
REMARK    3  A    between atoms: C_3  and  C_4
REMARK    4  A    between atoms: C_4  and  N_5
REMARK    5  A    between atoms: C_4  and  C_17
REMARK    6  A    between atoms: N_5  and  S_6
REMARK    7  A    between atoms: S_6  and  N_9
REMARK    8  A    between atoms: N_9  and  C_10
REMARK    9  A    between atoms: C_10  and  C_11
REMARK   10  A    between atoms: N_21  and  C_22
REMARK                            x       y       z     vdW  Elec       q    Type
REMARK                         _______ _______ _______ _____ _____    ______ ____
ROOT
ATOM      1  N   UNL     1       4.383   5.498  18.078  0.00  0.00    +0.000 NA
ATOM      2  H   UNL     1       4.390   5.748  17.092  0.00  0.00    +0.000 HD
ENDROOT
BRANCH   1   3
ATOM      3  S   UNL     1       5.701   4.656  18.560  0.00  0.00    +0.000 S 
ATOM      4  O   UNL     1       6.650   5.663  18.984  0.00  0.00    +0.000 OA
ATOM      5  O   UNL     1       5.345   3.546  19.396  0.00  0.00    +0.000 OA
BRANCH   3   6
ATOM      6  N   UNL     1       6.296   4.044  17.104  0.00  0.00    +0.000 NA
ATOM      7  H   UNL     1       6.175   3.037  17.065  0.00  0.00    +0.000 HD
BRANCH   6   8
ATOM      8  C   UNL     1       5.531   4.647  15.968  0.00  0.00    +0.000 C 
BRANCH   8   9
ATOM      9  C   UNL     1       6.136   4.416  14.604  0.00  0.00    +0.000 A 
ATOM     10  C   UNL     1       5.501   3.573  13.676  0.00  0.00    +0.000 A 
ATOM     11  C   UNL     1       5.985   3.455  12.371  0.00  0.00    +0.000 A 
ATOM     12  C   UNL     1       7.111   4.174  11.978  0.00  0.00    +0.000 A 
ATOM     13  C   UNL     1       7.757   5.006  12.893  0.00  0.00    +0.000 A 
ATOM     14  C   UNL     1       7.275   5.124  14.200  0.00  0.00    +0.000 A 
ENDBRANCH   8   9
ENDBRANCH   6   8
ENDBRANCH   3   6
ENDBRANCH   1   3
BRANCH   1  15
ATOM     15  C   UNL     1       3.104   5.641  18.772  0.00  0.00    +0.000 C 
BRANCH  15  16
ATOM     16  C   UNL     1       2.368   4.334  18.905  0.00  0.00    +0.000 A 
ATOM     17  C   UNL     1       1.959   3.507  17.866  0.00  0.00    +0.000 A 
ATOM     18  C   UNL     1       1.395   2.378  18.467  0.00  0.00    +0.000 A 
ATOM     19  N   UNL     1       1.450   2.441  19.792  0.00  0.00    +0.000 NA
ATOM     20  N   UNL     1       2.028   3.636  20.048  0.00  0.00    +0.000 N 
ATOM     21  C   UNL     1       2.230   3.959  21.440  0.00  0.00    +0.000 C 
ENDBRANCH  15  16
BRANCH  15  22
ATOM     22  C   UNL     1       2.376   6.905  18.312  0.00  0.00    +0.000 C 
BRANCH  22  24
ATOM     23  C   UNL     1       1.682   7.531  20.484  0.00  0.00    +0.000 C 
ATOM     24  O   UNL     1       2.441   7.897  19.341  0.00  0.00    +0.000 OA
ENDBRANCH  22  24
ENDBRANCH  15  22
ENDBRANCH   1  15
TORSDOF 8
ENDMDL
MODEL 8
REMARK VINA RESULT:      -6.6      0.802      1.581
REMARK  Name = 
REMARK  10 active torsions:
REMARK  status: ('A' for Active; 'I' for Inactive)
REMARK    1  A    between atoms: C_1  and  O_2
REMARK    2  A    between atoms: O_2  and  C_3
REMARK    3  A    between atoms: C_3  and  C_4
REMARK    4  A    between atoms: C_4  and  N_5
REMARK    5  A    between atoms: C_4  and  C_17
REMARK    6  A    between atoms: N_5  and  S_6
REMARK    7  A    between atoms: S_6  and  N_9
REMARK    8  A    between atoms: N_9  and  C_10
REMARK    9  A    between atoms: C_10  and  C_11
REMARK   10  A    between atoms: N_21  and  C_22
REMARK                            x       y       z     vdW  Elec       q    Type
REMARK                         _______ _______ _______ _____ _____    ______ ____
ROOT
ATOM      1  N   UNL     1       4.635   5.935  18.112  0.00  0.00    +0.000 NA
ATOM      2  H   UNL     1       4.554   6.404  17.213  0.00  0.00    +0.000 HD
ENDROOT
BRANCH   1   3
ATOM      3  S   UNL     1       6.120   5.311  18.405  0.00  0.00    +0.000 S 
ATOM      4  O   UNL     1       7.022   6.440  18.312  0.00  0.00    +0.000 OA
ATOM      5  O   UNL     1       6.112   4.434  19.540  0.00  0.00    +0.000 OA
BRANCH   3   6
ATOM      6  N   UNL     1       6.402   4.380  17.026  0.00  0.00    +0.000 NA
ATOM      7  H   UNL     1       5.524   4.066  16.623  0.00  0.00    +0.000 HD
BRANCH   6   8
ATOM      8  C   UNL     1       7.109   5.213  16.005  0.00  0.00    +0.000 C 
BRANCH   8   9
ATOM      9  C   UNL     1       6.991   4.710  14.586  0.00  0.00    +0.000 A 
ATOM     10  C   UNL     1       6.023   3.749  14.249  0.00  0.00    +0.000 A 
ATOM     11  C   UNL     1       5.823   3.374  12.918  0.00  0.00    +0.000 A 
ATOM     12  C   UNL     1       6.589   3.952  11.909  0.00  0.00    +0.000 A 
ATOM     13  C   UNL     1       7.560   4.900  12.232  0.00  0.00    +0.000 A 
ATOM     14  C   UNL     1       7.763   5.275  13.562  0.00  0.00    +0.000 A 
ENDBRANCH   8   9
ENDBRANCH   6   8
ENDBRANCH   3   6
ENDBRANCH   1   3
BRANCH   1  15
ATOM     15  C   UNL     1       3.380   5.632  18.799  0.00  0.00    +0.000 C 
BRANCH  15  16
ATOM     16  C   UNL     1       2.936   4.208  18.589  0.00  0.00    +0.000 A 
ATOM     17  C   UNL     1       2.855   3.538  17.375  0.00  0.00    +0.000 A 
ATOM     18  C   UNL     1       2.478   2.226  17.680  0.00  0.00    +0.000 A 
ATOM     19  N   UNL     1       2.346   2.038  18.988  0.00  0.00    +0.000 NA
ATOM     20  N   UNL     1       2.612   3.248  19.529  0.00  0.00    +0.000 N 
ATOM     21  C   UNL     1       2.558   3.324  20.969  0.00  0.00    +0.000 C 
ENDBRANCH  15  16
BRANCH  15  22
ATOM     22  C   UNL     1       2.391   6.788  18.656  0.00  0.00    +0.000 C 
BRANCH  22  24
ATOM     23  C   UNL     1       2.173   9.000  17.851  0.00  0.00    +0.000 C 
ATOM     24  O   UNL     1       3.071   7.942  18.153  0.00  0.00    +0.000 OA
ENDBRANCH  22  24
ENDBRANCH  15  22
ENDBRANCH   1  15
TORSDOF 8
ENDMDL
MODEL 9
REMARK VINA RESULT:      -6.5      1.740      3.087
REMARK  Name = 
REMARK  10 active torsions:
REMARK  status: ('A' for Active; 'I' for Inactive)
REMARK    1  A    between atoms: C_1  and  O_2
REMARK    2  A    between atoms: O_2  and  C_3
REMARK    3  A    between atoms: C_3  and  C_4
REMARK    4  A    between atoms: C_4  and  N_5
REMARK    5  A    between atoms: C_4  and  C_17
REMARK    6  A    between atoms: N_5  and  S_6
REMARK    7  A    between atoms: S_6  and  N_9
REMARK    8  A    between atoms: N_9  and  C_10
REMARK    9  A    between atoms: C_10  and  C_11
REMARK   10  A    between atoms: N_21  and  C_22
REMARK                            x       y       z     vdW  Elec       q    Type
REMARK                         _______ _______ _______ _____ _____    ______ ____
ROOT
ATOM      1  N   UNL     1       4.106   5.289  17.165  0.00  0.00    +0.000 NA
ATOM      2  H   UNL     1       4.165   5.226  16.152  0.00  0.00    +0.000 HD
ENDROOT
BRANCH   1   3
ATOM      3  S   UNL     1       5.559   5.382  17.912  0.00  0.00    +0.000 S 
ATOM      4  O   UNL     1       6.062   6.699  17.582  0.00  0.00    +0.000 OA
ATOM      5  O   UNL     1       5.492   4.908  19.264  0.00  0.00    +0.000 OA
BRANCH   3   6
ATOM      6  N   UNL     1       6.495   4.294  17.023  0.00  0.00    +0.000 NA
ATOM      7  H   UNL     1       6.774   3.509  17.602  0.00  0.00    +0.000 HD
BRANCH   6   8
ATOM      8  C   UNL     1       5.685   3.764  15.883  0.00  0.00    +0.000 C 
BRANCH   8   9
ATOM      9  C   UNL     1       6.218   4.108  14.513  0.00  0.00    +0.000 A 
ATOM     10  C   UNL     1       7.259   5.041  14.368  0.00  0.00    +0.000 A 
ATOM     11  C   UNL     1       7.844   5.269  13.120  0.00  0.00    +0.000 A 
ATOM     12  C   UNL     1       7.395   4.571  12.002  0.00  0.00    +0.000 A 
ATOM     13  C   UNL     1       6.355   3.650  12.131  0.00  0.00    +0.000 A 
ATOM     14  C   UNL     1       5.767   3.422  13.378  0.00  0.00    +0.000 A 
ENDBRANCH   8   9
ENDBRANCH   6   8
ENDBRANCH   3   6
ENDBRANCH   1   3
BRANCH   1  15
ATOM     15  C   UNL     1       2.808   4.966  17.758  0.00  0.00    +0.000 C 
BRANCH  15  16
ATOM     16  C   UNL     1       2.401   5.945  18.828  0.00  0.00    +0.000 A 
ATOM     17  C   UNL     1       2.107   5.647  20.152  0.00  0.00    +0.000 A 
ATOM     18  C   UNL     1       1.864   6.872  20.781  0.00  0.00    +0.000 A 
ATOM     19  N   UNL     1       2.010   7.896  19.948  0.00  0.00    +0.000 NA
ATOM     20  N   UNL     1       2.321   7.323  18.764  0.00  0.00    +0.000 N 
ATOM     21  C   UNL     1       2.558   8.227  17.664  0.00  0.00    +0.000 C 
ENDBRANCH  15  16
BRANCH  15  22
ATOM     22  C   UNL     1       2.677   3.460  17.986  0.00  0.00    +0.000 C 
BRANCH  22  24
ATOM     23  C   UNL     1       0.801   2.342  18.893  0.00  0.00    +0.000 C 
ATOM     24  O   UNL     1       1.318   3.060  17.782  0.00  0.00    +0.000 OA
ENDBRANCH  22  24
ENDBRANCH  15  22
ENDBRANCH   1  15
TORSDOF 8
ENDMDL
