MODEL 1
REMARK VINA RESULT:      -9.0      0.000      0.000
REMARK  Name = 
REMARK  11 active torsions:
REMARK  status: ('A' for Active; 'I' for Inactive)
REMARK    1  A    between atoms: C_1  and  C_2
REMARK    2  A    between atoms: C_6  and  C_7
REMARK    3  A    between atoms: C_8  and  C_9
REMARK    4  A    between atoms: C_11  and  C_12
REMARK    5  A    between atoms: N_16  and  C_17
REMARK    6  A    between atoms: C_21  and  O_22
REMARK    7  A    between atoms: O_22  and  C_23
REMARK    8  A    between atoms: C_23  and  C_24
REMARK    9  A    between atoms: C_24  and  C_25
REMARK   10  A    between atoms: C_25  and  N_26
REMARK   11  A    between atoms: N_29  and  C_30
REMARK                            x       y       z     vdW  Elec       q    Type
REMARK                         _______ _______ _______ _____ _____    ______ ____
ROOT
ATOM      1  C   UNL     1      -2.029  13.016  21.436  0.00  0.00    +0.000 A 
ATOM      2  C   UNL     1      -1.800  12.517  20.145  0.00  0.00    +0.000 A 
ATOM      3  C   UNL     1      -1.129  11.309  19.910  0.00  0.00    +0.000 A 
ATOM      4  C   UNL     1      -1.129  10.696  18.536  0.00  0.00    +0.000 C 
ATOM      5  C   UNL     1      -0.483  10.660  20.960  0.00  0.00    +0.000 A 
ATOM      6  N   UNL     1       0.255   9.575  20.709  0.00  0.00    +0.000 NA
ATOM      7  C   UNL     1       0.897   8.992  21.727  0.00  0.00    +0.000 A 
ATOM      8  N   UNL     1       1.668   7.853  21.498  0.00  0.00    +0.000 N 
ATOM      9  N   UNL     1       0.790   9.448  22.988  0.00  0.00    +0.000 NA
ATOM     10  N   UNL     1       0.008  10.540  23.255  0.00  0.00    +0.000 NA
ATOM     11  C   UNL     1      -0.632  11.159  22.252  0.00  0.00    +0.000 A 
ATOM     12  C   UNL     1      -1.446  12.269  22.474  0.00  0.00    +0.000 A 
ATOM     13  H   UNL     1       1.935   7.408  22.364  0.00  0.00    +0.000 HD
ENDROOT
BRANCH   1  21
ATOM     14  C   UNL     1      -0.830  15.859  21.474  0.00  0.00    +0.000 C 
ATOM     15  C   UNL     1      -2.290  15.555  21.720  0.00  0.00    +0.000 A 
ATOM     16  C   UNL     1      -3.092  16.682  22.002  0.00  0.00    +0.000 A 
ATOM     17  C   UNL     1      -4.456  16.568  22.202  0.00  0.00    +0.000 A 
ATOM     18  C   UNL     1      -5.044  15.316  22.142  0.00  0.00    +0.000 A 
ATOM     19  C   UNL     1      -4.278  14.154  21.914  0.00  0.00    +0.000 A 
ATOM     20  C   UNL     1      -5.076  12.870  21.917  0.00  0.00    +0.000 C 
ATOM     21  C   UNL     1      -2.864  14.242  21.687  0.00  0.00    +0.000 A 
ENDBRANCH   1  21
BRANCH   8  22
ATOM     22  C   UNL     1       1.961   7.193  20.296  0.00  0.00    +0.000 A 
ATOM     23  C   UNL     1       2.164   7.872  19.087  0.00  0.00    +0.000 A 
ATOM     24  C   UNL     1       2.370   7.183  17.891  0.00  0.00    +0.000 A 
ATOM     25  C   UNL     1       2.343   5.794  17.882  0.00  0.00    +0.000 A 
ATOM     26  C   UNL     1       2.105   5.095  19.065  0.00  0.00    +0.000 A 
ATOM     27  C   UNL     1       1.950   5.792  20.268  0.00  0.00    +0.000 A 
BRANCH  26  28
ATOM     28  O   UNL     1       2.035   3.734  18.937  0.00  0.00    +0.000 OA
BRANCH  28  29
ATOM     29  C   UNL     1       2.893   3.160  17.949  0.00  0.00    +0.000 C 
BRANCH  29  30
ATOM     30  C   UNL     1       4.102   2.541  18.642  0.00  0.00    +0.000 C 
BRANCH  30  31
ATOM     31  C   UNL     1       4.899   3.566  19.455  0.00  0.00    +0.000 C 
BRANCH  31  32
ATOM     32  N   UNL     1       6.086   4.089  18.749  0.00  0.00    +0.000 NA
ATOM     33  C   UNL     1       6.569   5.311  19.427  0.00  0.00    +0.000 C 
ATOM     34  C   UNL     1       7.761   5.977  18.701  0.00  0.00    +0.000 C 
ATOM     35  N   UNL     1       7.529   6.280  17.275  0.00  0.00    +0.000 NA
ATOM     36  C   UNL     1       6.626   7.417  17.102  0.00  0.00    +0.000 C 
ATOM     37  C   UNL     1       7.011   5.070  16.611  0.00  0.00    +0.000 C 
ATOM     38  C   UNL     1       5.821   4.383  17.326  0.00  0.00    +0.000 C 
ENDBRANCH  31  32
ENDBRANCH  30  31
ENDBRANCH  29  30
ENDBRANCH  28  29
ENDBRANCH  26  28
ENDBRANCH   8  22
TORSDOF 7
ENDMDL
MODEL 2
REMARK VINA RESULT:      -9.0      3.486      5.728
REMARK  Name = 
REMARK  11 active torsions:
REMARK  status: ('A' for Active; 'I' for Inactive)
REMARK    1  A    between atoms: C_1  and  C_2
REMARK    2  A    between atoms: C_6  and  C_7
REMARK    3  A    between atoms: C_8  and  C_9
REMARK    4  A    between atoms: C_11  and  C_12
REMARK    5  A    between atoms: N_16  and  C_17
REMARK    6  A    between atoms: C_21  and  O_22
REMARK    7  A    between atoms: O_22  and  C_23
REMARK    8  A    between atoms: C_23  and  C_24
REMARK    9  A    between atoms: C_24  and  C_25
REMARK   10  A    between atoms: C_25  and  N_26
REMARK   11  A    between atoms: N_29  and  C_30
REMARK                            x       y       z     vdW  Elec       q    Type
REMARK                         _______ _______ _______ _____ _____    ______ ____
ROOT
ATOM      1  C   UNL     1       0.267   9.552  20.615  0.00  0.00    +0.000 A 
ATOM      2  C   UNL     1       1.099   9.856  19.528  0.00  0.00    +0.000 A 
ATOM      3  C   UNL     1       1.901   8.894  18.898  0.00  0.00    +0.000 A 
ATOM      4  C   UNL     1       2.580   9.208  17.593  0.00  0.00    +0.000 C 
ATOM      5  C   UNL     1       2.049   7.633  19.472  0.00  0.00    +0.000 A 
ATOM      6  N   UNL     1       2.908   6.762  18.935  0.00  0.00    +0.000 NA
ATOM      7  C   UNL     1       3.062   5.572  19.525  0.00  0.00    +0.000 A 
ATOM      8  N   UNL     1       3.944   4.639  18.982  0.00  0.00    +0.000 N 
ATOM      9  N   UNL     1       2.353   5.224  20.615  0.00  0.00    +0.000 NA
ATOM     10  N   UNL     1       1.448   6.102  21.149  0.00  0.00    +0.000 NA
ATOM     11  C   UNL     1       1.287   7.311  20.592  0.00  0.00    +0.000 A 
ATOM     12  C   UNL     1       0.372   8.235  21.094  0.00  0.00    +0.000 A 
ATOM     13  H   UNL     1       3.823   3.729  19.403  0.00  0.00    +0.000 HD
ENDROOT
BRANCH   1  21
ATOM     14  C   UNL     1      -1.346  11.519  18.867  0.00  0.00    +0.000 C 
ATOM     15  C   UNL     1      -1.419  11.475  20.376  0.00  0.00    +0.000 A 
ATOM     16  C   UNL     1      -2.277  12.434  20.957  0.00  0.00    +0.000 A 
ATOM     17  C   UNL     1      -2.484  12.486  22.324  0.00  0.00    +0.000 A 
ATOM     18  C   UNL     1      -1.820  11.588  23.142  0.00  0.00    +0.000 A 
ATOM     19  C   UNL     1      -0.914  10.645  22.614  0.00  0.00    +0.000 A 
ATOM     20  C   UNL     1      -0.251   9.768  23.652  0.00  0.00    +0.000 C 
ATOM     21  C   UNL     1      -0.690  10.555  21.199  0.00  0.00    +0.000 A 
ENDBRANCH   1  21
BRANCH   8  22
ATOM     22  C   UNL     1       4.806   4.750  17.883  0.00  0.00    +0.000 A 
ATOM     23  C   UNL     1       4.807   3.833  16.823  0.00  0.00    +0.000 A 
ATOM     24  C   UNL     1       5.734   3.922  15.784  0.00  0.00    +0.000 A 
ATOM     25  C   UNL     1       6.701   4.921  15.807  0.00  0.00    +0.000 A 
ATOM     26  C   UNL     1       6.745   5.823  16.869  0.00  0.00    +0.000 A 
ATOM     27  C   UNL     1       5.781   5.757  17.881  0.00  0.00    +0.000 A 
BRANCH  26  28
ATOM     28  O   UNL     1       7.772   6.725  16.829  0.00  0.00    +0.000 OA
BRANCH  28  29
ATOM     29  C   UNL     1       7.430   8.070  17.172  0.00  0.00    +0.000 C 
BRANCH  29  30
ATOM     30  C   UNL     1       8.410   8.575  18.226  0.00  0.00    +0.000 C 
BRANCH  30  31
ATOM     31  C   UNL     1       8.541  10.102  18.218  0.00  0.00    +0.000 C 
BRANCH  31  32
ATOM     32  N   UNL     1       9.809  10.591  18.793  0.00  0.00    +0.000 NA
ATOM     33  C   UNL     1       9.536  11.325  20.048  0.00  0.00    +0.000 C 
ATOM     34  C   UNL     1      10.804  11.950  20.674  0.00  0.00    +0.000 C 
ATOM     35  N   UNL     1      11.580  12.821  19.770  0.00  0.00    +0.000 NA
ATOM     36  C   UNL     1      10.909  14.100  19.542  0.00  0.00    +0.000 C 
ATOM     37  C   UNL     1      11.817  12.099  18.506  0.00  0.00    +0.000 C 
ATOM     38  C   UNL     1      10.561  11.460  17.864  0.00  0.00    +0.000 C 
ENDBRANCH  31  32
ENDBRANCH  30  31
ENDBRANCH  29  30
ENDBRANCH  28  29
ENDBRANCH  26  28
ENDBRANCH   8  22
TORSDOF 7
ENDMDL
MODEL 3
REMARK VINA RESULT:      -8.9      3.530      5.671
REMARK  Name = 
REMARK  11 active torsions:
REMARK  status: ('A' for Active; 'I' for Inactive)
REMARK    1  A    between atoms: C_1  and  C_2
REMARK    2  A    between atoms: C_6  and  C_7
REMARK    3  A    between atoms: C_8  and  C_9
REMARK    4  A    between atoms: C_11  and  C_12
REMARK    5  A    between atoms: N_16  and  C_17
REMARK    6  A    between atoms: C_21  and  O_22
REMARK    7  A    between atoms: O_22  and  C_23
REMARK    8  A    between atoms: C_23  and  C_24
REMARK    9  A    between atoms: C_24  and  C_25
REMARK   10  A    between atoms: C_25  and  N_26
REMARK   11  A    between atoms: N_29  and  C_30
REMARK                            x       y       z     vdW  Elec       q    Type
REMARK                         _______ _______ _______ _____ _____    ______ ____
ROOT
ATOM      1  C   UNL     1       0.112   9.902  20.531  0.00  0.00    +0.000 A 
ATOM      2  C   UNL     1       0.931  10.205  19.434  0.00  0.00    +0.000 A 
ATOM      3  C   UNL     1       1.733   9.245  18.802  0.00  0.00    +0.000 A 
ATOM      4  C   UNL     1       2.396   9.556  17.487  0.00  0.00    +0.000 C 
ATOM      5  C   UNL     1       1.896   7.989  19.381  0.00  0.00    +0.000 A 
ATOM      6  N   UNL     1       2.755   7.120  18.840  0.00  0.00    +0.000 NA
ATOM      7  C   UNL     1       2.923   5.934  19.436  0.00  0.00    +0.000 A 
ATOM      8  N   UNL     1       3.806   5.004  18.889  0.00  0.00    +0.000 N 
ATOM      9  N   UNL     1       2.228   5.588  20.535  0.00  0.00    +0.000 NA
ATOM     10  N   UNL     1       1.322   6.463  21.074  0.00  0.00    +0.000 NA
ATOM     11  C   UNL     1       1.148   7.668  20.511  0.00  0.00    +0.000 A 
ATOM     12  C   UNL     1       0.232   8.588  21.017  0.00  0.00    +0.000 A 
ATOM     13  H   UNL     1       3.696   4.096  19.317  0.00  0.00    +0.000 HD
ENDROOT
BRANCH   1  21
ATOM     14  C   UNL     1      -0.488  10.041  23.555  0.00  0.00    +0.000 C 
ATOM     15  C   UNL     1      -1.129  10.942  22.525  0.00  0.00    +0.000 A 
ATOM     16  C   UNL     1      -2.065  11.863  23.042  0.00  0.00    +0.000 A 
ATOM     17  C   UNL     1      -2.698  12.786  22.229  0.00  0.00    +0.000 A 
ATOM     18  C   UNL     1      -2.419  12.794  20.873  0.00  0.00    +0.000 A 
ATOM     19  C   UNL     1      -1.530  11.861  20.301  0.00  0.00    +0.000 A 
ATOM     20  C   UNL     1      -1.370  11.988  18.802  0.00  0.00    +0.000 C 
ATOM     21  C   UNL     1      -0.845  10.902  21.120  0.00  0.00    +0.000 A 
ENDBRANCH   1  21
BRANCH   8  22
ATOM     22  C   UNL     1       4.656   5.115  17.780  0.00  0.00    +0.000 A 
ATOM     23  C   UNL     1       4.568   4.266  16.669  0.00  0.00    +0.000 A 
ATOM     24  C   UNL     1       5.481   4.347  15.617  0.00  0.00    +0.000 A 
ATOM     25  C   UNL     1       6.523   5.264  15.678  0.00  0.00    +0.000 A 
ATOM     26  C   UNL     1       6.655   6.094  16.791  0.00  0.00    +0.000 A 
ATOM     27  C   UNL     1       5.706   6.042  17.817  0.00  0.00    +0.000 A 
BRANCH  26  28
ATOM     28  O   UNL     1       7.750   6.916  16.782  0.00  0.00    +0.000 OA
BRANCH  28  29
ATOM     29  C   UNL     1       8.006   7.621  17.998  0.00  0.00    +0.000 C 
BRANCH  29  30
ATOM     30  C   UNL     1       8.024   9.117  17.708  0.00  0.00    +0.000 C 
BRANCH  30  31
ATOM     31  C   UNL     1       8.866   9.900  18.721  0.00  0.00    +0.000 C 
BRANCH  31  32
ATOM     32  N   UNL     1       9.643  11.002  18.121  0.00  0.00    +0.000 NA
ATOM     33  C   UNL     1      10.931  11.148  18.832  0.00  0.00    +0.000 C 
ATOM     34  C   UNL     1      11.773  12.341  18.325  0.00  0.00    +0.000 C 
ATOM     35  N   UNL     1      11.075  13.642  18.328  0.00  0.00    +0.000 NA
ATOM     36  C   UNL     1      10.916  14.168  19.682  0.00  0.00    +0.000 C 
ATOM     37  C   UNL     1       9.775  13.482  17.651  0.00  0.00    +0.000 C 
ATOM     38  C   UNL     1       8.917  12.289  18.140  0.00  0.00    +0.000 C 
ENDBRANCH  31  32
ENDBRANCH  30  31
ENDBRANCH  29  30
ENDBRANCH  28  29
ENDBRANCH  26  28
ENDBRANCH   8  22
TORSDOF 7
ENDMDL
MODEL 4
REMARK VINA RESULT:      -8.8      0.539      1.546
REMARK  Name = 
REMARK  11 active torsions:
REMARK  status: ('A' for Active; 'I' for Inactive)
REMARK    1  A    between atoms: C_1  and  C_2
REMARK    2  A    between atoms: C_6  and  C_7
REMARK    3  A    between atoms: C_8  and  C_9
REMARK    4  A    between atoms: C_11  and  C_12
REMARK    5  A    between atoms: N_16  and  C_17
REMARK    6  A    between atoms: C_21  and  O_22
REMARK    7  A    between atoms: O_22  and  C_23
REMARK    8  A    between atoms: C_23  and  C_24
REMARK    9  A    between atoms: C_24  and  C_25
REMARK   10  A    between atoms: C_25  and  N_26
REMARK   11  A    between atoms: N_29  and  C_30
REMARK                            x       y       z     vdW  Elec       q    Type
REMARK                         _______ _______ _______ _____ _____    ______ ____
ROOT
ATOM      1  C   UNL     1      -2.077  13.348  20.986  0.00  0.00    +0.000 A 
ATOM      2  C   UNL     1      -1.786  12.787  19.734  0.00  0.00    +0.000 A 
ATOM      3  C   UNL     1      -1.122  11.561  19.591  0.00  0.00    +0.000 A 
ATOM      4  C   UNL     1      -1.055  10.886  18.248  0.00  0.00    +0.000 C 
ATOM      5  C   UNL     1      -0.545  10.952  20.703  0.00  0.00    +0.000 A 
ATOM      6  N   UNL     1       0.188   9.847  20.543  0.00  0.00    +0.000 NA
ATOM      7  C   UNL     1       0.764   9.303  21.620  0.00  0.00    +0.000 A 
ATOM      8  N   UNL     1       1.529   8.144  21.485  0.00  0.00    +0.000 N 
ATOM      9  N   UNL     1       0.595   9.817  22.852  0.00  0.00    +0.000 NA
ATOM     10  N   UNL     1      -0.184  10.930  23.025  0.00  0.00    +0.000 NA
ATOM     11  C   UNL     1      -0.757  11.512  21.961  0.00  0.00    +0.000 A 
ATOM     12  C   UNL     1      -1.564  12.641  22.087  0.00  0.00    +0.000 A 
ATOM     13  H   UNL     1       1.741   7.735  22.384  0.00  0.00    +0.000 HD
ENDROOT
BRANCH   1  21
ATOM     14  C   UNL     1      -5.139  13.268  21.360  0.00  0.00    +0.000 C 
ATOM     15  C   UNL     1      -4.330  14.543  21.289  0.00  0.00    +0.000 A 
ATOM     16  C   UNL     1      -5.086  15.731  21.383  0.00  0.00    +0.000 A 
ATOM     17  C   UNL     1      -4.481  16.975  21.383  0.00  0.00    +0.000 A 
ATOM     18  C   UNL     1      -3.104  17.056  21.269  0.00  0.00    +0.000 A 
ATOM     19  C   UNL     1      -2.310  15.900  21.122  0.00  0.00    +0.000 A 
ATOM     20  C   UNL     1      -0.830  16.173  20.974  0.00  0.00    +0.000 C 
ATOM     21  C   UNL     1      -2.906  14.594  21.135  0.00  0.00    +0.000 A 
ENDBRANCH   1  21
BRANCH   8  22
ATOM     22  C   UNL     1       1.877   7.426  20.333  0.00  0.00    +0.000 A 
ATOM     23  C   UNL     1       2.131   8.045  19.101  0.00  0.00    +0.000 A 
ATOM     24  C   UNL     1       2.393   7.298  17.952  0.00  0.00    +0.000 A 
ATOM     25  C   UNL     1       2.371   5.910  18.012  0.00  0.00    +0.000 A 
ATOM     26  C   UNL     1       2.083   5.270  19.217  0.00  0.00    +0.000 A 
ATOM     27  C   UNL     1       1.872   6.026  20.375  0.00  0.00    +0.000 A 
BRANCH  26  28
ATOM     28  O   UNL     1       2.024   3.904  19.155  0.00  0.00    +0.000 OA
BRANCH  28  29
ATOM     29  C   UNL     1       2.241   3.333  17.863  0.00  0.00    +0.000 C 
BRANCH  29  30
ATOM     30  C   UNL     1       3.610   2.663  17.843  0.00  0.00    +0.000 C 
BRANCH  30  31
ATOM     31  C   UNL     1       4.490   3.093  19.022  0.00  0.00    +0.000 C 
BRANCH  31  32
ATOM     32  N   UNL     1       5.743   3.757  18.615  0.00  0.00    +0.000 NA
ATOM     33  C   UNL     1       5.916   5.009  19.384  0.00  0.00    +0.000 C 
ATOM     34  C   UNL     1       7.163   5.816  18.957  0.00  0.00    +0.000 C 
ATOM     35  N   UNL     1       7.241   6.126  17.516  0.00  0.00    +0.000 NA
ATOM     36  C   UNL     1       6.284   7.161  17.131  0.00  0.00    +0.000 C 
ATOM     37  C   UNL     1       7.031   4.881  16.753  0.00  0.00    +0.000 C 
ATOM     38  C   UNL     1       5.790   4.053  17.168  0.00  0.00    +0.000 C 
ENDBRANCH  31  32
ENDBRANCH  30  31
ENDBRANCH  29  30
ENDBRANCH  28  29
ENDBRANCH  26  28
ENDBRANCH   8  22
TORSDOF 7
ENDMDL
MODEL 5
REMARK VINA RESULT:      -8.8      2.135      3.662
REMARK  Name = 
REMARK  11 active torsions:
REMARK  status: ('A' for Active; 'I' for Inactive)
REMARK    1  A    between atoms: C_1  and  C_2
REMARK    2  A    between atoms: C_6  and  C_7
REMARK    3  A    between atoms: C_8  and  C_9
REMARK    4  A    between atoms: C_11  and  C_12
REMARK    5  A    between atoms: N_16  and  C_17
REMARK    6  A    between atoms: C_21  and  O_22
REMARK    7  A    between atoms: O_22  and  C_23
REMARK    8  A    between atoms: C_23  and  C_24
REMARK    9  A    between atoms: C_24  and  C_25
REMARK   10  A    between atoms: C_25  and  N_26
REMARK   11  A    between atoms: N_29  and  C_30
REMARK                            x       y       z     vdW  Elec       q    Type
REMARK                         _______ _______ _______ _____ _____    ______ ____
ROOT
ATOM      1  C   UNL     1      -2.348  13.939  22.564  0.00  0.00    +0.000 A 
ATOM      2  C   UNL     1      -2.041  12.656  23.039  0.00  0.00    +0.000 A 
ATOM      3  C   UNL     1      -1.188  11.780  22.354  0.00  0.00    +0.000 A 
ATOM      4  C   UNL     1      -0.696  10.524  23.020  0.00  0.00    +0.000 C 
ATOM      5  C   UNL     1      -0.773  12.088  21.061  0.00  0.00    +0.000 A 
ATOM      6  N   UNL     1      -0.060  11.196  20.368  0.00  0.00    +0.000 NA
ATOM      7  C   UNL     1       0.294  11.498  19.114  0.00  0.00    +0.000 A 
ATOM      8  N   UNL     1       1.046  10.590  18.369  0.00  0.00    +0.000 N 
ATOM      9  N   UNL     1      -0.019  12.680  18.554  0.00  0.00    +0.000 NA
ATOM     10  N   UNL     1      -0.722  13.611  19.272  0.00  0.00    +0.000 NA
ATOM     11  C   UNL     1      -1.109  13.328  20.525  0.00  0.00    +0.000 A 
ATOM     12  C   UNL     1      -1.818  14.246  21.298  0.00  0.00    +0.000 A 
ATOM     13  H   UNL     1       1.405  11.013  17.525  0.00  0.00    +0.000 HD
ENDROOT
BRANCH   1  21
ATOM     14  C   UNL     1      -1.049  15.950  24.511  0.00  0.00    +0.000 C 
ATOM     15  C   UNL     1      -2.539  15.838  24.281  0.00  0.00    +0.000 A 
ATOM     16  C   UNL     1      -3.326  16.720  25.054  0.00  0.00    +0.000 A 
ATOM     17  C   UNL     1      -4.702  16.769  24.919  0.00  0.00    +0.000 A 
ATOM     18  C   UNL     1      -5.322  15.919  24.019  0.00  0.00    +0.000 A 
ATOM     19  C   UNL     1      -4.585  14.986  23.261  0.00  0.00    +0.000 A 
ATOM     20  C   UNL     1      -5.424  14.113  22.356  0.00  0.00    +0.000 C 
ATOM     21  C   UNL     1      -3.154  14.922  23.367  0.00  0.00    +0.000 A 
ENDBRANCH   1  21
BRANCH   8  22
ATOM     22  C   UNL     1       1.482   9.299  18.700  0.00  0.00    +0.000 A 
ATOM     23  C   UNL     1       1.296   8.738  19.970  0.00  0.00    +0.000 A 
ATOM     24  C   UNL     1       1.815   7.484  20.295  0.00  0.00    +0.000 A 
ATOM     25  C   UNL     1       2.560   6.782  19.355  0.00  0.00    +0.000 A 
ATOM     26  C   UNL     1       2.792   7.336  18.097  0.00  0.00    +0.000 A 
ATOM     27  C   UNL     1       2.226   8.570  17.762  0.00  0.00    +0.000 A 
BRANCH  26  28
ATOM     28  O   UNL     1       3.590   6.594  17.269  0.00  0.00    +0.000 OA
BRANCH  28  29
ATOM     29  C   UNL     1       4.869   6.236  17.797  0.00  0.00    +0.000 C 
BRANCH  29  30
ATOM     30  C   UNL     1       5.246   4.850  17.284  0.00  0.00    +0.000 C 
BRANCH  30  31
ATOM     31  C   UNL     1       4.019   4.000  16.939  0.00  0.00    +0.000 C 
BRANCH  31  32
ATOM     32  N   UNL     1       3.633   3.056  18.006  0.00  0.00    +0.000 NA
ATOM     33  C   UNL     1       2.184   3.179  18.279  0.00  0.00    +0.000 C 
ATOM     34  C   UNL     1       1.709   2.286  19.448  0.00  0.00    +0.000 C 
ATOM     35  N   UNL     1       2.451   2.466  20.711  0.00  0.00    +0.000 NA
ATOM     36  C   UNL     1       2.106   3.726  21.368  0.00  0.00    +0.000 C 
ATOM     37  C   UNL     1       3.896   2.381  20.427  0.00  0.00    +0.000 C 
ATOM     38  C   UNL     1       4.393   3.264  19.256  0.00  0.00    +0.000 C 
ENDBRANCH  31  32
ENDBRANCH  30  31
ENDBRANCH  29  30
ENDBRANCH  28  29
ENDBRANCH  26  28
ENDBRANCH   8  22
TORSDOF 7
ENDMDL
MODEL 6
REMARK VINA RESULT:      -8.6      3.073     10.102
REMARK  Name = 
REMARK  11 active torsions:
REMARK  status: ('A' for Active; 'I' for Inactive)
REMARK    1  A    between atoms: C_1  and  C_2
REMARK    2  A    between atoms: C_6  and  C_7
REMARK    3  A    between atoms: C_8  and  C_9
REMARK    4  A    between atoms: C_11  and  C_12
REMARK    5  A    between atoms: N_16  and  C_17
REMARK    6  A    between atoms: C_21  and  O_22
REMARK    7  A    between atoms: O_22  and  C_23
REMARK    8  A    between atoms: C_23  and  C_24
REMARK    9  A    between atoms: C_24  and  C_25
REMARK   10  A    between atoms: C_25  and  N_26
REMARK   11  A    between atoms: N_29  and  C_30
REMARK                            x       y       z     vdW  Elec       q    Type
REMARK                         _______ _______ _______ _____ _____    ______ ____
ROOT
ATOM      1  C   UNL     1       2.621   7.000  18.513  0.00  0.00    +0.000 A 
ATOM      2  C   UNL     1       2.187   8.132  17.809  0.00  0.00    +0.000 A 
ATOM      3  C   UNL     1       1.591   9.232  18.439  0.00  0.00    +0.000 A 
ATOM      4  C   UNL     1       1.373  10.515  17.683  0.00  0.00    +0.000 C 
ATOM      5  C   UNL     1       1.224   9.146  19.780  0.00  0.00    +0.000 A 
ATOM      6  N   UNL     1       0.549  10.152  20.344  0.00  0.00    +0.000 NA
ATOM      7  C   UNL     1       0.173  10.030  21.622  0.00  0.00    +0.000 A 
ATOM      8  N   UNL     1      -0.525  11.067  22.240  0.00  0.00    +0.000 N 
ATOM      9  N   UNL     1       0.487   8.945  22.353  0.00  0.00    +0.000 NA
ATOM     10  N   UNL     1       1.208   7.927  21.789  0.00  0.00    +0.000 NA
ATOM     11  C   UNL     1       1.580   8.010  20.503  0.00  0.00    +0.000 A 
ATOM     12  C   UNL     1       2.321   7.004  19.886  0.00  0.00    +0.000 A 
ATOM     13  H   UNL     1      -0.577  10.932  23.239  0.00  0.00    +0.000 HD
ENDROOT
BRANCH   1  21
ATOM     14  C   UNL     1       1.417   4.185  18.120  0.00  0.00    +0.000 C 
ATOM     15  C   UNL     1       2.814   4.574  17.691  0.00  0.00    +0.000 A 
ATOM     16  C   UNL     1       3.566   3.533  17.105  0.00  0.00    +0.000 A 
ATOM     17  C   UNL     1       4.843   3.749  16.619  0.00  0.00    +0.000 A 
ATOM     18  C   UNL     1       5.402   5.010  16.728  0.00  0.00    +0.000 A 
ATOM     19  C   UNL     1       4.711   6.069  17.351  0.00  0.00    +0.000 A 
ATOM     20  C   UNL     1       5.484   7.367  17.415  0.00  0.00    +0.000 C 
ATOM     21  C   UNL     1       3.379   5.882  17.850  0.00  0.00    +0.000 A 
ENDBRANCH   1  21
BRANCH   8  22
ATOM     22  C   UNL     1      -0.990  12.278  21.710  0.00  0.00    +0.000 A 
ATOM     23  C   UNL     1      -0.215  13.446  21.692  0.00  0.00    +0.000 A 
ATOM     24  C   UNL     1      -0.734  14.658  21.235  0.00  0.00    +0.000 A 
ATOM     25  C   UNL     1      -2.057  14.726  20.816  0.00  0.00    +0.000 A 
ATOM     26  C   UNL     1      -2.861  13.587  20.861  0.00  0.00    +0.000 A 
ATOM     27  C   UNL     1      -2.318  12.366  21.272  0.00  0.00    +0.000 A 
BRANCH  26  28
ATOM     28  O   UNL     1      -4.164  13.775  20.487  0.00  0.00    +0.000 OA
BRANCH  28  29
ATOM     29  C   UNL     1      -5.041  12.671  20.720  0.00  0.00    +0.000 C 
BRANCH  29  30
ATOM     30  C   UNL     1      -5.707  12.283  19.404  0.00  0.00    +0.000 C 
BRANCH  30  31
ATOM     31  C   UNL     1      -5.226  10.925  18.883  0.00  0.00    +0.000 C 
BRANCH  31  32
ATOM     32  N   UNL     1      -4.024  11.010  18.030  0.00  0.00    +0.000 NA
ATOM     33  C   UNL     1      -4.375  11.635  16.736  0.00  0.00    +0.000 C 
ATOM     34  C   UNL     1      -3.190  11.683  15.744  0.00  0.00    +0.000 C 
ATOM     35  N   UNL     1      -2.542  10.383  15.486  0.00  0.00    +0.000 NA
ATOM     36  C   UNL     1      -3.372   9.519  14.648  0.00  0.00    +0.000 C 
ATOM     37  C   UNL     1      -2.228   9.746  16.779  0.00  0.00    +0.000 C 
ATOM     38  C   UNL     1      -3.400   9.692  17.791  0.00  0.00    +0.000 C 
ENDBRANCH  31  32
ENDBRANCH  30  31
ENDBRANCH  29  30
ENDBRANCH  28  29
ENDBRANCH  26  28
ENDBRANCH   8  22
TORSDOF 7
ENDMDL
MODEL 7
REMARK VINA RESULT:      -8.5      0.837      1.288
REMARK  Name = 
REMARK  11 active torsions:
REMARK  status: ('A' for Active; 'I' for Inactive)
REMARK    1  A    between atoms: C_1  and  C_2
REMARK    2  A    between atoms: C_6  and  C_7
REMARK    3  A    between atoms: C_8  and  C_9
REMARK    4  A    between atoms: C_11  and  C_12
REMARK    5  A    between atoms: N_16  and  C_17
REMARK    6  A    between atoms: C_21  and  O_22
REMARK    7  A    between atoms: O_22  and  C_23
REMARK    8  A    between atoms: C_23  and  C_24
REMARK    9  A    between atoms: C_24  and  C_25
REMARK   10  A    between atoms: C_25  and  N_26
REMARK   11  A    between atoms: N_29  and  C_30
REMARK                            x       y       z     vdW  Elec       q    Type
REMARK                         _______ _______ _______ _____ _____    ______ ____
ROOT
ATOM      1  C   UNL     1      -2.392  13.193  21.536  0.00  0.00    +0.000 A 
ATOM      2  C   UNL     1      -2.129  12.692  20.253  0.00  0.00    +0.000 A 
ATOM      3  C   UNL     1      -1.413  11.508  20.035  0.00  0.00    +0.000 A 
ATOM      4  C   UNL     1      -1.372  10.885  18.666  0.00  0.00    +0.000 C 
ATOM      5  C   UNL     1      -0.757  10.891  21.098  0.00  0.00    +0.000 A 
ATOM      6  N   UNL     1       0.023   9.832  20.865  0.00  0.00    +0.000 NA
ATOM      7  C   UNL     1       0.674   9.280  21.895  0.00  0.00    +0.000 A 
ATOM      8  N   UNL     1       1.488   8.167  21.684  0.00  0.00    +0.000 N 
ATOM      9  N   UNL     1       0.534   9.741  23.151  0.00  0.00    +0.000 NA
ATOM     10  N   UNL     1      -0.291  10.806  23.400  0.00  0.00    +0.000 NA
ATOM     11  C   UNL     1      -0.939  11.394  22.384  0.00  0.00    +0.000 A 
ATOM     12  C   UNL     1      -1.796  12.475  22.587  0.00  0.00    +0.000 A 
ATOM     13  H   UNL     1       1.760   7.739  22.557  0.00  0.00    +0.000 HD
ENDROOT
BRANCH   1  21
ATOM     14  C   UNL     1      -1.263  16.044  21.876  0.00  0.00    +0.000 C 
ATOM     15  C   UNL     1      -2.735  15.705  21.942  0.00  0.00    +0.000 A 
ATOM     16  C   UNL     1      -3.585  16.802  22.201  0.00  0.00    +0.000 A 
ATOM     17  C   UNL     1      -4.960  16.657  22.243  0.00  0.00    +0.000 A 
ATOM     18  C   UNL     1      -5.513  15.403  22.045  0.00  0.00    +0.000 A 
ATOM     19  C   UNL     1      -4.703  14.268  21.833  0.00  0.00    +0.000 A 
ATOM     20  C   UNL     1      -5.470  12.975  21.671  0.00  0.00    +0.000 C 
ATOM     21  C   UNL     1      -3.274  14.389  21.767  0.00  0.00    +0.000 A 
ENDBRANCH   1  21
BRANCH   8  22
ATOM     22  C   UNL     1       1.819   7.509  20.491  0.00  0.00    +0.000 A 
ATOM     23  C   UNL     1       1.991   8.184  19.275  0.00  0.00    +0.000 A 
ATOM     24  C   UNL     1       2.238   7.494  18.088  0.00  0.00    +0.000 A 
ATOM     25  C   UNL     1       2.284   6.105  18.096  0.00  0.00    +0.000 A 
ATOM     26  C   UNL     1       2.078   5.408  19.286  0.00  0.00    +0.000 A 
ATOM     27  C   UNL     1       1.883   6.110  20.480  0.00  0.00    +0.000 A 
BRANCH  26  28
ATOM     28  O   UNL     1       2.081   4.044  19.174  0.00  0.00    +0.000 OA
BRANCH  28  29
ATOM     29  C   UNL     1       2.260   3.531  17.852  0.00  0.00    +0.000 C 
BRANCH  29  30
ATOM     30  C   UNL     1       3.411   2.531  17.862  0.00  0.00    +0.000 C 
BRANCH  30  31
ATOM     31  C   UNL     1       4.719   3.148  18.369  0.00  0.00    +0.000 C 
BRANCH  31  32
ATOM     32  N   UNL     1       5.113   4.375  17.649  0.00  0.00    +0.000 NA
ATOM     33  C   UNL     1       4.769   4.244  16.216  0.00  0.00    +0.000 C 
ATOM     34  C   UNL     1       5.228   5.452  15.369  0.00  0.00    +0.000 C 
ATOM     35  N   UNL     1       6.661   5.787  15.488  0.00  0.00    +0.000 NA
ATOM     36  C   UNL     1       7.504   4.817  14.791  0.00  0.00    +0.000 C 
ATOM     37  C   UNL     1       7.008   5.879  16.918  0.00  0.00    +0.000 C 
ATOM     38  C   UNL     1       6.552   4.681  17.787  0.00  0.00    +0.000 C 
ENDBRANCH  31  32
ENDBRANCH  30  31
ENDBRANCH  29  30
ENDBRANCH  28  29
ENDBRANCH  26  28
ENDBRANCH   8  22
TORSDOF 7
ENDMDL
MODEL 8
REMARK VINA RESULT:      -8.4      3.067     10.164
REMARK  Name = 
REMARK  11 active torsions:
REMARK  status: ('A' for Active; 'I' for Inactive)
REMARK    1  A    between atoms: C_1  and  C_2
REMARK    2  A    between atoms: C_6  and  C_7
REMARK    3  A    between atoms: C_8  and  C_9
REMARK    4  A    between atoms: C_11  and  C_12
REMARK    5  A    between atoms: N_16  and  C_17
REMARK    6  A    between atoms: C_21  and  O_22
REMARK    7  A    between atoms: O_22  and  C_23
REMARK    8  A    between atoms: C_23  and  C_24
REMARK    9  A    between atoms: C_24  and  C_25
REMARK   10  A    between atoms: C_25  and  N_26
REMARK   11  A    between atoms: N_29  and  C_30
REMARK                            x       y       z     vdW  Elec       q    Type
REMARK                         _______ _______ _______ _____ _____    ______ ____
ROOT
ATOM      1  C   UNL     1       2.707   6.931  18.488  0.00  0.00    +0.000 A 
ATOM      2  C   UNL     1       2.330   8.089  17.794  0.00  0.00    +0.000 A 
ATOM      3  C   UNL     1       1.759   9.199  18.430  0.00  0.00    +0.000 A 
ATOM      4  C   UNL     1       1.604  10.501  17.691  0.00  0.00    +0.000 C 
ATOM      5  C   UNL     1       1.357   9.104  19.760  0.00  0.00    +0.000 A 
ATOM      6  N   UNL     1       0.704  10.123  20.325  0.00  0.00    +0.000 NA
ATOM      7  C   UNL     1       0.294   9.993  21.592  0.00  0.00    +0.000 A 
ATOM      8  N   UNL     1      -0.382  11.044  22.212  0.00  0.00    +0.000 N 
ATOM      9  N   UNL     1       0.552   8.886  22.311  0.00  0.00    +0.000 NA
ATOM     10  N   UNL     1       1.250   7.852  21.746  0.00  0.00    +0.000 NA
ATOM     11  C   UNL     1       1.656   7.944  20.470  0.00  0.00    +0.000 A 
ATOM     12  C   UNL     1       2.376   6.922  19.854  0.00  0.00    +0.000 A 
ATOM     13  H   UNL     1      -0.462  10.894  23.207  0.00  0.00    +0.000 HD
ENDROOT
BRANCH   1  21
ATOM     14  C   UNL     1       5.618   7.196  17.498  0.00  0.00    +0.000 C 
ATOM     15  C   UNL     1       4.787   5.941  17.352  0.00  0.00    +0.000 A 
ATOM     16  C   UNL     1       5.435   4.874  16.693  0.00  0.00    +0.000 A 
ATOM     17  C   UNL     1       4.820   3.646  16.527  0.00  0.00    +0.000 A 
ATOM     18  C   UNL     1       3.532   3.467  17.002  0.00  0.00    +0.000 A 
ATOM     19  C   UNL     1       2.825   4.518  17.622  0.00  0.00    +0.000 A 
ATOM     20  C   UNL     1       1.419   4.159  18.047  0.00  0.00    +0.000 C 
ATOM     21  C   UNL     1       3.441   5.798  17.823  0.00  0.00    +0.000 A 
ENDBRANCH   1  21
BRANCH   8  22
ATOM     22  C   UNL     1      -0.791  12.280  21.693  0.00  0.00    +0.000 A 
ATOM     23  C   UNL     1       0.061  13.112  20.954  0.00  0.00    +0.000 A 
ATOM     24  C   UNL     1      -0.349  14.374  20.522  0.00  0.00    +0.000 A 
ATOM     25  C   UNL     1      -1.616  14.838  20.854  0.00  0.00    +0.000 A 
ATOM     26  C   UNL     1      -2.469  14.045  21.621  0.00  0.00    +0.000 A 
ATOM     27  C   UNL     1      -2.069  12.761  22.006  0.00  0.00    +0.000 A 
BRANCH  26  28
ATOM     28  O   UNL     1      -3.668  14.619  21.946  0.00  0.00    +0.000 OA
BRANCH  28  29
ATOM     29  C   UNL     1      -4.637  14.667  20.896  0.00  0.00    +0.000 C 
BRANCH  29  30
ATOM     30  C   UNL     1      -5.221  13.272  20.700  0.00  0.00    +0.000 C 
BRANCH  30  31
ATOM     31  C   UNL     1      -5.190  12.826  19.234  0.00  0.00    +0.000 C 
BRANCH  31  32
ATOM     32  N   UNL     1      -4.315  11.663  18.987  0.00  0.00    +0.000 NA
ATOM     33  C   UNL     1      -2.985  12.128  18.537  0.00  0.00    +0.000 C 
ATOM     34  C   UNL     1      -2.030  10.969  18.169  0.00  0.00    +0.000 C 
ATOM     35  N   UNL     1      -2.563  10.014  17.178  0.00  0.00    +0.000 NA
ATOM     36  C   UNL     1      -2.589  10.586  15.833  0.00  0.00    +0.000 C 
ATOM     37  C   UNL     1      -3.905   9.583  17.611  0.00  0.00    +0.000 C 
ATOM     38  C   UNL     1      -4.877  10.728  17.990  0.00  0.00    +0.000 C 
ENDBRANCH  31  32
ENDBRANCH  30  31
ENDBRANCH  29  30
ENDBRANCH  28  29
ENDBRANCH  26  28
ENDBRANCH   8  22
TORSDOF 7
ENDMDL
MODEL 9
REMARK VINA RESULT:      -8.4      3.279     11.312
REMARK  Name = 
REMARK  11 active torsions:
REMARK  status: ('A' for Active; 'I' for Inactive)
REMARK    1  A    between atoms: C_1  and  C_2
REMARK    2  A    between atoms: C_6  and  C_7
REMARK    3  A    between atoms: C_8  and  C_9
REMARK    4  A    between atoms: C_11  and  C_12
REMARK    5  A    between atoms: N_16  and  C_17
REMARK    6  A    between atoms: C_21  and  O_22
REMARK    7  A    between atoms: O_22  and  C_23
REMARK    8  A    between atoms: C_23  and  C_24
REMARK    9  A    between atoms: C_24  and  C_25
REMARK   10  A    between atoms: C_25  and  N_26
REMARK   11  A    between atoms: N_29  and  C_30
REMARK                            x       y       z     vdW  Elec       q    Type
REMARK                         _______ _______ _______ _____ _____    ______ ____
ROOT
ATOM      1  C   UNL     1       2.696   6.946  18.476  0.00  0.00    +0.000 A 
ATOM      2  C   UNL     1       2.340   8.118  17.792  0.00  0.00    +0.000 A 
ATOM      3  C   UNL     1       1.780   9.229  18.437  0.00  0.00    +0.000 A 
ATOM      4  C   UNL     1       1.648  10.541  17.712  0.00  0.00    +0.000 C 
ATOM      5  C   UNL     1       1.367   9.124  19.763  0.00  0.00    +0.000 A 
ATOM      6  N   UNL     1       0.725  10.146  20.335  0.00  0.00    +0.000 NA
ATOM      7  C   UNL     1       0.304  10.008  21.598  0.00  0.00    +0.000 A 
ATOM      8  N   UNL     1      -0.361  11.061  22.225  0.00  0.00    +0.000 N 
ATOM      9  N   UNL     1       0.541   8.889  22.306  0.00  0.00    +0.000 NA
ATOM     10  N   UNL     1       1.229   7.852  21.734  0.00  0.00    +0.000 NA
ATOM     11  C   UNL     1       1.644   7.953  20.463  0.00  0.00    +0.000 A 
ATOM     12  C   UNL     1       2.354   6.928  19.839  0.00  0.00    +0.000 A 
ATOM     13  H   UNL     1      -0.450  10.902  23.218  0.00  0.00    +0.000 HD
ENDROOT
BRANCH   1  21
ATOM     14  C   UNL     1       1.407   4.172  18.067  0.00  0.00    +0.000 C 
ATOM     15  C   UNL     1       2.814   4.522  17.637  0.00  0.00    +0.000 A 
ATOM     16  C   UNL     1       3.532   3.463  17.042  0.00  0.00    +0.000 A 
ATOM     17  C   UNL     1       4.814   3.643  16.554  0.00  0.00    +0.000 A 
ATOM     18  C   UNL     1       5.412   4.886  16.670  0.00  0.00    +0.000 A 
ATOM     19  C   UNL     1       4.754   5.961  17.302  0.00  0.00    +0.000 A 
ATOM     20  C   UNL     1       5.566   7.235  17.374  0.00  0.00    +0.000 C 
ATOM     21  C   UNL     1       3.418   5.811  17.804  0.00  0.00    +0.000 A 
ENDBRANCH   1  21
BRANCH   8  22
ATOM     22  C   UNL     1      -0.749  12.309  21.716  0.00  0.00    +0.000 A 
ATOM     23  C   UNL     1       0.107  13.418  21.693  0.00  0.00    +0.000 A 
ATOM     24  C   UNL     1      -0.334  14.669  21.259  0.00  0.00    +0.000 A 
ATOM     25  C   UNL     1      -1.657  14.836  20.870  0.00  0.00    +0.000 A 
ATOM     26  C   UNL     1      -2.539  13.757  20.921  0.00  0.00    +0.000 A 
ATOM     27  C   UNL     1      -2.076  12.495  21.308  0.00  0.00    +0.000 A 
BRANCH  26  28
ATOM     28  O   UNL     1      -3.833  14.042  20.578  0.00  0.00    +0.000 OA
BRANCH  28  29
ATOM     29  C   UNL     1      -4.328  15.306  21.023  0.00  0.00    +0.000 C 
BRANCH  29  30
ATOM     30  C   UNL     1      -5.788  15.441  20.602  0.00  0.00    +0.000 C 
BRANCH  30  31
ATOM     31  C   UNL     1      -6.685  14.386  21.256  0.00  0.00    +0.000 C 
BRANCH  31  32
ATOM     32  N   UNL     1      -7.227  13.396  20.304  0.00  0.00    +0.000 NA
ATOM     33  C   UNL     1      -6.716  12.050  20.641  0.00  0.00    +0.000 C 
ATOM     34  C   UNL     1      -7.164  10.962  19.638  0.00  0.00    +0.000 C 
ATOM     35  N   UNL     1      -6.854  11.252  18.225  0.00  0.00    +0.000 NA
ATOM     36  C   UNL     1      -5.428  11.103  17.941  0.00  0.00    +0.000 C 
ATOM     37  C   UNL     1      -7.331  12.610  17.905  0.00  0.00    +0.000 C 
ATOM     38  C   UNL     1      -6.898  13.715  18.900  0.00  0.00    +0.000 C 
ENDBRANCH  31  32
ENDBRANCH  30  31
ENDBRANCH  29  30
ENDBRANCH  28  29
ENDBRANCH  26  28
ENDBRANCH   8  22
TORSDOF 7
ENDMDL
