MODEL 1
REMARK VINA RESULT:      -7.7      0.000      0.000
REMARK  Name = 
REMARK  8 active torsions:
REMARK  status: ('A' for Active; 'I' for Inactive)
REMARK    1  A    between atoms: C_2  and  C_3
REMARK    2  A    between atoms: C_3  and  C_4
REMARK    3  A    between atoms: C_3  and  C_10
REMARK    4  A    between atoms: C_12  and  O_13
REMARK    5  A    between atoms: O_13  and  C_14
REMARK    6  A    between atoms: C_15  and  O_16
REMARK    7  A    between atoms: C_18  and  O_19
REMARK    8  A    between atoms: O_19  and  C_20
REMARK                            x       y       z     vdW  Elec       q    Type
REMARK                         _______ _______ _______ _____ _____    ______ ____
ROOT
ATOM      1  C   UNL     1       3.963   5.512  17.500  0.00  0.00    +0.000 A 
ATOM      2  C   UNL     1       4.944   6.532  17.405  0.00  0.00    +0.000 A 
ATOM      3  C   UNL     1       6.168   6.348  16.757  0.00  0.00    +0.000 A 
ATOM      4  C   UNL     1       6.452   5.103  16.217  0.00  0.00    +0.000 A 
ATOM      5  C   UNL     1       5.522   4.066  16.316  0.00  0.00    +0.000 A 
ATOM      6  C   UNL     1       4.293   4.245  16.978  0.00  0.00    +0.000 A 
ENDROOT
BRANCH   3   7
ATOM      7  O   UNL     1       7.009   7.427  16.784  0.00  0.00    +0.000 OA
ATOM      8  C   UNL     1       7.835   7.557  17.940  0.00  0.00    +0.000 C 
ENDBRANCH   3   7
BRANCH   4   9
ATOM      9  O   UNL     1       7.642   4.798  15.616  0.00  0.00    +0.000 OA
ATOM     10  H   UNL     1       7.429   4.230  14.857  0.00  0.00    +0.000 HD
ENDBRANCH   4   9
BRANCH   6  11
ATOM     11  O   UNL     1       3.482   3.145  16.925  0.00  0.00    +0.000 OA
ATOM     12  C   UNL     1       3.780   2.078  17.818  0.00  0.00    +0.000 C 
ENDBRANCH   6  11
BRANCH   1  13
ATOM     13  C   UNL     1       2.588   5.849  18.090  0.00  0.00    +0.000 C 
BRANCH  13  14
ATOM     14  C   UNL     1       2.081   4.908  19.191  0.00  0.00    +0.000 A 
ATOM     15  C   UNL     1       1.090   3.935  18.967  0.00  0.00    +0.000 A 
ATOM     16  C   UNL     1       0.735   3.036  19.976  0.00  0.00    +0.000 A 
ATOM     17  C   UNL     1       1.360   3.089  21.219  0.00  0.00    +0.000 A 
ATOM     18  C   UNL     1       2.337   4.054  21.465  0.00  0.00    +0.000 A 
ATOM     19  C   UNL     1       2.694   4.958  20.458  0.00  0.00    +0.000 A 
ENDBRANCH  13  14
BRANCH  13  21
ATOM     20  C   UNL     1       1.982   8.318  17.935  0.00  0.00    +0.000 C 
ATOM     21  C   UNL     1       2.513   7.284  18.603  0.00  0.00    +0.000 C 
ENDBRANCH  13  21
ENDBRANCH   1  13
TORSDOF 6
ENDMDL
MODEL 2
REMARK VINA RESULT:      -7.5      0.151      1.089
REMARK  Name = 
REMARK  8 active torsions:
REMARK  status: ('A' for Active; 'I' for Inactive)
REMARK    1  A    between atoms: C_2  and  C_3
REMARK    2  A    between atoms: C_3  and  C_4
REMARK    3  A    between atoms: C_3  and  C_10
REMARK    4  A    between atoms: C_12  and  O_13
REMARK    5  A    between atoms: O_13  and  C_14
REMARK    6  A    between atoms: C_15  and  O_16
REMARK    7  A    between atoms: C_18  and  O_19
REMARK    8  A    between atoms: O_19  and  C_20
REMARK                            x       y       z     vdW  Elec       q    Type
REMARK                         _______ _______ _______ _____ _____    ______ ____
ROOT
ATOM      1  C   UNL     1       4.068   5.498  17.427  0.00  0.00    +0.000 A 
ATOM      2  C   UNL     1       5.030   6.538  17.336  0.00  0.00    +0.000 A 
ATOM      3  C   UNL     1       6.243   6.391  16.658  0.00  0.00    +0.000 A 
ATOM      4  C   UNL     1       6.535   5.164  16.082  0.00  0.00    +0.000 A 
ATOM      5  C   UNL     1       5.625   4.108  16.175  0.00  0.00    +0.000 A 
ATOM      6  C   UNL     1       4.409   4.250  16.867  0.00  0.00    +0.000 A 
ENDROOT
BRANCH   3   7
ATOM      7  O   UNL     1       7.066   7.483  16.694  0.00  0.00    +0.000 OA
ATOM      8  C   UNL     1       7.824   7.665  17.888  0.00  0.00    +0.000 C 
ENDBRANCH   3   7
BRANCH   4   9
ATOM      9  O   UNL     1       7.717   4.895  15.449  0.00  0.00    +0.000 OA
ATOM     10  H   UNL     1       8.424   5.152  16.063  0.00  0.00    +0.000 HD
ENDBRANCH   4   9
BRANCH   6  11
ATOM     11  O   UNL     1       3.615   3.137  16.804  0.00  0.00    +0.000 OA
ATOM     12  C   UNL     1       3.909   2.081  17.711  0.00  0.00    +0.000 C 
ENDBRANCH   6  11
BRANCH   1  13
ATOM     13  C   UNL     1       2.701   5.797  18.054  0.00  0.00    +0.000 C 
BRANCH  13  14
ATOM     14  C   UNL     1       2.240   4.828  19.152  0.00  0.00    +0.000 A 
ATOM     15  C   UNL     1       2.758   4.853  20.459  0.00  0.00    +0.000 A 
ATOM     16  C   UNL     1       2.234   4.017  21.448  0.00  0.00    +0.000 A 
ATOM     17  C   UNL     1       1.186   3.148  21.153  0.00  0.00    +0.000 A 
ATOM     18  C   UNL     1       0.665   3.101  19.860  0.00  0.00    +0.000 A 
ATOM     19  C   UNL     1       1.190   3.934  18.866  0.00  0.00    +0.000 A 
ENDBRANCH  13  14
BRANCH  13  21
ATOM     20  C   UNL     1       1.932   8.224  18.011  0.00  0.00    +0.000 C 
ATOM     21  C   UNL     1       2.607   7.222  18.590  0.00  0.00    +0.000 C 
ENDBRANCH  13  21
ENDBRANCH   1  13
TORSDOF 6
ENDMDL
MODEL 3
REMARK VINA RESULT:      -7.3      1.628      1.960
REMARK  Name = 
REMARK  8 active torsions:
REMARK  status: ('A' for Active; 'I' for Inactive)
REMARK    1  A    between atoms: C_2  and  C_3
REMARK    2  A    between atoms: C_3  and  C_4
REMARK    3  A    between atoms: C_3  and  C_10
REMARK    4  A    between atoms: C_12  and  O_13
REMARK    5  A    between atoms: O_13  and  C_14
REMARK    6  A    between atoms: C_15  and  O_16
REMARK    7  A    between atoms: C_18  and  O_19
REMARK    8  A    between atoms: O_19  and  C_20
REMARK                            x       y       z     vdW  Elec       q    Type
REMARK                         _______ _______ _______ _____ _____    ______ ____
ROOT
ATOM      1  C   UNL     1       4.338   5.489  17.563  0.00  0.00    +0.000 A 
ATOM      2  C   UNL     1       4.957   5.762  16.316  0.00  0.00    +0.000 A 
ATOM      3  C   UNL     1       6.246   5.329  15.998  0.00  0.00    +0.000 A 
ATOM      4  C   UNL     1       6.967   4.634  16.957  0.00  0.00    +0.000 A 
ATOM      5  C   UNL     1       6.402   4.370  18.207  0.00  0.00    +0.000 A 
ATOM      6  C   UNL     1       5.108   4.816  18.533  0.00  0.00    +0.000 A 
ENDROOT
BRANCH   3   7
ATOM      7  O   UNL     1       6.699   5.705  14.763  0.00  0.00    +0.000 OA
ATOM      8  C   UNL     1       6.708   4.694  13.757  0.00  0.00    +0.000 C 
ENDBRANCH   3   7
BRANCH   4   9
ATOM      9  O   UNL     1       8.256   4.217  16.772  0.00  0.00    +0.000 OA
ATOM     10  H   UNL     1       8.452   4.337  15.828  0.00  0.00    +0.000 HD
ENDBRANCH   4   9
BRANCH   6  11
ATOM     11  O   UNL     1       4.692   4.415  19.774  0.00  0.00    +0.000 OA
ATOM     12  C   UNL     1       4.589   3.014  20.001  0.00  0.00    +0.000 C 
ENDBRANCH   6  11
BRANCH   1  13
ATOM     13  C   UNL     1       2.866   5.867  17.767  0.00  0.00    +0.000 C 
BRANCH  13  14
ATOM     14  C   UNL     1       2.004   4.835  18.505  0.00  0.00    +0.000 A 
ATOM     15  C   UNL     1       1.638   3.600  17.940  0.00  0.00    +0.000 A 
ATOM     16  C   UNL     1       0.937   2.653  18.690  0.00  0.00    +0.000 A 
ATOM     17  C   UNL     1       0.592   2.918  20.013  0.00  0.00    +0.000 A 
ATOM     18  C   UNL     1       0.935   4.141  20.590  0.00  0.00    +0.000 A 
ATOM     19  C   UNL     1       1.635   5.093  19.840  0.00  0.00    +0.000 A 
ENDBRANCH  13  14
BRANCH  13  21
ATOM     20  C   UNL     1       2.559   8.394  17.827  0.00  0.00    +0.000 C 
ATOM     21  C   UNL     1       2.704   7.219  18.454  0.00  0.00    +0.000 C 
ENDBRANCH  13  21
ENDBRANCH   1  13
TORSDOF 6
ENDMDL
MODEL 4
REMARK VINA RESULT:      -7.2      2.102      5.899
REMARK  Name = 
REMARK  8 active torsions:
REMARK  status: ('A' for Active; 'I' for Inactive)
REMARK    1  A    between atoms: C_2  and  C_3
REMARK    2  A    between atoms: C_3  and  C_4
REMARK    3  A    between atoms: C_3  and  C_10
REMARK    4  A    between atoms: C_12  and  O_13
REMARK    5  A    between atoms: O_13  and  C_14
REMARK    6  A    between atoms: C_15  and  O_16
REMARK    7  A    between atoms: C_18  and  O_19
REMARK    8  A    between atoms: O_19  and  C_20
REMARK                            x       y       z     vdW  Elec       q    Type
REMARK                         _______ _______ _______ _____ _____    ______ ____
ROOT
ATOM      1  C   UNL     1       3.743   4.980  17.654  0.00  0.00    +0.000 A 
ATOM      2  C   UNL     1       3.551   3.594  17.887  0.00  0.00    +0.000 A 
ATOM      3  C   UNL     1       2.494   3.093  18.651  0.00  0.00    +0.000 A 
ATOM      4  C   UNL     1       1.617   3.993  19.239  0.00  0.00    +0.000 A 
ATOM      5  C   UNL     1       1.791   5.366  19.055  0.00  0.00    +0.000 A 
ATOM      6  C   UNL     1       2.861   5.873  18.295  0.00  0.00    +0.000 A 
ENDROOT
BRANCH   3   7
ATOM      7  O   UNL     1       2.476   1.733  18.799  0.00  0.00    +0.000 OA
ATOM      8  C   UNL     1       3.729   1.065  18.665  0.00  0.00    +0.000 C 
ENDBRANCH   3   7
BRANCH   4   9
ATOM      9  O   UNL     1       0.587   3.613  20.054  0.00  0.00    +0.000 OA
ATOM     10  H   UNL     1      -0.214   4.034  19.700  0.00  0.00    +0.000 HD
ENDBRANCH   4   9
BRANCH   6  11
ATOM     11  O   UNL     1       2.840   7.236  18.169  0.00  0.00    +0.000 OA
ATOM     12  C   UNL     1       2.100   7.964  19.142  0.00  0.00    +0.000 C 
ENDBRANCH   6  11
BRANCH   1  13
ATOM     13  C   UNL     1       4.836   5.430  16.676  0.00  0.00    +0.000 C 
BRANCH  13  14
ATOM     14  C   UNL     1       6.092   6.044  17.308  0.00  0.00    +0.000 A 
ATOM     15  C   UNL     1       6.583   7.313  16.953  0.00  0.00    +0.000 A 
ATOM     16  C   UNL     1       7.671   7.869  17.629  0.00  0.00    +0.000 A 
ATOM     17  C   UNL     1       8.285   7.175  18.669  0.00  0.00    +0.000 A 
ATOM     18  C   UNL     1       7.820   5.910  19.029  0.00  0.00    +0.000 A 
ATOM     19  C   UNL     1       6.731   5.348  18.352  0.00  0.00    +0.000 A 
ENDBRANCH  13  14
BRANCH  13  21
ATOM     20  C   UNL     1       5.945   4.483  14.588  0.00  0.00    +0.000 C 
ATOM     21  C   UNL     1       5.263   4.312  15.729  0.00  0.00    +0.000 C 
ENDBRANCH  13  21
ENDBRANCH   1  13
TORSDOF 6
ENDMDL
MODEL 5
REMARK VINA RESULT:      -7.2      1.846      3.636
REMARK  Name = 
REMARK  8 active torsions:
REMARK  status: ('A' for Active; 'I' for Inactive)
REMARK    1  A    between atoms: C_2  and  C_3
REMARK    2  A    between atoms: C_3  and  C_4
REMARK    3  A    between atoms: C_3  and  C_10
REMARK    4  A    between atoms: C_12  and  O_13
REMARK    5  A    between atoms: O_13  and  C_14
REMARK    6  A    between atoms: C_15  and  O_16
REMARK    7  A    between atoms: C_18  and  O_19
REMARK    8  A    between atoms: O_19  and  C_20
REMARK                            x       y       z     vdW  Elec       q    Type
REMARK                         _______ _______ _______ _____ _____    ______ ____
ROOT
ATOM      1  C   UNL     1       5.259   4.035  17.431  0.00  0.00    +0.000 A 
ATOM      2  C   UNL     1       4.916   3.978  16.055  0.00  0.00    +0.000 A 
ATOM      3  C   UNL     1       5.776   4.411  15.042  0.00  0.00    +0.000 A 
ATOM      4  C   UNL     1       7.001   4.953  15.399  0.00  0.00    +0.000 A 
ATOM      5  C   UNL     1       7.362   5.050  16.745  0.00  0.00    +0.000 A 
ATOM      6  C   UNL     1       6.493   4.626  17.767  0.00  0.00    +0.000 A 
ENDROOT
BRANCH   3   7
ATOM      7  O   UNL     1       5.275   4.312  13.772  0.00  0.00    +0.000 OA
ATOM      8  C   UNL     1       5.983   3.457  12.877  0.00  0.00    +0.000 C 
ENDBRANCH   3   7
BRANCH   4   9
ATOM      9  O   UNL     1       7.891   5.460  14.492  0.00  0.00    +0.000 OA
ATOM     10  H   UNL     1       8.271   4.699  14.024  0.00  0.00    +0.000 HD
ENDBRANCH   4   9
BRANCH   6  11
ATOM     11  O   UNL     1       7.033   4.738  19.020  0.00  0.00    +0.000 OA
ATOM     12  C   UNL     1       7.842   5.881  19.275  0.00  0.00    +0.000 C 
ENDBRANCH   6  11
BRANCH   1  13
ATOM     13  C   UNL     1       4.321   3.395  18.462  0.00  0.00    +0.000 C 
BRANCH  13  14
ATOM     14  C   UNL     1       3.361   4.353  19.181  0.00  0.00    +0.000 A 
ATOM     15  C   UNL     1       2.729   4.031  20.396  0.00  0.00    +0.000 A 
ATOM     16  C   UNL     1       1.943   4.975  21.061  0.00  0.00    +0.000 A 
ATOM     17  C   UNL     1       1.777   6.252  20.531  0.00  0.00    +0.000 A 
ATOM     18  C   UNL     1       2.386   6.588  19.322  0.00  0.00    +0.000 A 
ATOM     19  C   UNL     1       3.172   5.644  18.651  0.00  0.00    +0.000 A 
ENDBRANCH  13  14
BRANCH  13  21
ATOM     20  C   UNL     1       2.175   2.211  17.768  0.00  0.00    +0.000 C 
ATOM     21  C   UNL     1       3.511   2.243  17.874  0.00  0.00    +0.000 C 
ENDBRANCH  13  21
ENDBRANCH   1  13
TORSDOF 6
ENDMDL
MODEL 6
REMARK VINA RESULT:      -7.2      1.878      3.604
REMARK  Name = 
REMARK  8 active torsions:
REMARK  status: ('A' for Active; 'I' for Inactive)
REMARK    1  A    between atoms: C_2  and  C_3
REMARK    2  A    between atoms: C_3  and  C_4
REMARK    3  A    between atoms: C_3  and  C_10
REMARK    4  A    between atoms: C_12  and  O_13
REMARK    5  A    between atoms: O_13  and  C_14
REMARK    6  A    between atoms: C_15  and  O_16
REMARK    7  A    between atoms: C_18  and  O_19
REMARK    8  A    between atoms: O_19  and  C_20
REMARK                            x       y       z     vdW  Elec       q    Type
REMARK                         _______ _______ _______ _____ _____    ______ ____
ROOT
ATOM      1  C   UNL     1       5.271   4.038  17.388  0.00  0.00    +0.000 A 
ATOM      2  C   UNL     1       4.942   3.951  16.010  0.00  0.00    +0.000 A 
ATOM      3  C   UNL     1       5.798   4.392  14.997  0.00  0.00    +0.000 A 
ATOM      4  C   UNL     1       7.005   4.973  15.356  0.00  0.00    +0.000 A 
ATOM      5  C   UNL     1       7.351   5.100  16.703  0.00  0.00    +0.000 A 
ATOM      6  C   UNL     1       6.485   4.668  17.725  0.00  0.00    +0.000 A 
ENDROOT
BRANCH   3   7
ATOM      7  O   UNL     1       5.311   4.261  13.725  0.00  0.00    +0.000 OA
ATOM      8  C   UNL     1       6.074   3.448  12.836  0.00  0.00    +0.000 C 
ENDBRANCH   3   7
BRANCH   4   9
ATOM      9  O   UNL     1       7.888   5.491  14.449  0.00  0.00    +0.000 OA
ATOM     10  H   UNL     1       8.142   4.758  13.864  0.00  0.00    +0.000 HD
ENDBRANCH   4   9
BRANCH   6  11
ATOM     11  O   UNL     1       7.011   4.814  18.980  0.00  0.00    +0.000 OA
ATOM     12  C   UNL     1       7.926   5.886  19.177  0.00  0.00    +0.000 C 
ENDBRANCH   6  11
BRANCH   1  13
ATOM     13  C   UNL     1       4.342   3.389  18.421  0.00  0.00    +0.000 C 
BRANCH  13  14
ATOM     14  C   UNL     1       3.465   4.351  19.234  0.00  0.00    +0.000 A 
ATOM     15  C   UNL     1       3.164   5.656  18.807  0.00  0.00    +0.000 A 
ATOM     16  C   UNL     1       2.281   6.457  19.534  0.00  0.00    +0.000 A 
ATOM     17  C   UNL     1       1.682   5.972  20.694  0.00  0.00    +0.000 A 
ATOM     18  C   UNL     1       1.976   4.684  21.142  0.00  0.00    +0.000 A 
ATOM     19  C   UNL     1       2.863   3.879  20.417  0.00  0.00    +0.000 A 
ENDBRANCH  13  14
BRANCH  13  21
ATOM     20  C   UNL     1       2.107   2.313  17.840  0.00  0.00    +0.000 C 
ATOM     21  C   UNL     1       3.447   2.317  17.804  0.00  0.00    +0.000 C 
ENDBRANCH  13  21
ENDBRANCH   1  13
TORSDOF 6
ENDMDL
MODEL 7
REMARK VINA RESULT:      -7.1      1.678      3.590
REMARK  Name = 
REMARK  8 active torsions:
REMARK  status: ('A' for Active; 'I' for Inactive)
REMARK    1  A    between atoms: C_2  and  C_3
REMARK    2  A    between atoms: C_3  and  C_4
REMARK    3  A    between atoms: C_3  and  C_10
REMARK    4  A    between atoms: C_12  and  O_13
REMARK    5  A    between atoms: O_13  and  C_14
REMARK    6  A    between atoms: C_15  and  O_16
REMARK    7  A    between atoms: C_18  and  O_19
REMARK    8  A    between atoms: O_19  and  C_20
REMARK                            x       y       z     vdW  Elec       q    Type
REMARK                         _______ _______ _______ _____ _____    ______ ____
ROOT
ATOM      1  C   UNL     1       3.757   5.109  19.059  0.00  0.00    +0.000 A 
ATOM      2  C   UNL     1       5.174   5.154  19.089  0.00  0.00    +0.000 A 
ATOM      3  C   UNL     1       5.972   4.597  18.086  0.00  0.00    +0.000 A 
ATOM      4  C   UNL     1       5.350   3.938  17.035  0.00  0.00    +0.000 A 
ATOM      5  C   UNL     1       3.958   3.849  16.986  0.00  0.00    +0.000 A 
ATOM      6  C   UNL     1       3.153   4.399  18.001  0.00  0.00    +0.000 A 
ENDROOT
BRANCH   3   7
ATOM      7  O   UNL     1       7.321   4.705  18.287  0.00  0.00    +0.000 OA
ATOM      8  C   UNL     1       7.769   5.883  18.954  0.00  0.00    +0.000 C 
ENDBRANCH   3   7
BRANCH   4   9
ATOM      9  O   UNL     1       6.036   3.308  16.034  0.00  0.00    +0.000 OA
ATOM     10  H   UNL     1       6.446   2.522  16.433  0.00  0.00    +0.000 HD
ENDBRANCH   4   9
BRANCH   6  11
ATOM     11  O   UNL     1       1.812   4.273  17.760  0.00  0.00    +0.000 OA
ATOM     12  C   UNL     1       1.217   3.016  18.060  0.00  0.00    +0.000 C 
ENDBRANCH   6  11
BRANCH   1  13
ATOM     13  C   UNL     1       2.961   5.881  20.119  0.00  0.00    +0.000 C 
BRANCH  13  14
ATOM     14  C   UNL     1       2.286   7.174  19.643  0.00  0.00    +0.000 A 
ATOM     15  C   UNL     1       1.519   7.992  20.491  0.00  0.00    +0.000 A 
ATOM     16  C   UNL     1       1.009   9.210  20.035  0.00  0.00    +0.000 A 
ATOM     17  C   UNL     1       1.256   9.633  18.731  0.00  0.00    +0.000 A 
ATOM     18  C   UNL     1       2.006   8.832  17.870  0.00  0.00    +0.000 A 
ATOM     19  C   UNL     1       2.516   7.609  18.323  0.00  0.00    +0.000 A 
ENDBRANCH  13  14
BRANCH  13  21
ATOM     20  C   UNL     1       2.174   3.894  21.504  0.00  0.00    +0.000 C 
ATOM     21  C   UNL     1       1.915   5.010  20.808  0.00  0.00    +0.000 C 
ENDBRANCH  13  21
ENDBRANCH   1  13
TORSDOF 6
ENDMDL
MODEL 8
REMARK VINA RESULT:      -7.1      2.231      5.945
REMARK  Name = 
REMARK  8 active torsions:
REMARK  status: ('A' for Active; 'I' for Inactive)
REMARK    1  A    between atoms: C_2  and  C_3
REMARK    2  A    between atoms: C_3  and  C_4
REMARK    3  A    between atoms: C_3  and  C_10
REMARK    4  A    between atoms: C_12  and  O_13
REMARK    5  A    between atoms: O_13  and  C_14
REMARK    6  A    between atoms: C_15  and  O_16
REMARK    7  A    between atoms: C_18  and  O_19
REMARK    8  A    between atoms: O_19  and  C_20
REMARK                            x       y       z     vdW  Elec       q    Type
REMARK                         _______ _______ _______ _____ _____    ______ ____
ROOT
ATOM      1  C   UNL     1       3.558   5.035  18.135  0.00  0.00    +0.000 A 
ATOM      2  C   UNL     1       3.415   3.628  18.256  0.00  0.00    +0.000 A 
ATOM      3  C   UNL     1       2.440   3.032  19.060  0.00  0.00    +0.000 A 
ATOM      4  C   UNL     1       1.601   3.851  19.800  0.00  0.00    +0.000 A 
ATOM      5  C   UNL     1       1.729   5.240  19.727  0.00  0.00    +0.000 A 
ATOM      6  C   UNL     1       2.718   5.842  18.928  0.00  0.00    +0.000 A 
ENDROOT
BRANCH   3   7
ATOM      7  O   UNL     1       2.462   1.664  19.084  0.00  0.00    +0.000 OA
ATOM      8  C   UNL     1       3.646   1.042  18.589  0.00  0.00    +0.000 C 
ENDBRANCH   3   7
BRANCH   4   9
ATOM      9  O   UNL     1       0.654   3.372  20.662  0.00  0.00    +0.000 OA
ATOM     10  H   UNL     1       1.022   2.562  21.054  0.00  0.00    +0.000 HD
ENDBRANCH   4   9
BRANCH   6  11
ATOM     11  O   UNL     1       2.659   7.209  18.929  0.00  0.00    +0.000 OA
ATOM     12  C   UNL     1       1.927   7.824  19.983  0.00  0.00    +0.000 C 
ENDBRANCH   6  11
BRANCH   1  13
ATOM     13  C   UNL     1       4.551   5.600  17.111  0.00  0.00    +0.000 C 
BRANCH  13  14
ATOM     14  C   UNL     1       5.846   6.189  17.687  0.00  0.00    +0.000 A 
ATOM     15  C   UNL     1       6.626   5.524  18.650  0.00  0.00    +0.000 A 
ATOM     16  C   UNL     1       7.847   6.056  19.067  0.00  0.00    +0.000 A 
ATOM     17  C   UNL     1       8.313   7.255  18.532  0.00  0.00    +0.000 A 
ATOM     18  C   UNL     1       7.550   7.936  17.584  0.00  0.00    +0.000 A 
ATOM     19  C   UNL     1       6.324   7.407  17.165  0.00  0.00    +0.000 A 
ENDBRANCH  13  14
BRANCH  13  21
ATOM     20  C   UNL     1       5.791   4.789  15.040  0.00  0.00    +0.000 C 
ATOM     21  C   UNL     1       4.914   4.584  16.033  0.00  0.00    +0.000 C 
ENDBRANCH  13  21
ENDBRANCH   1  13
TORSDOF 6
ENDMDL
MODEL 9
REMARK VINA RESULT:      -7.0      1.593      3.442
REMARK  Name = 
REMARK  8 active torsions:
REMARK  status: ('A' for Active; 'I' for Inactive)
REMARK    1  A    between atoms: C_2  and  C_3
REMARK    2  A    between atoms: C_3  and  C_4
REMARK    3  A    between atoms: C_3  and  C_10
REMARK    4  A    between atoms: C_12  and  O_13
REMARK    5  A    between atoms: O_13  and  C_14
REMARK    6  A    between atoms: C_15  and  O_16
REMARK    7  A    between atoms: C_18  and  O_19
REMARK    8  A    between atoms: O_19  and  C_20
REMARK                            x       y       z     vdW  Elec       q    Type
REMARK                         _______ _______ _______ _____ _____    ______ ____
ROOT
ATOM      1  C   UNL     1       3.815   5.194  18.938  0.00  0.00    +0.000 A 
ATOM      2  C   UNL     1       5.215   5.412  18.864  0.00  0.00    +0.000 A 
ATOM      3  C   UNL     1       6.013   4.877  17.850  0.00  0.00    +0.000 A 
ATOM      4  C   UNL     1       5.417   4.066  16.896  0.00  0.00    +0.000 A 
ATOM      5  C   UNL     1       4.046   3.806  16.952  0.00  0.00    +0.000 A 
ATOM      6  C   UNL     1       3.242   4.334  17.979  0.00  0.00    +0.000 A 
ENDROOT
BRANCH   3   7
ATOM      7  O   UNL     1       7.348   5.162  17.947  0.00  0.00    +0.000 OA
ATOM      8  C   UNL     1       7.786   5.723  19.183  0.00  0.00    +0.000 C 
ENDBRANCH   3   7
BRANCH   4   9
ATOM      9  O   UNL     1       6.114   3.444  15.897  0.00  0.00    +0.000 OA
ATOM     10  H   UNL     1       6.430   4.145  15.304  0.00  0.00    +0.000 HD
ENDBRANCH   4   9
BRANCH   6  11
ATOM     11  O   UNL     1       1.916   4.028  17.842  0.00  0.00    +0.000 OA
ATOM     12  C   UNL     1       1.530   2.686  18.118  0.00  0.00    +0.000 C 
ENDBRANCH   6  11
BRANCH   1  13
ATOM     13  C   UNL     1       2.995   5.946  19.993  0.00  0.00    +0.000 C 
BRANCH  13  14
ATOM     14  C   UNL     1       2.362   7.267  19.535  0.00  0.00    +0.000 A 
ATOM     15  C   UNL     1       2.418   7.720  18.204  0.00  0.00    +0.000 A 
ATOM     16  C   UNL     1       1.740   8.878  17.818  0.00  0.00    +0.000 A 
ATOM     17  C   UNL     1       0.994   9.601  18.746  0.00  0.00    +0.000 A 
ATOM     18  C   UNL     1       0.934   9.175  20.073  0.00  0.00    +0.000 A 
ATOM     19  C   UNL     1       1.615   8.016  20.464  0.00  0.00    +0.000 A 
ENDBRANCH  13  14
BRANCH  13  21
ATOM     20  C   UNL     1       2.125   4.031  21.427  0.00  0.00    +0.000 C 
ATOM     21  C   UNL     1       1.909   5.074  20.614  0.00  0.00    +0.000 C 
ENDBRANCH  13  21
ENDBRANCH   1  13
TORSDOF 6
ENDMDL
