MODEL 1
REMARK VINA RESULT:      -7.4      0.000      0.000
REMARK  Name = 
REMARK  5 active torsions:
REMARK  status: ('A' for Active; 'I' for Inactive)
REMARK    1  A    between atoms: C_1  and  C_2
REMARK    2  A    between atoms: C_2  and  C_3
REMARK    3  A    between atoms: C_19  and  C_20
REMARK    4  A    between atoms: C_20  and  C_21
REMARK    5  A    between atoms: C_20  and  O_22
REMARK                            x       y       z     vdW  Elec       q    Type
REMARK                         _______ _______ _______ _____ _____    ______ ____
ROOT
ATOM      1  C   UNL     1       4.935   5.832  17.791  0.00  0.00    +0.000 A 
ATOM      2  C   UNL     1       4.093   6.917  17.534  0.00  0.00    +0.000 A 
ATOM      3  N   UNL     1       3.103   6.886  18.496  0.00  0.00    +0.000 N 
ATOM      4  C   UNL     1       2.223   7.882  19.001  0.00  0.00    +0.000 C 
ATOM      5  N   UNL     1       1.801   7.530  20.159  0.00  0.00    +0.000 NA
ATOM      6  C   UNL     1       1.346   8.307  21.280  0.00  0.00    +0.000 C 
ATOM      7  C   UNL     1       0.786   9.658  21.018  0.00  0.00    +0.000 C 
ATOM      8  O   UNL     1       0.680  10.490  21.918  0.00  0.00    +0.000 OA
ATOM      9  N   UNL     1       0.296   9.814  19.725  0.00  0.00    +0.000 N 
ATOM     10  C   UNL     1      -0.971  10.523  19.610  0.00  0.00    +0.000 C 
ATOM     11  C   UNL     1      -0.851  11.981  19.971  0.00  0.00    +0.000 C 
ATOM     12  C   UNL     1       0.361  12.594  19.318  0.00  0.00    +0.000 A 
ATOM     13  C   UNL     1       1.312  11.754  18.613  0.00  0.00    +0.000 A 
ATOM     14  C   UNL     1       2.393  12.413  18.006  0.00  0.00    +0.000 A 
ATOM     15  C   UNL     1       2.557  13.806  18.132  0.00  0.00    +0.000 A 
ATOM     16  C   UNL     1       1.670  14.582  18.881  0.00  0.00    +0.000 A 
ATOM     17  C   UNL     1       0.549  14.008  19.485  0.00  0.00    +0.000 A 
ATOM     18  C   UNL     1       1.267  10.211  18.803  0.00  0.00    +0.000 C 
ATOM     19  C   UNL     1       2.081   9.237  18.302  0.00  0.00    +0.000 C 
ATOM     20  C   UNL     1       3.334   5.684  19.164  0.00  0.00    +0.000 A 
ATOM     21  N   UNL     1       4.415   5.054  18.774  0.00  0.00    +0.000 NA
ENDROOT
BRANCH   1  23
ATOM     22  C   UNL     1       7.324   6.541  17.421  0.00  0.00    +0.000 C 
ATOM     23  C   UNL     1       6.265   5.461  17.223  0.00  0.00    +0.000 C 
ENDBRANCH   1  23
BRANCH  17  24
ATOM     24  C   UNL     1      -0.391  14.877  20.326  0.00  0.00    +0.000 C 
ATOM     25  C   UNL     1       0.308  15.892  21.248  0.00  0.00    +0.000 C 
BRANCH  24  26
ATOM     26  O   UNL     1      -1.306  15.583  19.475  0.00  0.00    +0.000 OA
ATOM     27  H   UNL     1      -0.973  16.486  19.340  0.00  0.00    +0.000 HD
ENDBRANCH  24  26
ENDBRANCH  17  24
TORSDOF 3
ENDMDL
MODEL 2
REMARK VINA RESULT:      -6.8      2.404      4.006
REMARK  Name = 
REMARK  5 active torsions:
REMARK  status: ('A' for Active; 'I' for Inactive)
REMARK    1  A    between atoms: C_1  and  C_2
REMARK    2  A    between atoms: C_2  and  C_3
REMARK    3  A    between atoms: C_19  and  C_20
REMARK    4  A    between atoms: C_20  and  C_21
REMARK    5  A    between atoms: C_20  and  O_22
REMARK                            x       y       z     vdW  Elec       q    Type
REMARK                         _______ _______ _______ _____ _____    ______ ____
ROOT
ATOM      1  C   UNL     1       1.776   4.922  20.192  0.00  0.00    +0.000 A 
ATOM      2  C   UNL     1       1.671   6.136  20.876  0.00  0.00    +0.000 A 
ATOM      3  N   UNL     1       1.936   7.132  19.958  0.00  0.00    +0.000 N 
ATOM      4  C   UNL     1       1.617   8.518  19.924  0.00  0.00    +0.000 C 
ATOM      5  N   UNL     1       1.669   8.937  18.714  0.00  0.00    +0.000 NA
ATOM      6  C   UNL     1       0.992  10.021  18.056  0.00  0.00    +0.000 C 
ATOM      7  C   UNL     1       0.532  11.168  18.882  0.00  0.00    +0.000 C 
ATOM      8  O   UNL     1      -0.315  11.956  18.463  0.00  0.00    +0.000 OA
ATOM      9  N   UNL     1       1.237  11.311  20.073  0.00  0.00    +0.000 N 
ATOM     10  C   UNL     1       1.595  12.675  20.437  0.00  0.00    +0.000 C 
ATOM     11  C   UNL     1       0.394  13.511  20.796  0.00  0.00    +0.000 C 
ATOM     12  C   UNL     1      -0.524  12.755  21.721  0.00  0.00    +0.000 A 
ATOM     13  C   UNL     1      -0.277  11.354  22.007  0.00  0.00    +0.000 A 
ATOM     14  C   UNL     1      -1.163  10.737  22.905  0.00  0.00    +0.000 A 
ATOM     15  C   UNL     1      -2.256  11.443  23.446  0.00  0.00    +0.000 A 
ATOM     16  C   UNL     1      -2.517  12.768  23.094  0.00  0.00    +0.000 A 
ATOM     17  C   UNL     1      -1.662  13.464  22.235  0.00  0.00    +0.000 A 
ATOM     18  C   UNL     1       0.719  10.550  21.124  0.00  0.00    +0.000 C 
ATOM     19  C   UNL     1       1.063   9.230  21.161  0.00  0.00    +0.000 C 
ATOM     20  C   UNL     1       2.344   6.431  18.824  0.00  0.00    +0.000 A 
ATOM     21  N   UNL     1       2.245   5.128  18.935  0.00  0.00    +0.000 NA
ENDROOT
BRANCH   1  23
ATOM     22  C   UNL     1       1.061   2.637  19.410  0.00  0.00    +0.000 C 
ATOM     23  C   UNL     1       1.415   3.530  20.594  0.00  0.00    +0.000 C 
ENDBRANCH   1  23
BRANCH  17  24
ATOM     24  C   UNL     1      -1.989  14.908  21.842  0.00  0.00    +0.000 C 
ATOM     25  C   UNL     1      -3.421  15.137  21.327  0.00  0.00    +0.000 C 
BRANCH  24  26
ATOM     26  O   UNL     1      -1.753  15.787  22.951  0.00  0.00    +0.000 OA
ATOM     27  H   UNL     1      -2.560  16.303  23.118  0.00  0.00    +0.000 HD
ENDBRANCH  24  26
ENDBRANCH  17  24
TORSDOF 3
ENDMDL
MODEL 3
REMARK VINA RESULT:      -6.5      5.758      8.405
REMARK  Name = 
REMARK  5 active torsions:
REMARK  status: ('A' for Active; 'I' for Inactive)
REMARK    1  A    between atoms: C_1  and  C_2
REMARK    2  A    between atoms: C_2  and  C_3
REMARK    3  A    between atoms: C_19  and  C_20
REMARK    4  A    between atoms: C_20  and  C_21
REMARK    5  A    between atoms: C_20  and  O_22
REMARK                            x       y       z     vdW  Elec       q    Type
REMARK                         _______ _______ _______ _____ _____    ______ ____
ROOT
ATOM      1  C   UNL     1       8.739  12.023  18.087  0.00  0.00    +0.000 A 
ATOM      2  C   UNL     1       7.880  11.066  17.541  0.00  0.00    +0.000 A 
ATOM      3  N   UNL     1       8.434   9.832  17.818  0.00  0.00    +0.000 N 
ATOM      4  C   UNL     1       7.881   8.523  17.882  0.00  0.00    +0.000 C 
ATOM      5  N   UNL     1       8.642   7.773  18.590  0.00  0.00    +0.000 NA
ATOM      6  C   UNL     1       8.358   6.602  19.373  0.00  0.00    +0.000 C 
ATOM      7  C   UNL     1       7.178   5.778  19.003  0.00  0.00    +0.000 C 
ATOM      8  O   UNL     1       6.691   4.971  19.793  0.00  0.00    +0.000 OA
ATOM      9  N   UNL     1       6.794   5.926  17.674  0.00  0.00    +0.000 N 
ATOM     10  C   UNL     1       6.430   4.698  16.979  0.00  0.00    +0.000 C 
ATOM     11  C   UNL     1       5.154   4.095  17.506  0.00  0.00    +0.000 C 
ATOM     12  C   UNL     1       4.092   5.151  17.670  0.00  0.00    +0.000 A 
ATOM     13  C   UNL     1       4.426   6.553  17.494  0.00  0.00    +0.000 A 
ATOM     14  C   UNL     1       3.368   7.466  17.632  0.00  0.00    +0.000 A 
ATOM     15  C   UNL     1       2.074   7.030  17.977  0.00  0.00    +0.000 A 
ATOM     16  C   UNL     1       1.796   5.683  18.218  0.00  0.00    +0.000 A 
ATOM     17  C   UNL     1       2.785   4.708  18.065  0.00  0.00    +0.000 A 
ATOM     18  C   UNL     1       5.917   6.993  17.461  0.00  0.00    +0.000 C 
ATOM     19  C   UNL     1       6.467   8.238  17.368  0.00  0.00    +0.000 C 
ATOM     20  C   UNL     1       9.675  10.147  18.370  0.00  0.00    +0.000 A 
ATOM     21  N   UNL     1       9.870  11.431  18.550  0.00  0.00    +0.000 NA
ENDROOT
BRANCH   1  23
ATOM     22  C   UNL     1       9.876  14.190  18.682  0.00  0.00    +0.000 C 
ATOM     23  C   UNL     1       8.581  13.495  18.278  0.00  0.00    +0.000 C 
ENDBRANCH   1  23
BRANCH  17  24
ATOM     24  C   UNL     1       2.460   3.242  18.366  0.00  0.00    +0.000 C 
ATOM     25  C   UNL     1       1.313   3.018  19.367  0.00  0.00    +0.000 C 
BRANCH  24  26
ATOM     26  O   UNL     1       2.151   2.545  17.150  0.00  0.00    +0.000 OA
ATOM     27  H   UNL     1       1.659   3.144  16.563  0.00  0.00    +0.000 HD
ENDBRANCH  24  26
ENDBRANCH  17  24
TORSDOF 3
ENDMDL
MODEL 4
REMARK VINA RESULT:      -6.2      2.565      4.297
REMARK  Name = 
REMARK  5 active torsions:
REMARK  status: ('A' for Active; 'I' for Inactive)
REMARK    1  A    between atoms: C_1  and  C_2
REMARK    2  A    between atoms: C_2  and  C_3
REMARK    3  A    between atoms: C_19  and  C_20
REMARK    4  A    between atoms: C_20  and  C_21
REMARK    5  A    between atoms: C_20  and  O_22
REMARK                            x       y       z     vdW  Elec       q    Type
REMARK                         _______ _______ _______ _____ _____    ______ ____
ROOT
ATOM      1  C   UNL     1       2.335   6.206  19.783  0.00  0.00    +0.000 A 
ATOM      2  C   UNL     1       2.031   7.430  20.385  0.00  0.00    +0.000 A 
ATOM      3  N   UNL     1       1.729   8.309  19.365  0.00  0.00    +0.000 N 
ATOM      4  C   UNL     1       0.995   9.527  19.331  0.00  0.00    +0.000 C 
ATOM      5  N   UNL     1       0.604   9.755  18.132  0.00  0.00    +0.000 NA
ATOM      6  C   UNL     1      -0.521  10.491  17.624  0.00  0.00    +0.000 C 
ATOM      7  C   UNL     1      -1.093  11.572  18.469  0.00  0.00    +0.000 C 
ATOM      8  O   UNL     1      -2.221  12.017  18.259  0.00  0.00    +0.000 OA
ATOM      9  N   UNL     1      -0.191  12.087  19.395  0.00  0.00    +0.000 N 
ATOM     10  C   UNL     1      -0.199  13.536  19.547  0.00  0.00    +0.000 C 
ATOM     11  C   UNL     1      -1.469  14.043  20.179  0.00  0.00    +0.000 C 
ATOM     12  C   UNL     1      -1.839  13.208  21.378  0.00  0.00    +0.000 A 
ATOM     13  C   UNL     1      -1.101  11.993  21.674  0.00  0.00    +0.000 A 
ATOM     14  C   UNL     1      -1.491  11.295  22.828  0.00  0.00    +0.000 A 
ATOM     15  C   UNL     1      -2.576  11.736  23.611  0.00  0.00    +0.000 A 
ATOM     16  C   UNL     1      -3.319  12.865  23.261  0.00  0.00    +0.000 A 
ATOM     17  C   UNL     1      -2.972  13.635  22.148  0.00  0.00    +0.000 A 
ATOM     18  C   UNL     1      -0.161  11.379  20.599  0.00  0.00    +0.000 C 
ATOM     19  C   UNL     1       0.577  10.231  20.624  0.00  0.00    +0.000 C 
ATOM     20  C   UNL     1       2.036   7.588  18.211  0.00  0.00    +0.000 A 
ATOM     21  N   UNL     1       2.381   6.343  18.434  0.00  0.00    +0.000 NA
ENDROOT
BRANCH   1  23
ATOM     22  C   UNL     1       1.243   4.070  20.553  0.00  0.00    +0.000 C 
ATOM     23  C   UNL     1       2.542   4.846  20.364  0.00  0.00    +0.000 C 
ENDBRANCH   1  23
BRANCH  17  24
ATOM     24  C   UNL     1      -3.824  14.851  21.769  0.00  0.00    +0.000 C 
ATOM     25  C   UNL     1      -5.342  14.661  21.928  0.00  0.00    +0.000 C 
BRANCH  24  26
ATOM     26  O   UNL     1      -3.420  15.995  22.537  0.00  0.00    +0.000 OA
ATOM     27  H   UNL     1      -3.345  16.760  21.941  0.00  0.00    +0.000 HD
ENDBRANCH  24  26
ENDBRANCH  17  24
TORSDOF 3
ENDMDL
MODEL 5
REMARK VINA RESULT:      -6.2      1.490      2.021
REMARK  Name = 
REMARK  5 active torsions:
REMARK  status: ('A' for Active; 'I' for Inactive)
REMARK    1  A    between atoms: C_1  and  C_2
REMARK    2  A    between atoms: C_2  and  C_3
REMARK    3  A    between atoms: C_19  and  C_20
REMARK    4  A    between atoms: C_20  and  C_21
REMARK    5  A    between atoms: C_20  and  O_22
REMARK                            x       y       z     vdW  Elec       q    Type
REMARK                         _______ _______ _______ _____ _____    ______ ____
ROOT
ATOM      1  C   UNL     1       3.093   6.272  19.231  0.00  0.00    +0.000 A 
ATOM      2  C   UNL     1       2.591   7.471  18.717  0.00  0.00    +0.000 A 
ATOM      3  N   UNL     1       1.602   7.890  19.584  0.00  0.00    +0.000 N 
ATOM      4  C   UNL     1       1.016   9.162  19.830  0.00  0.00    +0.000 C 
ATOM      5  N   UNL     1       0.478   9.166  20.993  0.00  0.00    +0.000 NA
ATOM      6  C   UNL     1       0.221  10.236  21.917  0.00  0.00    +0.000 C 
ATOM      7  C   UNL     1       0.064  11.611  21.374  0.00  0.00    +0.000 C 
ATOM      8  O   UNL     1       0.164  12.598  22.101  0.00  0.00    +0.000 OA
ATOM      9  N   UNL     1      -0.324  11.638  20.038  0.00  0.00    +0.000 N 
ATOM     10  C   UNL     1      -1.342  12.622  19.694  0.00  0.00    +0.000 C 
ATOM     11  C   UNL     1      -0.834  14.037  19.800  0.00  0.00    +0.000 C 
ATOM     12  C   UNL     1       0.519  14.168  19.151  0.00  0.00    +0.000 A 
ATOM     13  C   UNL     1       1.222  12.986  18.687  0.00  0.00    +0.000 A 
ATOM     14  C   UNL     1       2.462  13.204  18.065  0.00  0.00    +0.000 A 
ATOM     15  C   UNL     1       3.000  14.501  17.955  0.00  0.00    +0.000 A 
ATOM     16  C   UNL     1       2.339  15.614  18.478  0.00  0.00    +0.000 A 
ATOM     17  C   UNL     1       1.085  15.486  19.080  0.00  0.00    +0.000 A 
ATOM     18  C   UNL     1       0.748  11.577  19.144  0.00  0.00    +0.000 C 
ATOM     19  C   UNL     1       1.276  10.345  18.892  0.00  0.00    +0.000 C 
ATOM     20  C   UNL     1       1.471   6.822  20.471  0.00  0.00    +0.000 A 
ATOM     21  N   UNL     1       2.348   5.865  20.290  0.00  0.00    +0.000 NA
ENDROOT
BRANCH   1  23
ATOM     22  C   UNL     1       4.935   5.920  17.549  0.00  0.00    +0.000 C 
ATOM     23  C   UNL     1       4.286   5.459  18.850  0.00  0.00    +0.000 C 
ENDBRANCH   1  23
BRANCH  17  24
ATOM     24  C   UNL     1       0.396  16.719  19.673  0.00  0.00    +0.000 C 
ATOM     25  C   UNL     1       0.790  17.054  21.122  0.00  0.00    +0.000 C 
BRANCH  24  26
ATOM     26  O   UNL     1       0.648  17.869  18.851  0.00  0.00    +0.000 OA
ATOM     27  H   UNL     1      -0.100  17.986  18.241  0.00  0.00    +0.000 HD
ENDBRANCH  24  26
ENDBRANCH  17  24
TORSDOF 3
ENDMDL
MODEL 6
REMARK VINA RESULT:      -5.9      1.410      1.661
REMARK  Name = 
REMARK  5 active torsions:
REMARK  status: ('A' for Active; 'I' for Inactive)
REMARK    1  A    between atoms: C_1  and  C_2
REMARK    2  A    between atoms: C_2  and  C_3
REMARK    3  A    between atoms: C_19  and  C_20
REMARK    4  A    between atoms: C_20  and  C_21
REMARK    5  A    between atoms: C_20  and  O_22
REMARK                            x       y       z     vdW  Elec       q    Type
REMARK                         _______ _______ _______ _____ _____    ______ ____
ROOT
ATOM      1  C   UNL     1       3.525   5.630  19.278  0.00  0.00    +0.000 A 
ATOM      2  C   UNL     1       2.977   6.810  18.766  0.00  0.00    +0.000 A 
ATOM      3  N   UNL     1       1.964   7.181  19.627  0.00  0.00    +0.000 N 
ATOM      4  C   UNL     1       1.321   8.425  19.875  0.00  0.00    +0.000 C 
ATOM      5  N   UNL     1       0.773   8.399  21.033  0.00  0.00    +0.000 NA
ATOM      6  C   UNL     1       0.462   9.452  21.960  0.00  0.00    +0.000 C 
ATOM      7  C   UNL     1       0.251  10.821  21.424  0.00  0.00    +0.000 C 
ATOM      8  O   UNL     1       0.302  11.808  22.157  0.00  0.00    +0.000 OA
ATOM      9  N   UNL     1      -0.126  10.840  20.085  0.00  0.00    +0.000 N 
ATOM     10  C   UNL     1      -1.182  11.782  19.737  0.00  0.00    +0.000 C 
ATOM     11  C   UNL     1      -0.737  13.216  19.855  0.00  0.00    +0.000 C 
ATOM     12  C   UNL     1       0.616  13.409  19.219  0.00  0.00    +0.000 A 
ATOM     13  C   UNL     1       1.373  12.261  18.755  0.00  0.00    +0.000 A 
ATOM     14  C   UNL     1       2.607  12.536  18.145  0.00  0.00    +0.000 A 
ATOM     15  C   UNL     1       3.090  13.855  18.047  0.00  0.00    +0.000 A 
ATOM     16  C   UNL     1       2.378  14.936  18.571  0.00  0.00    +0.000 A 
ATOM     17  C   UNL     1       1.125  14.750  19.161  0.00  0.00    +0.000 A 
ATOM     18  C   UNL     1       0.955  10.830  19.200  0.00  0.00    +0.000 C 
ATOM     19  C   UNL     1       1.538   9.623  18.946  0.00  0.00    +0.000 C 
ATOM     20  C   UNL     1       1.870   6.103  20.507  0.00  0.00    +0.000 A 
ATOM     21  N   UNL     1       2.790   5.185  20.328  0.00  0.00    +0.000 NA
ENDROOT
BRANCH   1  23
ATOM     22  C   UNL     1       4.548   3.943  17.711  0.00  0.00    +0.000 C 
ATOM     23  C   UNL     1       4.755   4.872  18.903  0.00  0.00    +0.000 C 
ENDBRANCH   1  23
BRANCH  17  24
ATOM     24  C   UNL     1       0.379  15.949  19.754  0.00  0.00    +0.000 C 
ATOM     25  C   UNL     1      -0.745  16.523  18.873  0.00  0.00    +0.000 C 
BRANCH  24  26
ATOM     26  O   UNL     1      -0.171  15.604  21.035  0.00  0.00    +0.000 OA
ATOM     27  H   UNL     1       0.481  15.820  21.723  0.00  0.00    +0.000 HD
ENDBRANCH  24  26
ENDBRANCH  17  24
TORSDOF 3
ENDMDL
MODEL 7
REMARK VINA RESULT:      -5.8      6.929     10.319
REMARK  Name = 
REMARK  5 active torsions:
REMARK  status: ('A' for Active; 'I' for Inactive)
REMARK    1  A    between atoms: C_1  and  C_2
REMARK    2  A    between atoms: C_2  and  C_3
REMARK    3  A    between atoms: C_19  and  C_20
REMARK    4  A    between atoms: C_20  and  C_21
REMARK    5  A    between atoms: C_20  and  O_22
REMARK                            x       y       z     vdW  Elec       q    Type
REMARK                         _______ _______ _______ _____ _____    ______ ____
ROOT
ATOM      1  C   UNL     1       1.283  16.839  18.964  0.00  0.00    +0.000 A 
ATOM      2  C   UNL     1       2.558  16.619  18.434  0.00  0.00    +0.000 A 
ATOM      3  N   UNL     1       3.461  17.092  19.365  0.00  0.00    +0.000 N 
ATOM      4  C   UNL     1       4.837  16.817  19.594  0.00  0.00    +0.000 C 
ATOM      5  N   UNL     1       5.139  17.129  20.800  0.00  0.00    +0.000 NA
ATOM      6  C   UNL     1       6.155  16.628  21.684  0.00  0.00    +0.000 C 
ATOM      7  C   UNL     1       7.376  16.030  21.085  0.00  0.00    +0.000 C 
ATOM      8  O   UNL     1       8.122  15.307  21.744  0.00  0.00    +0.000 OA
ATOM      9  N   UNL     1       7.632  16.473  19.791  0.00  0.00    +0.000 N 
ATOM     10  C   UNL     1       9.025  16.778  19.489  0.00  0.00    +0.000 C 
ATOM     11  C   UNL     1       9.893  15.546  19.470  0.00  0.00    +0.000 C 
ATOM     12  C   UNL     1       9.230  14.439  18.692  0.00  0.00    +0.000 A 
ATOM     13  C   UNL     1       7.862  14.590  18.231  0.00  0.00    +0.000 A 
ATOM     14  C   UNL     1       7.336  13.523  17.485  0.00  0.00    +0.000 A 
ATOM     15  C   UNL     1       8.091  12.357  17.255  0.00  0.00    +0.000 A 
ATOM     16  C   UNL     1       9.378  12.204  17.776  0.00  0.00    +0.000 A 
ATOM     17  C   UNL     1       9.986  13.234  18.497  0.00  0.00    +0.000 A 
ATOM     18  C   UNL     1       6.976  15.732  18.806  0.00  0.00    +0.000 C 
ATOM     19  C   UNL     1       5.665  16.031  18.574  0.00  0.00    +0.000 C 
ATOM     20  C   UNL     1       2.653  17.713  20.317  0.00  0.00    +0.000 A 
ATOM     21  N   UNL     1       1.368  17.564  20.108  0.00  0.00    +0.000 NA
ENDROOT
BRANCH   1  23
ATOM     22  C   UNL     1      -1.111  17.480  18.513  0.00  0.00    +0.000 C 
ATOM     23  C   UNL     1      -0.063  16.372  18.518  0.00  0.00    +0.000 C 
ENDBRANCH   1  23
BRANCH  17  24
ATOM     24  C   UNL     1      11.386  13.027  19.084  0.00  0.00    +0.000 C 
ATOM     25  C   UNL     1      11.467  12.023  20.247  0.00  0.00    +0.000 C 
BRANCH  24  26
ATOM     26  O   UNL     1      12.297  12.613  18.054  0.00  0.00    +0.000 OA
ATOM     27  H   UNL     1      11.813  12.560  17.213  0.00  0.00    +0.000 HD
ENDBRANCH  24  26
ENDBRANCH  17  24
TORSDOF 3
ENDMDL
MODEL 8
REMARK VINA RESULT:      -5.7      6.072      8.559
REMARK  Name = 
REMARK  5 active torsions:
REMARK  status: ('A' for Active; 'I' for Inactive)
REMARK    1  A    between atoms: C_1  and  C_2
REMARK    2  A    between atoms: C_2  and  C_3
REMARK    3  A    between atoms: C_19  and  C_20
REMARK    4  A    between atoms: C_20  and  C_21
REMARK    5  A    between atoms: C_20  and  O_22
REMARK                            x       y       z     vdW  Elec       q    Type
REMARK                         _______ _______ _______ _____ _____    ______ ____
ROOT
ATOM      1  C   UNL     1       1.066  12.070  18.844  0.00  0.00    +0.000 A 
ATOM      2  C   UNL     1       2.203  12.635  18.259  0.00  0.00    +0.000 A 
ATOM      3  N   UNL     1       2.519  13.752  19.008  0.00  0.00    +0.000 N 
ATOM      4  C   UNL     1       3.723  14.491  19.169  0.00  0.00    +0.000 C 
ATOM      5  N   UNL     1       3.674  15.151  20.267  0.00  0.00    +0.000 NA
ATOM      6  C   UNL     1       4.715  15.618  21.140  0.00  0.00    +0.000 C 
ATOM      7  C   UNL     1       6.063  15.858  20.562  0.00  0.00    +0.000 C 
ATOM      8  O   UNL     1       7.059  15.942  21.280  0.00  0.00    +0.000 OA
ATOM      9  N   UNL     1       6.043  16.098  19.192  0.00  0.00    +0.000 N 
ATOM     10  C   UNL     1       6.913  17.170  18.724  0.00  0.00    +0.000 C 
ATOM     11  C   UNL     1       8.374  16.828  18.862  0.00  0.00    +0.000 C 
ATOM     12  C   UNL     1       8.645  15.433  18.361  0.00  0.00    +0.000 A 
ATOM     13  C   UNL     1       7.542  14.564  17.995  0.00  0.00    +0.000 A 
ATOM     14  C   UNL     1       7.888  13.293  17.507  0.00  0.00    +0.000 A 
ATOM     15  C   UNL     1       9.234  12.885  17.435  0.00  0.00    +0.000 A 
ATOM     16  C   UNL     1      10.273  13.712  17.866  0.00  0.00    +0.000 A 
ATOM     17  C   UNL     1      10.015  15.005  18.331  0.00  0.00    +0.000 A 
ATOM     18  C   UNL     1       6.093  14.935  18.420  0.00  0.00    +0.000 C 
ATOM     19  C   UNL     1       4.922  14.256  18.246  0.00  0.00    +0.000 C 
ATOM     20  C   UNL     1       1.447  13.866  19.892  0.00  0.00    +0.000 A 
ATOM     21  N   UNL     1       0.587  12.879  19.822  0.00  0.00    +0.000 NA
ENDROOT
BRANCH   1  23
ATOM     22  C   UNL     1       1.344   9.647  18.213  0.00  0.00    +0.000 C 
ATOM     23  C   UNL     1       0.383  10.764  18.606  0.00  0.00    +0.000 C 
ENDBRANCH   1  23
BRANCH  17  24
ATOM     24  C   UNL     1      11.171  15.879  18.827  0.00  0.00    +0.000 C 
ATOM     25  C   UNL     1      12.306  15.121  19.538  0.00  0.00    +0.000 C 
BRANCH  24  26
ATOM     26  O   UNL     1      11.730  16.625  17.735  0.00  0.00    +0.000 OA
ATOM     27  H   UNL     1      12.493  16.138  17.383  0.00  0.00    +0.000 HD
ENDBRANCH  24  26
ENDBRANCH  17  24
TORSDOF 3
ENDMDL
MODEL 9
REMARK VINA RESULT:      -5.7      5.899      8.623
REMARK  Name = 
REMARK  5 active torsions:
REMARK  status: ('A' for Active; 'I' for Inactive)
REMARK    1  A    between atoms: C_1  and  C_2
REMARK    2  A    between atoms: C_2  and  C_3
REMARK    3  A    between atoms: C_19  and  C_20
REMARK    4  A    between atoms: C_20  and  C_21
REMARK    5  A    between atoms: C_20  and  O_22
REMARK                            x       y       z     vdW  Elec       q    Type
REMARK                         _______ _______ _______ _____ _____    ______ ____
ROOT
ATOM      1  C   UNL     1      -5.811  13.251  24.000  0.00  0.00    +0.000 A 
ATOM      2  C   UNL     1      -4.855  14.187  23.595  0.00  0.00    +0.000 A 
ATOM      3  N   UNL     1      -3.625  13.570  23.709  0.00  0.00    +0.000 N 
ATOM      4  C   UNL     1      -2.361  13.830  23.110  0.00  0.00    +0.000 C 
ATOM      5  N   UNL     1      -1.643  12.769  23.154  0.00  0.00    +0.000 NA
ATOM      6  C   UNL     1      -0.571  12.313  22.312  0.00  0.00    +0.000 C 
ATOM      7  C   UNL     1       0.218  13.327  21.567  0.00  0.00    +0.000 C 
ATOM      8  O   UNL     1       0.916  13.011  20.605  0.00  0.00    +0.000 OA
ATOM      9  N   UNL     1       0.178  14.593  22.143  0.00  0.00    +0.000 N 
ATOM     10  C   UNL     1       1.446  15.311  22.182  0.00  0.00    +0.000 C 
ATOM     11  C   UNL     1       1.923  15.713  20.811  0.00  0.00    +0.000 C 
ATOM     12  C   UNL     1       0.797  16.316  20.010  0.00  0.00    +0.000 A 
ATOM     13  C   UNL     1      -0.559  16.288  20.525  0.00  0.00    +0.000 A 
ATOM     14  C   UNL     1      -1.539  16.902  19.729  0.00  0.00    +0.000 A 
ATOM     15  C   UNL     1      -1.212  17.461  18.478  0.00  0.00    +0.000 A 
ATOM     16  C   UNL     1       0.087  17.407  17.970  0.00  0.00    +0.000 A 
ATOM     17  C   UNL     1       1.126  16.845  18.717  0.00  0.00    +0.000 A 
ATOM     18  C   UNL     1      -0.910  15.363  21.726  0.00  0.00    +0.000 C 
ATOM     19  C   UNL     1      -2.108  15.126  22.335  0.00  0.00    +0.000 C 
ATOM     20  C   UNL     1      -3.923  12.358  24.331  0.00  0.00    +0.000 A 
ATOM     21  N   UNL     1      -5.205  12.144  24.499  0.00  0.00    +0.000 NA
ENDROOT
BRANCH   1  23
ATOM     22  C   UNL     1      -7.821  13.019  22.499  0.00  0.00    +0.000 C 
ATOM     23  C   UNL     1      -7.301  13.264  23.912  0.00  0.00    +0.000 C 
ENDBRANCH   1  23
BRANCH  17  24
ATOM     24  C   UNL     1       2.536  16.771  18.122  0.00  0.00    +0.000 C 
ATOM     25  C   UNL     1       3.002  15.362  17.717  0.00  0.00    +0.000 C 
BRANCH  24  26
ATOM     26  O   UNL     1       2.636  17.634  16.979  0.00  0.00    +0.000 OA
ATOM     27  H   UNL     1       2.879  17.099  16.205  0.00  0.00    +0.000 HD
ENDBRANCH  24  26
ENDBRANCH  17  24
TORSDOF 3
ENDMDL
