MODEL 1
REMARK VINA RESULT:      -8.6      0.000      0.000
REMARK  Name = 
REMARK  6 active torsions:
REMARK  status: ('A' for Active; 'I' for Inactive)
REMARK    1  A    between atoms: C_1  and  C_2
REMARK    2  A    between atoms: C_2  and  C_3
REMARK    3  A    between atoms: C_3  and  C_4
REMARK    4  A    between atoms: C_4  and  N_5
REMARK    5  A    between atoms: C_11  and  C_12
REMARK    6  A    between atoms: C_19  and  C_20
REMARK                            x       y       z     vdW  Elec       q    Type
REMARK                         _______ _______ _______ _____ _____    ______ ____
ROOT
ATOM      1  N   UNL     1       6.761   5.185  14.106  0.00  0.00    +0.000 N 
ATOM      2  C   UNL     1       5.843   5.053  15.141  0.00  0.00    +0.000 C 
ATOM      3  O   UNL     1       5.370   3.959  15.430  0.00  0.00    +0.000 OA
ATOM      4  N   UNL     1       5.533   6.260  15.719  0.00  0.00    +0.000 N 
ATOM      5  C   UNL     1       4.644   6.315  16.758  0.00  0.00    +0.000 A 
ATOM      6  N   UNL     1       4.224   5.338  17.513  0.00  0.00    +0.000 NA
ATOM      7  C   UNL     1       3.227   5.775  18.368  0.00  0.00    +0.000 A 
ATOM      8  C   UNL     1       2.949   7.143  18.305  0.00  0.00    +0.000 A 
ATOM      9  S   UNL     1       3.996   7.853  17.110  0.00  0.00    +0.000 S 
ATOM     10  H   UNL     1       7.496   5.855  14.284  0.00  0.00    +0.000 HD
ATOM     11  H   UNL     1       5.713   7.106  15.208  0.00  0.00    +0.000 HD
ENDROOT
BRANCH   7  12
ATOM     12  C   UNL     1       2.597   4.796  19.256  0.00  0.00    +0.000 A 
ATOM     13  C   UNL     1       3.157   4.572  20.525  0.00  0.00    +0.000 A 
ATOM     14  C   UNL     1       2.530   3.726  21.442  0.00  0.00    +0.000 A 
ATOM     15  C   UNL     1       1.335   3.108  21.093  0.00  0.00    +0.000 A 
ATOM     16  F   UNL     1       0.702   2.338  21.988  0.00  0.00    +0.000 F 
ATOM     17  C   UNL     1       0.790   3.273  19.829  0.00  0.00    +0.000 A 
ATOM     18  C   UNL     1       1.441   4.083  18.897  0.00  0.00    +0.000 A 
ENDBRANCH   7  12
BRANCH   8  19
ATOM     19  C   UNL     1       1.969   7.976  19.033  0.00  0.00    +0.000 A 
ATOM     20  C   UNL     1       1.362   9.078  18.408  0.00  0.00    +0.000 A 
ATOM     21  C   UNL     1       0.655  10.034  19.146  0.00  0.00    +0.000 A 
ATOM     22  C   UNL     1       0.474   9.852  20.513  0.00  0.00    +0.000 A 
ATOM     23 CL   UNL     1      -0.345  11.050  21.434  0.00  0.00    +0.000 Cl
ATOM     24  C   UNL     1       0.975   8.714  21.137  0.00  0.00    +0.000 A 
ATOM     25  C   UNL     1       1.725   7.786  20.405  0.00  0.00    +0.000 A 
ENDBRANCH   8  19
BRANCH   1  26
ATOM     26  C   UNL     1       7.143   3.964  13.415  0.00  0.00    +0.000 C 
BRANCH  26  27
ATOM     27  C   UNL     1       6.570   3.851  12.006  0.00  0.00    +0.000 C 
BRANCH  27  29
ATOM     28  C   UNL     1       4.194   3.296  11.316  0.00  0.00    +0.000 C 
ATOM     29  C   UNL     1       5.469   2.787  11.969  0.00  0.00    +0.000 C 
ENDBRANCH  27  29
ENDBRANCH  26  27
ENDBRANCH   1  26
TORSDOF 5
ENDMDL
MODEL 2
REMARK VINA RESULT:      -7.7      0.761      1.291
REMARK  Name = 
REMARK  6 active torsions:
REMARK  status: ('A' for Active; 'I' for Inactive)
REMARK    1  A    between atoms: C_1  and  C_2
REMARK    2  A    between atoms: C_2  and  C_3
REMARK    3  A    between atoms: C_3  and  C_4
REMARK    4  A    between atoms: C_4  and  N_5
REMARK    5  A    between atoms: C_11  and  C_12
REMARK    6  A    between atoms: C_19  and  C_20
REMARK                            x       y       z     vdW  Elec       q    Type
REMARK                         _______ _______ _______ _____ _____    ______ ____
ROOT
ATOM      1  N   UNL     1       6.665   4.736  13.558  0.00  0.00    +0.000 N 
ATOM      2  C   UNL     1       5.796   4.661  14.640  0.00  0.00    +0.000 C 
ATOM      3  O   UNL     1       5.218   3.614  14.915  0.00  0.00    +0.000 OA
ATOM      4  N   UNL     1       5.657   5.867  15.282  0.00  0.00    +0.000 N 
ATOM      5  C   UNL     1       4.838   5.974  16.374  0.00  0.00    +0.000 A 
ATOM      6  N   UNL     1       4.352   5.016  17.114  0.00  0.00    +0.000 NA
ATOM      7  C   UNL     1       3.459   5.523  18.043  0.00  0.00    +0.000 A 
ATOM      8  C   UNL     1       3.336   6.914  18.049  0.00  0.00    +0.000 A 
ATOM      9  S   UNL     1       4.389   7.557  16.822  0.00  0.00    +0.000 S 
ATOM     10  H   UNL     1       7.479   5.312  13.718  0.00  0.00    +0.000 HD
ATOM     11  H   UNL     1       5.903   6.711  14.794  0.00  0.00    +0.000 HD
ENDROOT
BRANCH   7  12
ATOM     12  C   UNL     1       2.773   4.581  18.929  0.00  0.00    +0.000 A 
ATOM     13  C   UNL     1       3.441   4.116  20.074  0.00  0.00    +0.000 A 
ATOM     14  C   UNL     1       2.785   3.301  20.999  0.00  0.00    +0.000 A 
ATOM     15  C   UNL     1       1.457   2.955  20.784  0.00  0.00    +0.000 A 
ATOM     16  F   UNL     1       0.810   2.217  21.695  0.00  0.00    +0.000 F 
ATOM     17  C   UNL     1       0.793   3.358  19.635  0.00  0.00    +0.000 A 
ATOM     18  C   UNL     1       1.462   4.136  18.689  0.00  0.00    +0.000 A 
ENDBRANCH   7  12
BRANCH   8  19
ATOM     19  C   UNL     1       2.498   7.818  18.866  0.00  0.00    +0.000 A 
ATOM     20  C   UNL     1       2.177   7.489  20.195  0.00  0.00    +0.000 A 
ATOM     21  C   UNL     1       1.174   8.173  20.891  0.00  0.00    +0.000 A 
ATOM     22  C   UNL     1       0.537   9.254  20.292  0.00  0.00    +0.000 A 
ATOM     23 CL   UNL     1      -0.734  10.063  21.121  0.00  0.00    +0.000 Cl
ATOM     24  C   UNL     1       0.910   9.666  19.017  0.00  0.00    +0.000 A 
ATOM     25  C   UNL     1       1.878   8.948  18.305  0.00  0.00    +0.000 A 
ENDBRANCH   8  19
BRANCH   1  26
ATOM     26  C   UNL     1       6.868   3.513  12.799  0.00  0.00    +0.000 C 
BRANCH  26  27
ATOM     27  C   UNL     1       5.914   3.356  11.620  0.00  0.00    +0.000 C 
BRANCH  27  29
ATOM     28  C   UNL     1       6.708   1.010  11.075  0.00  0.00    +0.000 C 
ATOM     29  C   UNL     1       5.522   1.885  11.450  0.00  0.00    +0.000 C 
ENDBRANCH  27  29
ENDBRANCH  26  27
ENDBRANCH   1  26
TORSDOF 5
ENDMDL
MODEL 3
REMARK VINA RESULT:      -7.7      0.441      1.388
REMARK  Name = 
REMARK  6 active torsions:
REMARK  status: ('A' for Active; 'I' for Inactive)
REMARK    1  A    between atoms: C_1  and  C_2
REMARK    2  A    between atoms: C_2  and  C_3
REMARK    3  A    between atoms: C_3  and  C_4
REMARK    4  A    between atoms: C_4  and  N_5
REMARK    5  A    between atoms: C_11  and  C_12
REMARK    6  A    between atoms: C_19  and  C_20
REMARK                            x       y       z     vdW  Elec       q    Type
REMARK                         _______ _______ _______ _____ _____    ______ ____
ROOT
ATOM      1  N   UNL     1       6.382   4.628  14.014  0.00  0.00    +0.000 N 
ATOM      2  C   UNL     1       5.520   4.647  15.104  0.00  0.00    +0.000 C 
ATOM      3  O   UNL     1       4.943   3.628  15.470  0.00  0.00    +0.000 OA
ATOM      4  N   UNL     1       5.388   5.904  15.642  0.00  0.00    +0.000 N 
ATOM      5  C   UNL     1       4.576   6.105  16.726  0.00  0.00    +0.000 A 
ATOM      6  N   UNL     1       4.093   5.215  17.548  0.00  0.00    +0.000 NA
ATOM      7  C   UNL     1       3.207   5.800  18.436  0.00  0.00    +0.000 A 
ATOM      8  C   UNL     1       3.086   7.188  18.325  0.00  0.00    +0.000 A 
ATOM      9  S   UNL     1       4.133   7.721  17.042  0.00  0.00    +0.000 S 
ATOM     10  H   UNL     1       7.198   5.214  14.119  0.00  0.00    +0.000 HD
ATOM     11  H   UNL     1       5.632   6.702  15.082  0.00  0.00    +0.000 HD
ENDROOT
BRANCH   7  12
ATOM     12  C   UNL     1       2.525   4.939  19.403  0.00  0.00    +0.000 A 
ATOM     13  C   UNL     1       1.397   4.211  18.987  0.00  0.00    +0.000 A 
ATOM     14  C   UNL     1       0.780   3.300  19.847  0.00  0.00    +0.000 A 
ATOM     15  C   UNL     1       1.296   3.108  21.122  0.00  0.00    +0.000 A 
ATOM     16  F   UNL     1       0.740   2.196  21.931  0.00  0.00    +0.000 F 
ATOM     17  C   UNL     1       2.376   3.852  21.574  0.00  0.00    +0.000 A 
ATOM     18  C   UNL     1       2.965   4.795  20.729  0.00  0.00    +0.000 A 
ENDBRANCH   7  12
BRANCH   8  19
ATOM     19  C   UNL     1       2.255   8.159  19.068  0.00  0.00    +0.000 A 
ATOM     20  C   UNL     1       1.837   7.884  20.382  0.00  0.00    +0.000 A 
ATOM     21  C   UNL     1       0.835   8.643  20.998  0.00  0.00    +0.000 A 
ATOM     22  C   UNL     1       0.300   9.743  20.337  0.00  0.00    +0.000 A 
ATOM     23 CL   UNL     1      -0.968  10.646  21.067  0.00  0.00    +0.000 Cl
ATOM     24  C   UNL     1       0.774  10.099  19.079  0.00  0.00    +0.000 A 
ATOM     25  C   UNL     1       1.739   9.308  18.443  0.00  0.00    +0.000 A 
ENDBRANCH   8  19
BRANCH   1  26
ATOM     26  C   UNL     1       6.578   3.345  13.360  0.00  0.00    +0.000 C 
BRANCH  26  27
ATOM     27  C   UNL     1       6.043   3.295  11.933  0.00  0.00    +0.000 C 
BRANCH  27  29
ATOM     28  C   UNL     1       3.896   3.507  10.600  0.00  0.00    +0.000 C 
ATOM     29  C   UNL     1       4.517   3.165  11.945  0.00  0.00    +0.000 C 
ENDBRANCH  27  29
ENDBRANCH  26  27
ENDBRANCH   1  26
TORSDOF 5
ENDMDL
MODEL 4
REMARK VINA RESULT:      -7.3      4.113      8.198
REMARK  Name = 
REMARK  6 active torsions:
REMARK  status: ('A' for Active; 'I' for Inactive)
REMARK    1  A    between atoms: C_1  and  C_2
REMARK    2  A    between atoms: C_2  and  C_3
REMARK    3  A    between atoms: C_3  and  C_4
REMARK    4  A    between atoms: C_4  and  N_5
REMARK    5  A    between atoms: C_11  and  C_12
REMARK    6  A    between atoms: C_19  and  C_20
REMARK                            x       y       z     vdW  Elec       q    Type
REMARK                         _______ _______ _______ _____ _____    ______ ____
ROOT
ATOM      1  N   UNL     1       0.123  11.570  20.765  0.00  0.00    +0.000 N 
ATOM      2  C   UNL     1       0.543  10.249  20.673  0.00  0.00    +0.000 C 
ATOM      3  O   UNL     1       0.417   9.479  21.620  0.00  0.00    +0.000 OA
ATOM      4  N   UNL     1       1.122   9.969  19.459  0.00  0.00    +0.000 N 
ATOM      5  C   UNL     1       1.592   8.710  19.197  0.00  0.00    +0.000 A 
ATOM      6  N   UNL     1       1.326   7.601  19.830  0.00  0.00    +0.000 NA
ATOM      7  C   UNL     1       2.100   6.563  19.342  0.00  0.00    +0.000 A 
ATOM      8  C   UNL     1       2.913   6.890  18.254  0.00  0.00    +0.000 A 
ATOM      9  S   UNL     1       2.666   8.570  17.879  0.00  0.00    +0.000 S 
ATOM     10  H   UNL     1      -0.292  11.934  19.919  0.00  0.00    +0.000 HD
ATOM     11  H   UNL     1       1.468  10.727  18.897  0.00  0.00    +0.000 HD
ENDROOT
BRANCH   7  12
ATOM     12  C   UNL     1       1.972   5.248  19.973  0.00  0.00    +0.000 A 
ATOM     13  C   UNL     1       2.673   4.996  21.164  0.00  0.00    +0.000 A 
ATOM     14  C   UNL     1       2.498   3.794  21.853  0.00  0.00    +0.000 A 
ATOM     15  C   UNL     1       1.614   2.844  21.355  0.00  0.00    +0.000 A 
ATOM     16  F   UNL     1       1.404   1.713  22.041  0.00  0.00    +0.000 F 
ATOM     17  C   UNL     1       0.951   3.048  20.155  0.00  0.00    +0.000 A 
ATOM     18  C   UNL     1       1.161   4.231  19.444  0.00  0.00    +0.000 A 
ENDBRANCH   7  12
BRANCH   8  19
ATOM     19  C   UNL     1       3.872   6.080  17.472  0.00  0.00    +0.000 A 
ATOM     20  C   UNL     1       4.839   6.701  16.662  0.00  0.00    +0.000 A 
ATOM     21  C   UNL     1       5.564   5.975  15.711  0.00  0.00    +0.000 A 
ATOM     22  C   UNL     1       5.391   4.598  15.618  0.00  0.00    +0.000 A 
ATOM     23 CL   UNL     1       6.239   3.709  14.415  0.00  0.00    +0.000 Cl
ATOM     24  C   UNL     1       4.518   3.945  16.481  0.00  0.00    +0.000 A 
ATOM     25  C   UNL     1       3.756   4.681  17.396  0.00  0.00    +0.000 A 
ENDBRANCH   8  19
BRANCH   1  26
ATOM     26  C   UNL     1      -0.490  11.973  22.020  0.00  0.00    +0.000 C 
BRANCH  26  27
ATOM     27  C   UNL     1      -1.991  12.224  21.918  0.00  0.00    +0.000 C 
BRANCH  27  29
ATOM     28  C   UNL     1      -1.233  13.990  23.574  0.00  0.00    +0.000 C 
ATOM     29  C   UNL     1      -2.420  13.279  22.942  0.00  0.00    +0.000 C 
ENDBRANCH  27  29
ENDBRANCH  26  27
ENDBRANCH   1  26
TORSDOF 5
ENDMDL
MODEL 5
REMARK VINA RESULT:      -7.2      4.521      7.006
REMARK  Name = 
REMARK  6 active torsions:
REMARK  status: ('A' for Active; 'I' for Inactive)
REMARK    1  A    between atoms: C_1  and  C_2
REMARK    2  A    between atoms: C_2  and  C_3
REMARK    3  A    between atoms: C_3  and  C_4
REMARK    4  A    between atoms: C_4  and  N_5
REMARK    5  A    between atoms: C_11  and  C_12
REMARK    6  A    between atoms: C_19  and  C_20
REMARK                            x       y       z     vdW  Elec       q    Type
REMARK                         _______ _______ _______ _____ _____    ______ ____
ROOT
ATOM      1  N   UNL     1       3.473   5.858  19.830  0.00  0.00    +0.000 N 
ATOM      2  C   UNL     1       2.534   6.862  19.627  0.00  0.00    +0.000 C 
ATOM      3  O   UNL     1       2.181   7.178  18.495  0.00  0.00    +0.000 OA
ATOM      4  N   UNL     1       2.125   7.439  20.805  0.00  0.00    +0.000 N 
ATOM      5  C   UNL     1       1.198   8.447  20.790  0.00  0.00    +0.000 A 
ATOM      6  N   UNL     1       0.392   8.788  19.823  0.00  0.00    +0.000 NA
ATOM      7  C   UNL     1      -0.299   9.942  20.147  0.00  0.00    +0.000 A 
ATOM      8  C   UNL     1      -0.060  10.435  21.433  0.00  0.00    +0.000 A 
ATOM      9  S   UNL     1       1.085   9.382  22.212  0.00  0.00    +0.000 S 
ATOM     10  H   UNL     1       3.290   5.274  20.634  0.00  0.00    +0.000 HD
ATOM     11  H   UNL     1       2.702   7.342  21.622  0.00  0.00    +0.000 HD
ENDROOT
BRANCH   7  12
ATOM     12  C   UNL     1      -1.215  10.504  19.153  0.00  0.00    +0.000 A 
ATOM     13  C   UNL     1      -1.180  10.006  17.840  0.00  0.00    +0.000 A 
ATOM     14  C   UNL     1      -2.105  10.440  16.888  0.00  0.00    +0.000 A 
ATOM     15  C   UNL     1      -3.074  11.368  17.252  0.00  0.00    +0.000 A 
ATOM     16  F   UNL     1      -3.996  11.746  16.357  0.00  0.00    +0.000 F 
ATOM     17  C   UNL     1      -3.096  11.912  18.527  0.00  0.00    +0.000 A 
ATOM     18  C   UNL     1      -2.143  11.511  19.464  0.00  0.00    +0.000 A 
ENDBRANCH   7  12
BRANCH   8  19
ATOM     19  C   UNL     1      -0.587  11.623  22.138  0.00  0.00    +0.000 A 
ATOM     20  C   UNL     1      -1.705  11.517  22.982  0.00  0.00    +0.000 A 
ATOM     21  C   UNL     1      -2.385  12.653  23.434  0.00  0.00    +0.000 A 
ATOM     22  C   UNL     1      -1.900  13.917  23.115  0.00  0.00    +0.000 A 
ATOM     23 CL   UNL     1      -2.761  15.316  23.621  0.00  0.00    +0.000 Cl
ATOM     24  C   UNL     1      -0.733  14.049  22.369  0.00  0.00    +0.000 A 
ATOM     25  C   UNL     1      -0.085  12.910  21.875  0.00  0.00    +0.000 A 
ENDBRANCH   8  19
BRANCH   1  26
ATOM     26  C   UNL     1       3.984   5.195  18.642  0.00  0.00    +0.000 C 
BRANCH  26  27
ATOM     27  C   UNL     1       3.542   3.741  18.512  0.00  0.00    +0.000 C 
BRANCH  27  29
ATOM     28  C   UNL     1       1.118   2.997  18.563  0.00  0.00    +0.000 C 
ATOM     29  C   UNL     1       2.217   3.659  17.748  0.00  0.00    +0.000 C 
ENDBRANCH  27  29
ENDBRANCH  26  27
ENDBRANCH   1  26
TORSDOF 5
ENDMDL
MODEL 6
REMARK VINA RESULT:      -7.1      4.543      6.934
REMARK  Name = 
REMARK  6 active torsions:
REMARK  status: ('A' for Active; 'I' for Inactive)
REMARK    1  A    between atoms: C_1  and  C_2
REMARK    2  A    between atoms: C_2  and  C_3
REMARK    3  A    between atoms: C_3  and  C_4
REMARK    4  A    between atoms: C_4  and  N_5
REMARK    5  A    between atoms: C_11  and  C_12
REMARK    6  A    between atoms: C_19  and  C_20
REMARK                            x       y       z     vdW  Elec       q    Type
REMARK                         _______ _______ _______ _____ _____    ______ ____
ROOT
ATOM      1  N   UNL     1       3.459   5.891  19.969  0.00  0.00    +0.000 N 
ATOM      2  C   UNL     1       2.518   6.878  19.697  0.00  0.00    +0.000 C 
ATOM      3  O   UNL     1       2.174   7.122  18.545  0.00  0.00    +0.000 OA
ATOM      4  N   UNL     1       2.098   7.524  20.834  0.00  0.00    +0.000 N 
ATOM      5  C   UNL     1       1.169   8.526  20.750  0.00  0.00    +0.000 A 
ATOM      6  N   UNL     1       0.370   8.804  19.757  0.00  0.00    +0.000 NA
ATOM      7  C   UNL     1      -0.328   9.974  20.005  0.00  0.00    +0.000 A 
ATOM      8  C   UNL     1      -0.101  10.545  21.260  0.00  0.00    +0.000 A 
ATOM      9  S   UNL     1       1.041   9.546  22.111  0.00  0.00    +0.000 S 
ATOM     10  H   UNL     1       3.271   5.357  20.806  0.00  0.00    +0.000 HD
ATOM     11  H   UNL     1       2.668   7.479  21.660  0.00  0.00    +0.000 HD
ENDROOT
BRANCH   7  12
ATOM     12  C   UNL     1      -1.237  10.471  18.971  0.00  0.00    +0.000 A 
ATOM     13  C   UNL     1      -1.176   9.907  17.685  0.00  0.00    +0.000 A 
ATOM     14  C   UNL     1      -2.094  10.278  16.700  0.00  0.00    +0.000 A 
ATOM     15  C   UNL     1      -3.081  11.208  17.003  0.00  0.00    +0.000 A 
ATOM     16  F   UNL     1      -3.995  11.527  16.077  0.00  0.00    +0.000 F 
ATOM     17  C   UNL     1      -3.129  11.817  18.247  0.00  0.00    +0.000 A 
ATOM     18  C   UNL     1      -2.183  11.479  19.217  0.00  0.00    +0.000 A 
ENDBRANCH   7  12
BRANCH   8  19
ATOM     19  C   UNL     1      -0.636  11.773  21.886  0.00  0.00    +0.000 A 
ATOM     20  C   UNL     1       0.003  13.010  21.696  0.00  0.00    +0.000 A 
ATOM     21  C   UNL     1      -0.312  14.120  22.489  0.00  0.00    +0.000 A 
ATOM     22  C   UNL     1      -1.335  14.027  23.426  0.00  0.00    +0.000 A 
ATOM     23 CL   UNL     1      -1.690  15.370  24.440  0.00  0.00    +0.000 Cl
ATOM     24  C   UNL     1      -2.055  12.845  23.559  0.00  0.00    +0.000 A 
ATOM     25  C   UNL     1      -1.703  11.721  22.801  0.00  0.00    +0.000 A 
ENDBRANCH   8  19
BRANCH   1  26
ATOM     26  C   UNL     1       3.982   5.158  18.828  0.00  0.00    +0.000 C 
BRANCH  26  27
ATOM     27  C   UNL     1       4.285   3.693  19.127  0.00  0.00    +0.000 C 
BRANCH  27  29
ATOM     28  C   UNL     1       2.370   3.575  17.469  0.00  0.00    +0.000 C 
ATOM     29  C   UNL     1       3.354   2.786  18.317  0.00  0.00    +0.000 C 
ENDBRANCH  27  29
ENDBRANCH  26  27
ENDBRANCH   1  26
TORSDOF 5
ENDMDL
MODEL 7
REMARK VINA RESULT:      -7.1      4.461      6.909
REMARK  Name = 
REMARK  6 active torsions:
REMARK  status: ('A' for Active; 'I' for Inactive)
REMARK    1  A    between atoms: C_1  and  C_2
REMARK    2  A    between atoms: C_2  and  C_3
REMARK    3  A    between atoms: C_3  and  C_4
REMARK    4  A    between atoms: C_4  and  N_5
REMARK    5  A    between atoms: C_11  and  C_12
REMARK    6  A    between atoms: C_19  and  C_20
REMARK                            x       y       z     vdW  Elec       q    Type
REMARK                         _______ _______ _______ _____ _____    ______ ____
ROOT
ATOM      1  N   UNL     1       3.563   5.971  19.732  0.00  0.00    +0.000 N 
ATOM      2  C   UNL     1       2.602   6.946  19.494  0.00  0.00    +0.000 C 
ATOM      3  O   UNL     1       2.250   7.220  18.351  0.00  0.00    +0.000 OA
ATOM      4  N   UNL     1       2.172   7.546  20.653  0.00  0.00    +0.000 N 
ATOM      5  C   UNL     1       1.222   8.531  20.603  0.00  0.00    +0.000 A 
ATOM      6  N   UNL     1       0.415   8.825  19.621  0.00  0.00    +0.000 NA
ATOM      7  C   UNL     1      -0.306   9.971  19.908  0.00  0.00    +0.000 A 
ATOM      8  C   UNL     1      -0.087  10.506  21.181  0.00  0.00    +0.000 A 
ATOM      9  S   UNL     1       1.077   9.503  21.997  0.00  0.00    +0.000 S 
ATOM     10  H   UNL     1       3.389   5.406  20.551  0.00  0.00    +0.000 HD
ATOM     11  H   UNL     1       2.745   7.486  21.475  0.00  0.00    +0.000 HD
ENDROOT
BRANCH   7  12
ATOM     12  C   UNL     1      -1.227  10.483  18.893  0.00  0.00    +0.000 A 
ATOM     13  C   UNL     1      -1.222   9.898  17.615  0.00  0.00    +0.000 A 
ATOM     14  C   UNL     1      -2.156  10.285  16.651  0.00  0.00    +0.000 A 
ATOM     15  C   UNL     1      -3.102  11.252  16.966  0.00  0.00    +0.000 A 
ATOM     16  F   UNL     1      -4.032  11.587  16.062  0.00  0.00    +0.000 F 
ATOM     17  C   UNL     1      -3.095  11.881  18.202  0.00  0.00    +0.000 A 
ATOM     18  C   UNL     1      -2.133  11.525  19.150  0.00  0.00    +0.000 A 
ENDBRANCH   7  12
BRANCH   8  19
ATOM     19  C   UNL     1      -0.646  11.701  21.847  0.00  0.00    +0.000 A 
ATOM     20  C   UNL     1      -0.042  12.960  21.683  0.00  0.00    +0.000 A 
ATOM     21  C   UNL     1      -0.375  14.039  22.510  0.00  0.00    +0.000 A 
ATOM     22  C   UNL     1      -1.382  13.894  23.458  0.00  0.00    +0.000 A 
ATOM     23 CL   UNL     1      -1.758  15.198  24.513  0.00  0.00    +0.000 Cl
ATOM     24  C   UNL     1      -2.068  12.689  23.568  0.00  0.00    +0.000 A 
ATOM     25  C   UNL     1      -1.698  11.597  22.775  0.00  0.00    +0.000 A 
ENDBRANCH   8  19
BRANCH   1  26
ATOM     26  C   UNL     1       4.098   5.285  18.567  0.00  0.00    +0.000 C 
BRANCH  26  27
ATOM     27  C   UNL     1       5.614   5.384  18.438  0.00  0.00    +0.000 C 
BRANCH  27  29
ATOM     28  C   UNL     1       7.306   7.051  17.548  0.00  0.00    +0.000 C 
ATOM     29  C   UNL     1       5.986   6.340  17.299  0.00  0.00    +0.000 C 
ENDBRANCH  27  29
ENDBRANCH  26  27
ENDBRANCH   1  26
TORSDOF 5
ENDMDL
MODEL 8
REMARK VINA RESULT:      -7.0      4.183      8.304
REMARK  Name = 
REMARK  6 active torsions:
REMARK  status: ('A' for Active; 'I' for Inactive)
REMARK    1  A    between atoms: C_1  and  C_2
REMARK    2  A    between atoms: C_2  and  C_3
REMARK    3  A    between atoms: C_3  and  C_4
REMARK    4  A    between atoms: C_4  and  N_5
REMARK    5  A    between atoms: C_11  and  C_12
REMARK    6  A    between atoms: C_19  and  C_20
REMARK                            x       y       z     vdW  Elec       q    Type
REMARK                         _______ _______ _______ _____ _____    ______ ____
ROOT
ATOM      1  N   UNL     1       0.004  11.666  20.743  0.00  0.00    +0.000 N 
ATOM      2  C   UNL     1       0.426  10.344  20.681  0.00  0.00    +0.000 C 
ATOM      3  O   UNL     1       0.291   9.592  21.641  0.00  0.00    +0.000 OA
ATOM      4  N   UNL     1       1.020  10.042  19.479  0.00  0.00    +0.000 N 
ATOM      5  C   UNL     1       1.494   8.779  19.246  0.00  0.00    +0.000 A 
ATOM      6  N   UNL     1       1.222   7.682  19.897  0.00  0.00    +0.000 NA
ATOM      7  C   UNL     1       2.002   6.636  19.437  0.00  0.00    +0.000 A 
ATOM      8  C   UNL     1       2.827   6.943  18.353  0.00  0.00    +0.000 A 
ATOM      9  S   UNL     1       2.582   8.616  17.943  0.00  0.00    +0.000 S 
ATOM     10  H   UNL     1      -0.402  12.014  19.886  0.00  0.00    +0.000 HD
ATOM     11  H   UNL     1       1.370  10.790  18.907  0.00  0.00    +0.000 HD
ENDROOT
BRANCH   7  12
ATOM     12  C   UNL     1       1.869   5.333  20.092  0.00  0.00    +0.000 A 
ATOM     13  C   UNL     1       1.070   4.348  19.488  0.00  0.00    +0.000 A 
ATOM     14  C   UNL     1       1.000   3.060  20.023  0.00  0.00    +0.000 A 
ATOM     15  C   UNL     1       1.737   2.752  21.160  0.00  0.00    +0.000 A 
ATOM     16  F   UNL     1       1.714   1.504  21.646  0.00  0.00    +0.000 F 
ATOM     17  C   UNL     1       2.491   3.721  21.804  0.00  0.00    +0.000 A 
ATOM     18  C   UNL     1       2.525   5.021  21.294  0.00  0.00    +0.000 A 
ENDBRANCH   7  12
BRANCH   8  19
ATOM     19  C   UNL     1       3.796   6.120  17.597  0.00  0.00    +0.000 A 
ATOM     20  C   UNL     1       4.804   6.727  16.829  0.00  0.00    +0.000 A 
ATOM     21  C   UNL     1       5.547   5.994  15.896  0.00  0.00    +0.000 A 
ATOM     22  C   UNL     1       5.348   4.623  15.783  0.00  0.00    +0.000 A 
ATOM     23 CL   UNL     1       6.218   3.727  14.601  0.00  0.00    +0.000 Cl
ATOM     24  C   UNL     1       4.430   3.980  16.607  0.00  0.00    +0.000 A 
ATOM     25  C   UNL     1       3.652   4.724  17.503  0.00  0.00    +0.000 A 
ENDBRANCH   8  19
BRANCH   1  26
ATOM     26  C   UNL     1      -0.623  12.092  21.984  0.00  0.00    +0.000 C 
BRANCH  26  27
ATOM     27  C   UNL     1      -0.405  13.567  22.307  0.00  0.00    +0.000 C 
BRANCH  27  29
ATOM     28  C   UNL     1      -2.596  13.225  23.538  0.00  0.00    +0.000 C 
ATOM     29  C   UNL     1      -1.277  13.980  23.497  0.00  0.00    +0.000 C 
ENDBRANCH  27  29
ENDBRANCH  26  27
ENDBRANCH   1  26
TORSDOF 5
ENDMDL
MODEL 9
REMARK VINA RESULT:      -6.9      4.276      6.880
REMARK  Name = 
REMARK  6 active torsions:
REMARK  status: ('A' for Active; 'I' for Inactive)
REMARK    1  A    between atoms: C_1  and  C_2
REMARK    2  A    between atoms: C_2  and  C_3
REMARK    3  A    between atoms: C_3  and  C_4
REMARK    4  A    between atoms: C_4  and  N_5
REMARK    5  A    between atoms: C_11  and  C_12
REMARK    6  A    between atoms: C_19  and  C_20
REMARK                            x       y       z     vdW  Elec       q    Type
REMARK                         _______ _______ _______ _____ _____    ______ ____
ROOT
ATOM      1  N   UNL     1       3.455   5.873  19.891  0.00  0.00    +0.000 N 
ATOM      2  C   UNL     1       2.516   6.875  19.677  0.00  0.00    +0.000 C 
ATOM      3  O   UNL     1       2.168   7.182  18.541  0.00  0.00    +0.000 OA
ATOM      4  N   UNL     1       2.102   7.461  20.848  0.00  0.00    +0.000 N 
ATOM      5  C   UNL     1       1.176   8.469  20.822  0.00  0.00    +0.000 A 
ATOM      6  N   UNL     1       0.374   8.802  19.849  0.00  0.00    +0.000 NA
ATOM      7  C   UNL     1      -0.318   9.959  20.162  0.00  0.00    +0.000 A 
ATOM      8  C   UNL     1      -0.085  10.462  21.444  0.00  0.00    +0.000 A 
ATOM      9  S   UNL     1       1.057   9.415  22.236  0.00  0.00    +0.000 S 
ATOM     10  H   UNL     1       3.268   5.295  20.699  0.00  0.00    +0.000 HD
ATOM     11  H   UNL     1       2.676   7.370  21.668  0.00  0.00    +0.000 HD
ENDROOT
BRANCH   7  12
ATOM     12  C   UNL     1      -1.230  10.513  19.159  0.00  0.00    +0.000 A 
ATOM     13  C   UNL     1      -1.179  10.016  17.846  0.00  0.00    +0.000 A 
ATOM     14  C   UNL     1      -2.099  10.443  16.886  0.00  0.00    +0.000 A 
ATOM     15  C   UNL     1      -3.080  11.361  17.241  0.00  0.00    +0.000 A 
ATOM     16  F   UNL     1      -3.997  11.732  16.338  0.00  0.00    +0.000 F 
ATOM     17  C   UNL     1      -3.119  11.905  18.516  0.00  0.00    +0.000 A 
ATOM     18  C   UNL     1      -2.170  11.512  19.463  0.00  0.00    +0.000 A 
ENDBRANCH   7  12
BRANCH   8  19
ATOM     19  C   UNL     1      -0.614  11.655  22.137  0.00  0.00    +0.000 A 
ATOM     20  C   UNL     1      -1.746  11.559  22.965  0.00  0.00    +0.000 A 
ATOM     21  C   UNL     1      -2.425  12.701  23.404  0.00  0.00    +0.000 A 
ATOM     22  C   UNL     1      -1.927  13.961  23.088  0.00  0.00    +0.000 A 
ATOM     23 CL   UNL     1      -2.786  15.367  23.577  0.00  0.00    +0.000 Cl
ATOM     24  C   UNL     1      -0.748  14.083  22.359  0.00  0.00    +0.000 A 
ATOM     25  C   UNL     1      -0.100  12.939  21.879  0.00  0.00    +0.000 A 
ENDBRANCH   8  19
BRANCH   1  26
ATOM     26  C   UNL     1       3.970   5.200  18.711  0.00  0.00    +0.000 C 
BRANCH  26  27
ATOM     27  C   UNL     1       5.360   5.670  18.294  0.00  0.00    +0.000 C 
BRANCH  27  29
ATOM     28  C   UNL     1       4.757   4.009  16.474  0.00  0.00    +0.000 C 
ATOM     29  C   UNL     1       5.859   4.848  17.101  0.00  0.00    +0.000 C 
ENDBRANCH  27  29
ENDBRANCH  26  27
ENDBRANCH   1  26
TORSDOF 5
ENDMDL
