MODEL 1
REMARK VINA RESULT:      -7.0      0.000      0.000
REMARK  Name = 
REMARK  8 active torsions:
REMARK  status: ('A' for Active; 'I' for Inactive)
REMARK    1  A    between atoms: C_1  and  O_2
REMARK    2  A    between atoms: O_2  and  C_3
REMARK    3  A    between atoms: C_9  and  C_10
REMARK    4  A    between atoms: C_11  and  C_12
REMARK    5  A    between atoms: C_12  and  C_13
REMARK    6  A    between atoms: C_13  and  O_14
REMARK    7  A    between atoms: C_15  and  O_16
REMARK    8  A    between atoms: C_21  and  C_22
REMARK                            x       y       z     vdW  Elec       q    Type
REMARK                         _______ _______ _______ _____ _____    ______ ____
ROOT
ATOM      1  C   UNL     1       3.316   5.235  18.137  0.00  0.00    +0.000 A 
ATOM      2  C   UNL     1       2.584   4.069  17.727  0.00  0.00    +0.000 A 
ATOM      3  C   UNL     1       3.337   3.023  17.172  0.00  0.00    +0.000 A 
ATOM      4  N   UNL     1       4.635   3.099  16.852  0.00  0.00    +0.000 NA
ATOM      5  C   UNL     1       5.300   4.219  17.109  0.00  0.00    +0.000 A 
ATOM      6  C   UNL     1       6.598   4.282  16.632  0.00  0.00    +0.000 A 
ATOM      7  C   UNL     1       7.405   5.406  16.806  0.00  0.00    +0.000 A 
ATOM      8  C   UNL     1       6.916   6.476  17.537  0.00  0.00    +0.000 A 
ATOM      9  C   UNL     1       5.628   6.382  18.091  0.00  0.00    +0.000 A 
ATOM     10  C   UNL     1       4.730   5.305  17.808  0.00  0.00    +0.000 A 
ENDROOT
BRANCH   1  17
ATOM     11  C   UNL     1       2.363   6.452  20.231  0.00  0.00    +0.000 A 
ATOM     12  C   UNL     1       1.690   7.554  20.788  0.00  0.00    +0.000 A 
ATOM     13  C   UNL     1       1.422   8.687  20.023  0.00  0.00    +0.000 A 
ATOM     14  C   UNL     1       1.772   8.700  18.684  0.00  0.00    +0.000 A 
ATOM     15 CL   UNL     1       1.607  10.148  17.771  0.00  0.00    +0.000 Cl
ATOM     16  C   UNL     1       2.294   7.554  18.085  0.00  0.00    +0.000 A 
ATOM     17  C   UNL     1       2.646   6.409  18.836  0.00  0.00    +0.000 A 
BRANCH  11  19
ATOM     18  C   UNL     1       1.814   4.402  21.394  0.00  0.00    +0.000 C 
ATOM     19  O   UNL     1       2.766   5.371  20.975  0.00  0.00    +0.000 OA
ENDBRANCH  11  19
ENDBRANCH   1  17
BRANCH   8  20
ATOM     20  C   UNL     1       7.709   7.756  17.699  0.00  0.00    +0.000 C 
ATOM     21  F   UNL     1       6.933   8.860  17.871  0.00  0.00    +0.000 F 
ATOM     22  F   UNL     1       8.528   7.706  18.787  0.00  0.00    +0.000 F 
ATOM     23  F   UNL     1       8.515   8.021  16.636  0.00  0.00    +0.000 F 
ENDBRANCH   8  20
BRANCH   3  24
ATOM     24  O   UNL     1       2.857   1.773  16.944  0.00  0.00    +0.000 OA
ATOM     25  H   UNL     1       3.345   1.349  16.235  0.00  0.00    +0.000 HD
ENDBRANCH   3  24
BRANCH   2  26
ATOM     26  C   UNL     1       1.090   3.905  17.947  0.00  0.00    +0.000 C 
BRANCH  26  27
ATOM     27  C   UNL     1       0.591   2.857  18.951  0.00  0.00    +0.000 C 
BRANCH  27  28
ATOM     28  O   UNL     1       0.296   1.626  18.309  0.00  0.00    +0.000 OA
ATOM     29  H   UNL     1       1.016   1.004  18.514  0.00  0.00    +0.000 HD
ENDBRANCH  27  28
ENDBRANCH  26  27
ENDBRANCH   2  26
TORSDOF 7
ENDMDL
MODEL 2
REMARK VINA RESULT:      -6.8      2.997      5.299
REMARK  Name = 
REMARK  8 active torsions:
REMARK  status: ('A' for Active; 'I' for Inactive)
REMARK    1  A    between atoms: C_1  and  O_2
REMARK    2  A    between atoms: O_2  and  C_3
REMARK    3  A    between atoms: C_9  and  C_10
REMARK    4  A    between atoms: C_11  and  C_12
REMARK    5  A    between atoms: C_12  and  C_13
REMARK    6  A    between atoms: C_13  and  O_14
REMARK    7  A    between atoms: C_15  and  O_16
REMARK    8  A    between atoms: C_21  and  C_22
REMARK                            x       y       z     vdW  Elec       q    Type
REMARK                         _______ _______ _______ _____ _____    ______ ____
ROOT
ATOM      1  C   UNL     1       3.761   4.593  19.160  0.00  0.00    +0.000 A 
ATOM      2  C   UNL     1       3.691   3.464  20.045  0.00  0.00    +0.000 A 
ATOM      3  C   UNL     1       2.629   3.456  20.963  0.00  0.00    +0.000 A 
ATOM      4  N   UNL     1       1.795   4.480  21.179  0.00  0.00    +0.000 NA
ATOM      5  C   UNL     1       1.926   5.585  20.454  0.00  0.00    +0.000 A 
ATOM      6  C   UNL     1       1.124   6.653  20.818  0.00  0.00    +0.000 A 
ATOM      7  C   UNL     1       1.174   7.883  20.163  0.00  0.00    +0.000 A 
ATOM      8  C   UNL     1       2.008   8.025  19.067  0.00  0.00    +0.000 A 
ATOM      9  C   UNL     1       2.763   6.918  18.645  0.00  0.00    +0.000 A 
ATOM     10  C   UNL     1       2.839   5.695  19.383  0.00  0.00    +0.000 A 
ENDROOT
BRANCH   1  17
ATOM     11  C   UNL     1       6.165   5.043  18.271  0.00  0.00    +0.000 A 
ATOM     12  C   UNL     1       7.050   5.169  17.185  0.00  0.00    +0.000 A 
ATOM     13  C   UNL     1       6.655   4.809  15.898  0.00  0.00    +0.000 A 
ATOM     14  C   UNL     1       5.357   4.380  15.682  0.00  0.00    +0.000 A 
ATOM     15 CL   UNL     1       4.904   3.770  14.139  0.00  0.00    +0.000 Cl
ATOM     16  C   UNL     1       4.428   4.404  16.722  0.00  0.00    +0.000 A 
ATOM     17  C   UNL     1       4.802   4.694  18.055  0.00  0.00    +0.000 A 
BRANCH  11  19
ATOM     18  C   UNL     1       7.892   5.609  19.869  0.00  0.00    +0.000 C 
ATOM     19  O   UNL     1       6.548   5.258  19.572  0.00  0.00    +0.000 OA
ENDBRANCH  11  19
ENDBRANCH   1  17
BRANCH   8  20
ATOM     20  C   UNL     1       2.167   9.354  18.356  0.00  0.00    +0.000 C 
ATOM     21  F   UNL     1       1.924  10.430  19.152  0.00  0.00    +0.000 F 
ATOM     22  F   UNL     1       3.433   9.521  17.882  0.00  0.00    +0.000 F 
ATOM     23  F   UNL     1       1.344   9.483  17.280  0.00  0.00    +0.000 F 
ENDBRANCH   8  20
BRANCH   3  24
ATOM     24  O   UNL     1       2.274   2.378  21.710  0.00  0.00    +0.000 OA
ATOM     25  H   UNL     1       1.526   1.927  21.314  0.00  0.00    +0.000 HD
ENDBRANCH   3  24
BRANCH   2  26
ATOM     26  C   UNL     1       4.642   2.283  19.963  0.00  0.00    +0.000 C 
BRANCH  26  27
ATOM     27  C   UNL     1       4.300   1.107  19.037  0.00  0.00    +0.000 C 
BRANCH  27  28
ATOM     28  O   UNL     1       3.068   1.321  18.364  0.00  0.00    +0.000 OA
ATOM     29  H   UNL     1       2.722   0.452  18.097  0.00  0.00    +0.000 HD
ENDBRANCH  27  28
ENDBRANCH  26  27
ENDBRANCH   2  26
TORSDOF 7
ENDMDL
MODEL 3
REMARK VINA RESULT:      -6.7      8.919     11.755
REMARK  Name = 
REMARK  8 active torsions:
REMARK  status: ('A' for Active; 'I' for Inactive)
REMARK    1  A    between atoms: C_1  and  O_2
REMARK    2  A    between atoms: O_2  and  C_3
REMARK    3  A    between atoms: C_9  and  C_10
REMARK    4  A    between atoms: C_11  and  C_12
REMARK    5  A    between atoms: C_12  and  C_13
REMARK    6  A    between atoms: C_13  and  O_14
REMARK    7  A    between atoms: C_15  and  O_16
REMARK    8  A    between atoms: C_21  and  C_22
REMARK                            x       y       z     vdW  Elec       q    Type
REMARK                         _______ _______ _______ _____ _____    ______ ____
ROOT
ATOM      1  C   UNL     1      -4.728  13.138  21.575  0.00  0.00    +0.000 A 
ATOM      2  C   UNL     1      -5.059  13.427  22.942  0.00  0.00    +0.000 A 
ATOM      3  C   UNL     1      -4.011  13.337  23.870  0.00  0.00    +0.000 A 
ATOM      4  N   UNL     1      -2.792  12.852  23.606  0.00  0.00    +0.000 NA
ATOM      5  C   UNL     1      -2.506  12.460  22.370  0.00  0.00    +0.000 A 
ATOM      6  C   UNL     1      -1.280  11.843  22.192  0.00  0.00    +0.000 A 
ATOM      7  C   UNL     1      -0.859  11.359  20.954  0.00  0.00    +0.000 A 
ATOM      8  C   UNL     1      -1.667  11.556  19.847  0.00  0.00    +0.000 A 
ATOM      9  C   UNL     1      -2.876  12.253  20.009  0.00  0.00    +0.000 A 
ATOM     10  C   UNL     1      -3.396  12.632  21.287  0.00  0.00    +0.000 A 
ENDROOT
BRANCH   1  17
ATOM     11  C   UNL     1      -6.678  12.276  20.082  0.00  0.00    +0.000 A 
ATOM     12  C   UNL     1      -7.542  12.469  18.989  0.00  0.00    +0.000 A 
ATOM     13  C   UNL     1      -7.604  13.699  18.338  0.00  0.00    +0.000 A 
ATOM     14  C   UNL     1      -6.761  14.722  18.737  0.00  0.00    +0.000 A 
ATOM     15 CL   UNL     1      -6.944  16.293  18.064  0.00  0.00    +0.000 Cl
ATOM     16  C   UNL     1      -5.791  14.490  19.713  0.00  0.00    +0.000 A 
ATOM     17  C   UNL     1      -5.739  13.282  20.447  0.00  0.00    +0.000 A 
BRANCH  11  19
ATOM     18  C   UNL     1      -7.808  10.269  20.826  0.00  0.00    +0.000 C 
ATOM     19  O   UNL     1      -6.676  11.128  20.837  0.00  0.00    +0.000 OA
ENDBRANCH  11  19
ENDBRANCH   1  17
BRANCH   8  20
ATOM     20  C   UNL     1      -1.306  10.989  18.489  0.00  0.00    +0.000 C 
ATOM     21  F   UNL     1      -1.996   9.861  18.168  0.00  0.00    +0.000 F 
ATOM     22  F   UNL     1      -1.563  11.878  17.489  0.00  0.00    +0.000 F 
ATOM     23  F   UNL     1       0.013  10.673  18.378  0.00  0.00    +0.000 F 
ENDBRANCH   8  20
BRANCH   3  24
ATOM     24  O   UNL     1      -4.082  13.791  25.149  0.00  0.00    +0.000 OA
ATOM     25  H   UNL     1      -3.229  14.122  25.436  0.00  0.00    +0.000 HD
ENDBRANCH   3  24
BRANCH   2  26
ATOM     26  C   UNL     1      -6.436  13.892  23.383  0.00  0.00    +0.000 C 
BRANCH  26  27
ATOM     27  C   UNL     1      -7.320  12.944  24.206  0.00  0.00    +0.000 C 
BRANCH  27  28
ATOM     28  O   UNL     1      -7.122  11.591  23.823  0.00  0.00    +0.000 OA
ATOM     29  H   UNL     1      -7.198  11.043  24.623  0.00  0.00    +0.000 HD
ENDBRANCH  27  28
ENDBRANCH  26  27
ENDBRANCH   2  26
TORSDOF 7
ENDMDL
MODEL 4
REMARK VINA RESULT:      -6.5      8.827     11.287
REMARK  Name = 
REMARK  8 active torsions:
REMARK  status: ('A' for Active; 'I' for Inactive)
REMARK    1  A    between atoms: C_1  and  O_2
REMARK    2  A    between atoms: O_2  and  C_3
REMARK    3  A    between atoms: C_9  and  C_10
REMARK    4  A    between atoms: C_11  and  C_12
REMARK    5  A    between atoms: C_12  and  C_13
REMARK    6  A    between atoms: C_13  and  O_14
REMARK    7  A    between atoms: C_15  and  O_16
REMARK    8  A    between atoms: C_21  and  C_22
REMARK                            x       y       z     vdW  Elec       q    Type
REMARK                         _______ _______ _______ _____ _____    ______ ____
ROOT
ATOM      1  C   UNL     1      -3.779  12.750  20.790  0.00  0.00    +0.000 A 
ATOM      2  C   UNL     1      -3.232  12.802  22.117  0.00  0.00    +0.000 A 
ATOM      3  C   UNL     1      -1.933  12.294  22.276  0.00  0.00    +0.000 A 
ATOM      4  N   UNL     1      -1.249  11.630  21.337  0.00  0.00    +0.000 NA
ATOM      5  C   UNL     1      -1.793  11.462  20.137  0.00  0.00    +0.000 A 
ATOM      6  C   UNL     1      -1.096  10.652  19.257  0.00  0.00    +0.000 A 
ATOM      7  C   UNL     1      -1.561  10.367  17.975  0.00  0.00    +0.000 A 
ATOM      8  C   UNL     1      -2.732  10.964  17.537  0.00  0.00    +0.000 A 
ATOM      9  C   UNL     1      -3.400  11.850  18.400  0.00  0.00    +0.000 A 
ATOM     10  C   UNL     1      -3.023  12.047  19.766  0.00  0.00    +0.000 A 
ENDROOT
BRANCH   1  17
ATOM     11  C   UNL     1      -6.356  12.607  20.455  0.00  0.00    +0.000 A 
ATOM     12  C   UNL     1      -7.562  13.221  20.072  0.00  0.00    +0.000 A 
ATOM     13  C   UNL     1      -7.619  14.591  19.827  0.00  0.00    +0.000 A 
ATOM     14  C   UNL     1      -6.459  15.343  19.904  0.00  0.00    +0.000 A 
ATOM     15 CL   UNL     1      -6.540  17.056  19.776  0.00  0.00    +0.000 Cl
ATOM     16  C   UNL     1      -5.232  14.718  20.126  0.00  0.00    +0.000 A 
ATOM     17  C   UNL     1      -5.137  13.344  20.448  0.00  0.00    +0.000 A 
BRANCH  11  19
ATOM     18  C   UNL     1      -7.292  10.375  20.439  0.00  0.00    +0.000 C 
ATOM     19  O   UNL     1      -6.278  11.290  20.834  0.00  0.00    +0.000 OA
ENDBRANCH  11  19
ENDBRANCH   1  17
BRANCH   8  20
ATOM     20  C   UNL     1      -3.333  10.639  16.186  0.00  0.00    +0.000 C 
ATOM     21  F   UNL     1      -4.660  10.924  16.097  0.00  0.00    +0.000 F 
ATOM     22  F   UNL     1      -2.734  11.346  15.187  0.00  0.00    +0.000 F 
ATOM     23  F   UNL     1      -3.202   9.328  15.846  0.00  0.00    +0.000 F 
ENDBRANCH   8  20
BRANCH   3  24
ATOM     24  O   UNL     1      -1.177  12.468  23.392  0.00  0.00    +0.000 OA
ATOM     25  H   UNL     1      -1.091  13.400  23.598  0.00  0.00    +0.000 HD
ENDBRANCH   3  24
BRANCH   2  26
ATOM     26  C   UNL     1      -3.954  13.442  23.289  0.00  0.00    +0.000 C 
BRANCH  26  27
ATOM     27  C   UNL     1      -4.852  12.574  24.181  0.00  0.00    +0.000 C 
BRANCH  27  28
ATOM     28  O   UNL     1      -4.413  12.593  25.531  0.00  0.00    +0.000 OA
ATOM     29  H   UNL     1      -5.145  12.271  26.085  0.00  0.00    +0.000 HD
ENDBRANCH  27  28
ENDBRANCH  26  27
ENDBRANCH   2  26
TORSDOF 7
ENDMDL
MODEL 5
REMARK VINA RESULT:      -6.5      8.098     10.820
REMARK  Name = 
REMARK  8 active torsions:
REMARK  status: ('A' for Active; 'I' for Inactive)
REMARK    1  A    between atoms: C_1  and  O_2
REMARK    2  A    between atoms: O_2  and  C_3
REMARK    3  A    between atoms: C_9  and  C_10
REMARK    4  A    between atoms: C_11  and  C_12
REMARK    5  A    between atoms: C_12  and  C_13
REMARK    6  A    between atoms: C_13  and  O_14
REMARK    7  A    between atoms: C_15  and  O_16
REMARK    8  A    between atoms: C_21  and  C_22
REMARK                            x       y       z     vdW  Elec       q    Type
REMARK                         _______ _______ _______ _____ _____    ______ ____
ROOT
ATOM      1  C   UNL     1      -2.751  11.811  18.864  0.00  0.00    +0.000 A 
ATOM      2  C   UNL     1      -3.374  11.509  17.605  0.00  0.00    +0.000 A 
ATOM      3  C   UNL     1      -4.739  11.816  17.495  0.00  0.00    +0.000 A 
ATOM      4  N   UNL     1      -5.521  12.206  18.509  0.00  0.00    +0.000 NA
ATOM      5  C   UNL     1      -4.986  12.369  19.713  0.00  0.00    +0.000 A 
ATOM      6  C   UNL     1      -5.870  12.640  20.743  0.00  0.00    +0.000 A 
ATOM      7  C   UNL     1      -5.453  12.809  22.062  0.00  0.00    +0.000 A 
ATOM      8  C   UNL     1      -4.098  12.769  22.347  0.00  0.00    +0.000 A 
ATOM      9  C   UNL     1      -3.192  12.575  21.291  0.00  0.00    +0.000 A 
ATOM     10  C   UNL     1      -3.601  12.256  19.957  0.00  0.00    +0.000 A 
ENDROOT
BRANCH   1  17
ATOM     11  C   UNL     1      -0.281  12.630  18.893  0.00  0.00    +0.000 A 
ATOM     12  C   UNL     1       1.085  12.351  19.081  0.00  0.00    +0.000 A 
ATOM     13  C   UNL     1       1.495  11.132  19.616  0.00  0.00    +0.000 A 
ATOM     14  C   UNL     1       0.549  10.166  19.909  0.00  0.00    +0.000 A 
ATOM     15 CL   UNL     1       1.019   8.728  20.728  0.00  0.00    +0.000 Cl
ATOM     16  C   UNL     1      -0.790  10.372  19.578  0.00  0.00    +0.000 A 
ATOM     17  C   UNL     1      -1.261  11.618  19.099  0.00  0.00    +0.000 A 
BRANCH  11  19
ATOM     18  C   UNL     1      -0.096  15.043  18.949  0.00  0.00    +0.000 C 
ATOM     19  O   UNL     1      -0.741  13.861  18.494  0.00  0.00    +0.000 OA
ENDBRANCH  11  19
ENDBRANCH   1  17
BRANCH   8  20
ATOM     20  C   UNL     1      -3.581  12.869  23.767  0.00  0.00    +0.000 C 
ATOM     21  F   UNL     1      -3.889  14.045  24.378  0.00  0.00    +0.000 F 
ATOM     22  F   UNL     1      -4.099  11.892  24.561  0.00  0.00    +0.000 F 
ATOM     23  F   UNL     1      -2.228  12.741  23.851  0.00  0.00    +0.000 F 
ENDBRANCH   8  20
BRANCH   3  24
ATOM     24  O   UNL     1      -5.430  11.814  16.325  0.00  0.00    +0.000 OA
ATOM     25  H   UNL     1      -5.007  11.238  15.685  0.00  0.00    +0.000 HD
ENDBRANCH   3  24
BRANCH   2  26
ATOM     26  C   UNL     1      -2.610  10.969  16.409  0.00  0.00    +0.000 C 
BRANCH  26  27
ATOM     27  C   UNL     1      -3.112   9.697  15.711  0.00  0.00    +0.000 C 
BRANCH  27  28
ATOM     28  O   UNL     1      -3.826  10.006  14.524  0.00  0.00    +0.000 OA
ATOM     29  H   UNL     1      -3.183  10.318  13.864  0.00  0.00    +0.000 HD
ENDBRANCH  27  28
ENDBRANCH  26  27
ENDBRANCH   2  26
TORSDOF 7
ENDMDL
MODEL 6
REMARK VINA RESULT:      -6.5      7.749      9.888
REMARK  Name = 
REMARK  8 active torsions:
REMARK  status: ('A' for Active; 'I' for Inactive)
REMARK    1  A    between atoms: C_1  and  O_2
REMARK    2  A    between atoms: O_2  and  C_3
REMARK    3  A    between atoms: C_9  and  C_10
REMARK    4  A    between atoms: C_11  and  C_12
REMARK    5  A    between atoms: C_12  and  C_13
REMARK    6  A    between atoms: C_13  and  O_14
REMARK    7  A    between atoms: C_15  and  O_16
REMARK    8  A    between atoms: C_21  and  C_22
REMARK                            x       y       z     vdW  Elec       q    Type
REMARK                         _______ _______ _______ _____ _____    ______ ____
ROOT
ATOM      1  C   UNL     1      -1.096  11.413  20.047  0.00  0.00    +0.000 A 
ATOM      2  C   UNL     1       0.089  10.601  20.071  0.00  0.00    +0.000 A 
ATOM      3  C   UNL     1       0.347   9.840  18.921  0.00  0.00    +0.000 A 
ATOM      4  N   UNL     1      -0.497   9.694  17.893  0.00  0.00    +0.000 NA
ATOM      5  C   UNL     1      -1.657  10.340  17.911  0.00  0.00    +0.000 A 
ATOM      6  C   UNL     1      -2.540  10.041  16.888  0.00  0.00    +0.000 A 
ATOM      7  C   UNL     1      -3.803  10.624  16.796  0.00  0.00    +0.000 A 
ATOM      8  C   UNL     1      -4.167  11.586  17.724  0.00  0.00    +0.000 A 
ATOM      9  C   UNL     1      -3.241  11.951  18.716  0.00  0.00    +0.000 A 
ATOM     10  C   UNL     1      -2.001  11.268  18.919  0.00  0.00    +0.000 A 
ENDROOT
BRANCH   1  17
ATOM     11  C   UNL     1      -1.026  13.712  21.265  0.00  0.00    +0.000 A 
ATOM     12  C   UNL     1      -1.359  14.501  22.381  0.00  0.00    +0.000 A 
ATOM     13  C   UNL     1      -2.237  14.027  23.353  0.00  0.00    +0.000 A 
ATOM     14  C   UNL     1      -2.737  12.741  23.246  0.00  0.00    +0.000 A 
ATOM     15 CL   UNL     1      -3.952  12.202  24.338  0.00  0.00    +0.000 Cl
ATOM     16  C   UNL     1      -2.290  11.896  22.230  0.00  0.00    +0.000 A 
ATOM     17  C   UNL     1      -1.456  12.357  21.185  0.00  0.00    +0.000 A 
BRANCH  11  19
ATOM     18  C   UNL     1       1.105  14.471  20.405  0.00  0.00    +0.000 C 
ATOM     19  O   UNL     1      -0.274  14.183  20.217  0.00  0.00    +0.000 OA
ENDBRANCH  11  19
ENDBRANCH   1  17
BRANCH   8  20
ATOM     20  C   UNL     1      -5.550  12.204  17.727  0.00  0.00    +0.000 C 
ATOM     21  F   UNL     1      -5.787  13.017  16.662  0.00  0.00    +0.000 F 
ATOM     22  F   UNL     1      -6.525  11.254  17.693  0.00  0.00    +0.000 F 
ATOM     23  F   UNL     1      -5.796  12.952  18.837  0.00  0.00    +0.000 F 
ENDBRANCH   8  20
BRANCH   3  24
ATOM     24  O   UNL     1       1.521   9.201  18.675  0.00  0.00    +0.000 OA
ATOM     25  H   UNL     1       1.734   8.602  19.393  0.00  0.00    +0.000 HD
ENDBRANCH   3  24
BRANCH   2  26
ATOM     26  C   UNL     1       1.077  10.606  21.225  0.00  0.00    +0.000 C 
BRANCH  26  27
ATOM     27  C   UNL     1       1.080   9.431  22.213  0.00  0.00    +0.000 C 
BRANCH  27  28
ATOM     28  O   UNL     1       1.774   8.312  21.683  0.00  0.00    +0.000 OA
ATOM     29  H   UNL     1       2.004   7.727  22.425  0.00  0.00    +0.000 HD
ENDBRANCH  27  28
ENDBRANCH  26  27
ENDBRANCH   2  26
TORSDOF 7
ENDMDL
MODEL 7
REMARK VINA RESULT:      -6.4      7.846     10.690
REMARK  Name = 
REMARK  8 active torsions:
REMARK  status: ('A' for Active; 'I' for Inactive)
REMARK    1  A    between atoms: C_1  and  O_2
REMARK    2  A    between atoms: O_2  and  C_3
REMARK    3  A    between atoms: C_9  and  C_10
REMARK    4  A    between atoms: C_11  and  C_12
REMARK    5  A    between atoms: C_12  and  C_13
REMARK    6  A    between atoms: C_13  and  O_14
REMARK    7  A    between atoms: C_15  and  O_16
REMARK    8  A    between atoms: C_21  and  C_22
REMARK                            x       y       z     vdW  Elec       q    Type
REMARK                         _______ _______ _______ _____ _____    ______ ____
ROOT
ATOM      1  C   UNL     1      -2.669  11.645  18.956  0.00  0.00    +0.000 A 
ATOM      2  C   UNL     1      -3.477  11.159  17.872  0.00  0.00    +0.000 A 
ATOM      3  C   UNL     1      -4.816  11.579  17.855  0.00  0.00    +0.000 A 
ATOM      4  N   UNL     1      -5.421  12.250  18.842  0.00  0.00    +0.000 NA
ATOM      5  C   UNL     1      -4.719  12.600  19.912  0.00  0.00    +0.000 A 
ATOM      6  C   UNL     1      -5.432  13.170  20.953  0.00  0.00    +0.000 A 
ATOM      7  C   UNL     1      -4.829  13.561  22.147  0.00  0.00    +0.000 A 
ATOM      8  C   UNL     1      -3.456  13.437  22.277  0.00  0.00    +0.000 A 
ATOM      9  C   UNL     1      -2.718  12.934  21.192  0.00  0.00    +0.000 A 
ATOM     10  C   UNL     1      -3.326  12.393  20.016  0.00  0.00    +0.000 A 
ENDROOT
BRANCH   1  17
ATOM     11  C   UNL     1      -0.157  12.238  18.626  0.00  0.00    +0.000 A 
ATOM     12  C   UNL     1       1.196  11.861  18.703  0.00  0.00    +0.000 A 
ATOM     13  C   UNL     1       1.571  10.679  19.337  0.00  0.00    +0.000 A 
ATOM     14  C   UNL     1       0.593   9.840  19.843  0.00  0.00    +0.000 A 
ATOM     15 CL   UNL     1       1.043   8.468  20.778  0.00  0.00    +0.000 Cl
ATOM     16  C   UNL     1      -0.755  10.127  19.631  0.00  0.00    +0.000 A 
ATOM     17  C   UNL     1      -1.180  11.347  19.056  0.00  0.00    +0.000 A 
BRANCH  11  19
ATOM     18  C   UNL     1      -0.175  14.653  18.783  0.00  0.00    +0.000 C 
ATOM     19  O   UNL     1      -0.564  13.453  18.130  0.00  0.00    +0.000 OA
ENDBRANCH  11  19
ENDBRANCH   1  17
BRANCH   8  20
ATOM     20  C   UNL     1      -2.747  13.772  23.573  0.00  0.00    +0.000 C 
ATOM     21  F   UNL     1      -1.485  13.270  23.650  0.00  0.00    +0.000 F 
ATOM     22  F   UNL     1      -2.621  15.117  23.744  0.00  0.00    +0.000 F 
ATOM     23  F   UNL     1      -3.405  13.315  24.673  0.00  0.00    +0.000 F 
ENDBRANCH   8  20
BRANCH   3  24
ATOM     24  O   UNL     1      -5.656  11.410  16.800  0.00  0.00    +0.000 OA
ATOM     25  H   UNL     1      -6.296  12.123  16.763  0.00  0.00    +0.000 HD
ENDBRANCH   3  24
BRANCH   2  26
ATOM     26  C   UNL     1      -2.926  10.306  16.743  0.00  0.00    +0.000 C 
BRANCH  26  27
ATOM     27  C   UNL     1      -3.047  10.808  15.297  0.00  0.00    +0.000 C 
BRANCH  27  28
ATOM     28  O   UNL     1      -4.108  10.159  14.612  0.00  0.00    +0.000 OA
ATOM     29  H   UNL     1      -3.830  10.030  13.689  0.00  0.00    +0.000 HD
ENDBRANCH  27  28
ENDBRANCH  26  27
ENDBRANCH   2  26
TORSDOF 7
ENDMDL
MODEL 8
REMARK VINA RESULT:      -6.4      8.063     10.310
REMARK  Name = 
REMARK  8 active torsions:
REMARK  status: ('A' for Active; 'I' for Inactive)
REMARK    1  A    between atoms: C_1  and  O_2
REMARK    2  A    between atoms: O_2  and  C_3
REMARK    3  A    between atoms: C_9  and  C_10
REMARK    4  A    between atoms: C_11  and  C_12
REMARK    5  A    between atoms: C_12  and  C_13
REMARK    6  A    between atoms: C_13  and  O_14
REMARK    7  A    between atoms: C_15  and  O_16
REMARK    8  A    between atoms: C_21  and  C_22
REMARK                            x       y       z     vdW  Elec       q    Type
REMARK                         _______ _______ _______ _____ _____    ______ ____
ROOT
ATOM      1  C   UNL     1      -1.408  11.606  20.047  0.00  0.00    +0.000 A 
ATOM      2  C   UNL     1      -0.214  10.808  20.061  0.00  0.00    +0.000 A 
ATOM      3  C   UNL     1       0.043  10.050  18.908  0.00  0.00    +0.000 A 
ATOM      4  N   UNL     1      -0.809   9.894  17.888  0.00  0.00    +0.000 NA
ATOM      5  C   UNL     1      -1.976  10.527  17.916  0.00  0.00    +0.000 A 
ATOM      6  C   UNL     1      -2.865  10.217  16.902  0.00  0.00    +0.000 A 
ATOM      7  C   UNL     1      -4.135  10.785  16.821  0.00  0.00    +0.000 A 
ATOM      8  C   UNL     1      -4.502  11.743  17.752  0.00  0.00    +0.000 A 
ATOM      9  C   UNL     1      -3.572  12.118  18.736  0.00  0.00    +0.000 A 
ATOM     10  C   UNL     1      -2.321  11.450  18.927  0.00  0.00    +0.000 A 
ENDROOT
BRANCH   1  17
ATOM     11  C   UNL     1      -1.423  13.926  21.226  0.00  0.00    +0.000 A 
ATOM     12  C   UNL     1      -1.748  14.712  22.346  0.00  0.00    +0.000 A 
ATOM     13  C   UNL     1      -2.543  14.201  23.370  0.00  0.00    +0.000 A 
ATOM     14  C   UNL     1      -2.966  12.885  23.307  0.00  0.00    +0.000 A 
ATOM     15 CL   UNL     1      -4.087  12.291  24.469  0.00  0.00    +0.000 Cl
ATOM     16  C   UNL     1      -2.518  12.052  22.282  0.00  0.00    +0.000 A 
ATOM     17  C   UNL     1      -1.769  12.546  21.188  0.00  0.00    +0.000 A 
BRANCH  11  19
ATOM     18  C   UNL     1      -0.700  15.827  19.915  0.00  0.00    +0.000 C 
ATOM     19  O   UNL     1      -0.756  14.424  20.134  0.00  0.00    +0.000 OA
ENDBRANCH  11  19
ENDBRANCH   1  17
BRANCH   8  20
ATOM     20  C   UNL     1      -5.892  12.344  17.768  0.00  0.00    +0.000 C 
ATOM     21  F   UNL     1      -6.887  11.420  17.692  0.00  0.00    +0.000 F 
ATOM     22  F   UNL     1      -6.123  13.045  18.913  0.00  0.00    +0.000 F 
ATOM     23  F   UNL     1      -6.106  13.217  16.746  0.00  0.00    +0.000 F 
ENDBRANCH   8  20
BRANCH   3  24
ATOM     24  O   UNL     1       1.222   9.425  18.652  0.00  0.00    +0.000 OA
ATOM     25  H   UNL     1       1.515   8.931  19.420  0.00  0.00    +0.000 HD
ENDBRANCH   3  24
BRANCH   2  26
ATOM     26  C   UNL     1       0.784  10.824  21.206  0.00  0.00    +0.000 C 
BRANCH  26  27
ATOM     27  C   UNL     1       0.790   9.664  22.211  0.00  0.00    +0.000 C 
BRANCH  27  28
ATOM     28  O   UNL     1       0.165  10.034  23.431  0.00  0.00    +0.000 OA
ATOM     29  H   UNL     1       0.856  10.374  24.026  0.00  0.00    +0.000 HD
ENDBRANCH  27  28
ENDBRANCH  26  27
ENDBRANCH   2  26
TORSDOF 7
ENDMDL
MODEL 9
REMARK VINA RESULT:      -6.4      8.052     10.812
REMARK  Name = 
REMARK  8 active torsions:
REMARK  status: ('A' for Active; 'I' for Inactive)
REMARK    1  A    between atoms: C_1  and  O_2
REMARK    2  A    between atoms: O_2  and  C_3
REMARK    3  A    between atoms: C_9  and  C_10
REMARK    4  A    between atoms: C_11  and  C_12
REMARK    5  A    between atoms: C_12  and  C_13
REMARK    6  A    between atoms: C_13  and  O_14
REMARK    7  A    between atoms: C_15  and  O_16
REMARK    8  A    between atoms: C_21  and  C_22
REMARK                            x       y       z     vdW  Elec       q    Type
REMARK                         _______ _______ _______ _____ _____    ______ ____
ROOT
ATOM      1  C   UNL     1      -2.657  12.323  19.441  0.00  0.00    +0.000 A 
ATOM      2  C   UNL     1      -3.175  11.733  18.238  0.00  0.00    +0.000 A 
ATOM      3  C   UNL     1      -4.572  11.663  18.129  0.00  0.00    +0.000 A 
ATOM      4  N   UNL     1      -5.433  11.948  19.113  0.00  0.00    +0.000 NA
ATOM      5  C   UNL     1      -4.965  12.376  20.279  0.00  0.00    +0.000 A 
ATOM      6  C   UNL     1      -5.893  12.522  21.296  0.00  0.00    +0.000 A 
ATOM      7  C   UNL     1      -5.539  12.938  22.578  0.00  0.00    +0.000 A 
ATOM      8  C   UNL     1      -4.221  13.280  22.832  0.00  0.00    +0.000 A 
ATOM      9  C   UNL     1      -3.291  13.211  21.781  0.00  0.00    +0.000 A 
ATOM     10  C   UNL     1      -3.598  12.652  20.500  0.00  0.00    +0.000 A 
ENDROOT
BRANCH   1  17
ATOM     11  C   UNL     1      -0.285  11.575  20.206  0.00  0.00    +0.000 A 
ATOM     12  C   UNL     1       1.069  11.884  20.426  0.00  0.00    +0.000 A 
ATOM     13  C   UNL     1       1.608  13.088  19.977  0.00  0.00    +0.000 A 
ATOM     14  C   UNL     1       0.783  14.012  19.360  0.00  0.00    +0.000 A 
ATOM     15 CL   UNL     1       1.461  15.422  18.646  0.00  0.00    +0.000 Cl
ATOM     16  C   UNL     1      -0.591  13.783  19.280  0.00  0.00    +0.000 A 
ATOM     17  C   UNL     1      -1.169  12.548  19.659  0.00  0.00    +0.000 A 
BRANCH  11  19
ATOM     18  C   UNL     1       0.003   9.303  20.989  0.00  0.00    +0.000 C 
ATOM     19  O   UNL     1      -0.829  10.351  20.511  0.00  0.00    +0.000 OA
ENDBRANCH  11  19
ENDBRANCH   1  17
BRANCH   8  20
ATOM     20  C   UNL     1      -3.754  13.667  24.220  0.00  0.00    +0.000 C 
ATOM     21  F   UNL     1      -4.272  14.845  24.661  0.00  0.00    +0.000 F 
ATOM     22  F   UNL     1      -4.109  12.735  25.148  0.00  0.00    +0.000 F 
ATOM     23  F   UNL     1      -2.402  13.789  24.311  0.00  0.00    +0.000 F 
ENDBRANCH   8  20
BRANCH   3  24
ATOM     24  O   UNL     1      -5.234  11.354  16.983  0.00  0.00    +0.000 OA
ATOM     25  H   UNL     1      -4.614  11.193  16.269  0.00  0.00    +0.000 HD
ENDBRANCH   3  24
BRANCH   2  26
ATOM     26  C   UNL     1      -2.293  11.280  17.088  0.00  0.00    +0.000 C 
BRANCH  26  27
ATOM     27  C   UNL     1      -1.761   9.840  17.074  0.00  0.00    +0.000 C 
BRANCH  27  28
ATOM     28  O   UNL     1      -0.398   9.788  17.467  0.00  0.00    +0.000 OA
ATOM     29  H   UNL     1      -0.325  10.214  18.339  0.00  0.00    +0.000 HD
ENDBRANCH  27  28
ENDBRANCH  26  27
ENDBRANCH   2  26
TORSDOF 7
ENDMDL
