MODEL 1
REMARK VINA RESULT:      -6.6      0.000      0.000
REMARK  Name = 
REMARK  9 active torsions:
REMARK  status: ('A' for Active; 'I' for Inactive)
REMARK    1  A    between atoms: C_1  and  S_2
REMARK    2  A    between atoms: S_2  and  C_3
REMARK    3  A    between atoms: C_3  and  C_4
REMARK    4  A    between atoms: C_10  and  C_11
REMARK    5  A    between atoms: C_10  and  C_13
REMARK    6  A    between atoms: C_11  and  O_12
REMARK    7  A    between atoms: C_13  and  C_14
REMARK    8  A    between atoms: C_14  and  C_15
REMARK    9  A    between atoms: C_15  and  C_16
REMARK                            x       y       z     vdW  Elec       q    Type
REMARK                         _______ _______ _______ _____ _____    ______ ____
ROOT
ATOM      1  C   UNL     1       6.527   4.817  15.439  0.00  0.00    +0.000 C 
ATOM      2  O   UNL     1       7.696   4.420  15.369  0.00  0.00    +0.000 OA
ATOM      3  N   UNL     1       6.070   5.559  16.522  0.00  0.00    +0.000 N 
ATOM      4  C   UNL     1       7.012   5.950  17.568  0.00  0.00    +0.000 C 
ATOM      5  C   UNL     1       6.555   5.437  18.928  0.00  0.00    +0.000 C 
ATOM      6  C   UNL     1       5.104   5.824  19.218  0.00  0.00    +0.000 C 
ATOM      7  C   UNL     1       4.123   5.453  18.072  0.00  0.00    +0.000 C 
ATOM      8  C   UNL     1       4.690   5.995  16.735  0.00  0.00    +0.000 C 
ENDROOT
BRANCH   1   9
ATOM      9  C   UNL     1       5.567   4.490  14.303  0.00  0.00    +0.000 C 
BRANCH   9  11
ATOM     10  C   UNL     1       4.961   3.244  11.893  0.00  0.00    +0.000 C 
ATOM     11  S   UNL     1       6.406   3.697  12.884  0.00  0.00    +0.000 S 
ENDBRANCH   9  11
ENDBRANCH   1   9
BRANCH   7  12
ATOM     12  C   UNL     1       3.973   3.912  17.970  0.00  0.00    +0.000 C 
BRANCH  12  13
ATOM     13  O   UNL     1       3.063   3.534  16.943  0.00  0.00    +0.000 OA
ATOM     14  H   UNL     1       3.405   2.725  16.519  0.00  0.00    +0.000 HD
ENDBRANCH  12  13
ENDBRANCH   7  12
BRANCH   7  15
ATOM     15  C   UNL     1       2.741   6.140  18.317  0.00  0.00    +0.000 C 
BRANCH  15  16
ATOM     16  C   UNL     1       2.614   6.824  19.681  0.00  0.00    +0.000 C 
BRANCH  16  17
ATOM     17  C   UNL     1       1.427   6.320  20.501  0.00  0.00    +0.000 C 
BRANCH  17  18
ATOM     18  C   UNL     1       1.516   4.819  20.624  0.00  0.00    +0.000 A 
ATOM     19  C   UNL     1       2.461   4.237  21.480  0.00  0.00    +0.000 A 
ATOM     20  C   UNL     1       2.623   2.851  21.515  0.00  0.00    +0.000 A 
ATOM     21  C   UNL     1       1.850   2.035  20.691  0.00  0.00    +0.000 A 
ATOM     22  C   UNL     1       0.905   2.607  19.840  0.00  0.00    +0.000 A 
ATOM     23  C   UNL     1       0.736   3.989  19.807  0.00  0.00    +0.000 A 
ENDBRANCH  17  18
ENDBRANCH  16  17
ENDBRANCH  15  16
ENDBRANCH   7  15
TORSDOF 8
ENDMDL
MODEL 2
REMARK VINA RESULT:      -6.4      3.124      6.384
REMARK  Name = 
REMARK  9 active torsions:
REMARK  status: ('A' for Active; 'I' for Inactive)
REMARK    1  A    between atoms: C_1  and  S_2
REMARK    2  A    between atoms: S_2  and  C_3
REMARK    3  A    between atoms: C_3  and  C_4
REMARK    4  A    between atoms: C_10  and  C_11
REMARK    5  A    between atoms: C_10  and  C_13
REMARK    6  A    between atoms: C_11  and  O_12
REMARK    7  A    between atoms: C_13  and  C_14
REMARK    8  A    between atoms: C_14  and  C_15
REMARK    9  A    between atoms: C_15  and  C_16
REMARK                            x       y       z     vdW  Elec       q    Type
REMARK                         _______ _______ _______ _____ _____    ______ ____
ROOT
ATOM      1  C   UNL     1       1.825   5.588  19.883  0.00  0.00    +0.000 C 
ATOM      2  O   UNL     1       1.054   5.592  20.850  0.00  0.00    +0.000 OA
ATOM      3  N   UNL     1       1.905   4.503  19.018  0.00  0.00    +0.000 N 
ATOM      4  C   UNL     1       1.002   3.372  19.205  0.00  0.00    +0.000 C 
ATOM      5  C   UNL     1       1.785   2.078  19.396  0.00  0.00    +0.000 C 
ATOM      6  C   UNL     1       2.817   1.876  18.285  0.00  0.00    +0.000 C 
ATOM      7  C   UNL     1       3.734   3.110  18.059  0.00  0.00    +0.000 C 
ATOM      8  C   UNL     1       2.845   4.370  17.904  0.00  0.00    +0.000 C 
ENDROOT
BRANCH   1   9
ATOM      9  C   UNL     1       2.702   6.808  19.632  0.00  0.00    +0.000 C 
BRANCH   9  11
ATOM     10  C   UNL     1       2.041   8.822  17.833  0.00  0.00    +0.000 C 
ATOM     11  S   UNL     1       1.736   8.359  19.556  0.00  0.00    +0.000 S 
ENDBRANCH   9  11
ENDBRANCH   1   9
BRANCH   7  12
ATOM     12  C   UNL     1       4.681   3.305  19.273  0.00  0.00    +0.000 C 
BRANCH  12  13
ATOM     13  O   UNL     1       5.201   2.067  19.745  0.00  0.00    +0.000 OA
ATOM     14  H   UNL     1       4.550   1.681  20.360  0.00  0.00    +0.000 HD
ENDBRANCH  12  13
ENDBRANCH   7  12
BRANCH   7  15
ATOM     15  C   UNL     1       4.542   2.931  16.734  0.00  0.00    +0.000 C 
BRANCH  15  16
ATOM     16  C   UNL     1       4.894   4.245  16.032  0.00  0.00    +0.000 C 
BRANCH  16  17
ATOM     17  C   UNL     1       6.380   4.373  15.697  0.00  0.00    +0.000 C 
BRANCH  17  18
ATOM     18  C   UNL     1       7.043   5.253  16.728  0.00  0.00    +0.000 A 
ATOM     19  C   UNL     1       7.573   4.692  17.898  0.00  0.00    +0.000 A 
ATOM     20  C   UNL     1       8.087   5.512  18.904  0.00  0.00    +0.000 A 
ATOM     21  C   UNL     1       8.068   6.897  18.755  0.00  0.00    +0.000 A 
ATOM     22  C   UNL     1       7.545   7.462  17.593  0.00  0.00    +0.000 A 
ATOM     23  C   UNL     1       7.037   6.647  16.584  0.00  0.00    +0.000 A 
ENDBRANCH  17  18
ENDBRANCH  16  17
ENDBRANCH  15  16
ENDBRANCH   7  15
TORSDOF 8
ENDMDL
MODEL 3
REMARK VINA RESULT:      -6.3      1.182      1.491
REMARK  Name = 
REMARK  9 active torsions:
REMARK  status: ('A' for Active; 'I' for Inactive)
REMARK    1  A    between atoms: C_1  and  S_2
REMARK    2  A    between atoms: S_2  and  C_3
REMARK    3  A    between atoms: C_3  and  C_4
REMARK    4  A    between atoms: C_10  and  C_11
REMARK    5  A    between atoms: C_10  and  C_13
REMARK    6  A    between atoms: C_11  and  O_12
REMARK    7  A    between atoms: C_13  and  C_14
REMARK    8  A    between atoms: C_14  and  C_15
REMARK    9  A    between atoms: C_15  and  C_16
REMARK                            x       y       z     vdW  Elec       q    Type
REMARK                         _______ _______ _______ _____ _____    ______ ____
ROOT
ATOM      1  C   UNL     1       6.735   4.998  15.119  0.00  0.00    +0.000 C 
ATOM      2  O   UNL     1       7.902   4.873  14.732  0.00  0.00    +0.000 OA
ATOM      3  N   UNL     1       6.423   5.666  16.298  0.00  0.00    +0.000 N 
ATOM      4  C   UNL     1       7.492   6.305  17.060  0.00  0.00    +0.000 C 
ATOM      5  C   UNL     1       7.541   5.764  18.484  0.00  0.00    +0.000 C 
ATOM      6  C   UNL     1       6.169   5.826  19.158  0.00  0.00    +0.000 C 
ATOM      7  C   UNL     1       5.032   5.192  18.309  0.00  0.00    +0.000 C 
ATOM      8  C   UNL     1       5.087   5.788  16.879  0.00  0.00    +0.000 C 
ENDROOT
BRANCH   1   9
ATOM      9  C   UNL     1       5.610   4.413  14.275  0.00  0.00    +0.000 C 
BRANCH   9  11
ATOM     10  C   UNL     1       4.656   3.310  11.909  0.00  0.00    +0.000 C 
ATOM     11  S   UNL     1       6.227   3.588  12.763  0.00  0.00    +0.000 S 
ENDBRANCH   9  11
ENDBRANCH   1   9
BRANCH   7  12
ATOM     12  C   UNL     1       5.219   3.654  18.224  0.00  0.00    +0.000 C 
BRANCH  12  13
ATOM     13  O   UNL     1       5.280   3.055  19.513  0.00  0.00    +0.000 OA
ATOM     14  H   UNL     1       5.057   2.110  19.418  0.00  0.00    +0.000 HD
ENDBRANCH  12  13
ENDBRANCH   7  12
BRANCH   7  15
ATOM     15  C   UNL     1       3.645   5.560  18.927  0.00  0.00    +0.000 C 
BRANCH  15  16
ATOM     16  C   UNL     1       2.592   5.979  17.897  0.00  0.00    +0.000 C 
BRANCH  16  17
ATOM     17  C   UNL     1       1.478   4.948  17.719  0.00  0.00    +0.000 C 
BRANCH  17  18
ATOM     18  C   UNL     1       1.505   3.988  18.885  0.00  0.00    +0.000 A 
ATOM     19  C   UNL     1       1.313   4.460  20.190  0.00  0.00    +0.000 A 
ATOM     20  C   UNL     1       1.448   3.597  21.279  0.00  0.00    +0.000 A 
ATOM     21  C   UNL     1       1.782   2.260  21.075  0.00  0.00    +0.000 A 
ATOM     22  C   UNL     1       1.972   1.783  19.778  0.00  0.00    +0.000 A 
ATOM     23  C   UNL     1       1.832   2.640  18.689  0.00  0.00    +0.000 A 
ENDBRANCH  17  18
ENDBRANCH  16  17
ENDBRANCH  15  16
ENDBRANCH   7  15
TORSDOF 8
ENDMDL
MODEL 4
REMARK VINA RESULT:      -6.1      2.167      3.612
REMARK  Name = 
REMARK  9 active torsions:
REMARK  status: ('A' for Active; 'I' for Inactive)
REMARK    1  A    between atoms: C_1  and  S_2
REMARK    2  A    between atoms: S_2  and  C_3
REMARK    3  A    between atoms: C_3  and  C_4
REMARK    4  A    between atoms: C_10  and  C_11
REMARK    5  A    between atoms: C_10  and  C_13
REMARK    6  A    between atoms: C_11  and  O_12
REMARK    7  A    between atoms: C_13  and  C_14
REMARK    8  A    between atoms: C_14  and  C_15
REMARK    9  A    between atoms: C_15  and  C_16
REMARK                            x       y       z     vdW  Elec       q    Type
REMARK                         _______ _______ _______ _____ _____    ______ ____
ROOT
ATOM      1  C   UNL     1       6.951   5.037  16.453  0.00  0.00    +0.000 C 
ATOM      2  O   UNL     1       7.946   4.368  16.759  0.00  0.00    +0.000 OA
ATOM      3  N   UNL     1       6.116   5.587  17.418  0.00  0.00    +0.000 N 
ATOM      4  C   UNL     1       6.462   5.441  18.829  0.00  0.00    +0.000 C 
ATOM      5  C   UNL     1       5.337   4.756  19.595  0.00  0.00    +0.000 C 
ATOM      6  C   UNL     1       3.990   5.438  19.349  0.00  0.00    +0.000 C 
ATOM      7  C   UNL     1       3.662   5.637  17.843  0.00  0.00    +0.000 C 
ATOM      8  C   UNL     1       4.874   6.314  17.155  0.00  0.00    +0.000 C 
ENDROOT
BRANCH   1   9
ATOM      9  C   UNL     1       6.642   5.269  14.980  0.00  0.00    +0.000 C 
BRANCH   9  11
ATOM     10  C   UNL     1       6.586   3.763  12.644  0.00  0.00    +0.000 C 
ATOM     11  S   UNL     1       5.722   3.877  14.230  0.00  0.00    +0.000 S 
ENDBRANCH   9  11
ENDBRANCH   1   9
BRANCH   7  12
ATOM     12  C   UNL     1       3.396   4.267  17.165  0.00  0.00    +0.000 C 
BRANCH  12  13
ATOM     13  O   UNL     1       2.044   3.851  17.323  0.00  0.00    +0.000 OA
ATOM     14  H   UNL     1       2.040   3.028  17.846  0.00  0.00    +0.000 HD
ENDBRANCH  12  13
ENDBRANCH   7  12
BRANCH   7  15
ATOM     15  C   UNL     1       2.434   6.591  17.693  0.00  0.00    +0.000 C 
BRANCH  15  16
ATOM     16  C   UNL     1       2.742   8.062  17.989  0.00  0.00    +0.000 C 
BRANCH  16  17
ATOM     17  C   UNL     1       1.499   8.951  17.992  0.00  0.00    +0.000 C 
BRANCH  17  18
ATOM     18  C   UNL     1       1.129   9.273  19.420  0.00  0.00    +0.000 A 
ATOM     19  C   UNL     1       1.508   8.411  20.457  0.00  0.00    +0.000 A 
ATOM     20  C   UNL     1       1.073   8.645  21.764  0.00  0.00    +0.000 A 
ATOM     21  C   UNL     1       0.252   9.735  22.043  0.00  0.00    +0.000 A 
ATOM     22  C   UNL     1      -0.126  10.599  21.015  0.00  0.00    +0.000 A 
ATOM     23  C   UNL     1       0.310  10.372  19.712  0.00  0.00    +0.000 A 
ENDBRANCH  17  18
ENDBRANCH  16  17
ENDBRANCH  15  16
ENDBRANCH   7  15
TORSDOF 8
ENDMDL
MODEL 5
REMARK VINA RESULT:      -6.1      0.727      1.259
REMARK  Name = 
REMARK  9 active torsions:
REMARK  status: ('A' for Active; 'I' for Inactive)
REMARK    1  A    between atoms: C_1  and  S_2
REMARK    2  A    between atoms: S_2  and  C_3
REMARK    3  A    between atoms: C_3  and  C_4
REMARK    4  A    between atoms: C_10  and  C_11
REMARK    5  A    between atoms: C_10  and  C_13
REMARK    6  A    between atoms: C_11  and  O_12
REMARK    7  A    between atoms: C_13  and  C_14
REMARK    8  A    between atoms: C_14  and  C_15
REMARK    9  A    between atoms: C_15  and  C_16
REMARK                            x       y       z     vdW  Elec       q    Type
REMARK                         _______ _______ _______ _____ _____    ______ ____
ROOT
ATOM      1  C   UNL     1       6.735   5.235  15.664  0.00  0.00    +0.000 C 
ATOM      2  O   UNL     1       7.855   4.711  15.655  0.00  0.00    +0.000 OA
ATOM      3  N   UNL     1       6.199   5.792  16.819  0.00  0.00    +0.000 N 
ATOM      4  C   UNL     1       7.007   5.832  18.035  0.00  0.00    +0.000 C 
ATOM      5  C   UNL     1       6.301   5.115  19.179  0.00  0.00    +0.000 C 
ATOM      6  C   UNL     1       4.869   5.621  19.364  0.00  0.00    +0.000 C 
ATOM      7  C   UNL     1       4.039   5.626  18.050  0.00  0.00    +0.000 C 
ATOM      8  C   UNL     1       4.853   6.352  16.949  0.00  0.00    +0.000 C 
ENDROOT
BRANCH   1   9
ATOM      9  C   UNL     1       5.929   5.277  14.373  0.00  0.00    +0.000 C 
BRANCH   9  11
ATOM     10  C   UNL     1       6.836   3.868  12.155  0.00  0.00    +0.000 C 
ATOM     11  S   UNL     1       5.766   3.630  13.595  0.00  0.00    +0.000 S 
ENDBRANCH   9  11
ENDBRANCH   1   9
BRANCH   7  12
ATOM     12  C   UNL     1       3.752   4.172  17.591  0.00  0.00    +0.000 C 
BRANCH  12  13
ATOM     13  O   UNL     1       4.060   3.224  18.607  0.00  0.00    +0.000 OA
ATOM     14  H   UNL     1       4.978   3.381  18.898  0.00  0.00    +0.000 HD
ENDBRANCH  12  13
ENDBRANCH   7  12
BRANCH   7  15
ATOM     15  C   UNL     1       2.714   6.423  18.267  0.00  0.00    +0.000 C 
BRANCH  15  16
ATOM     16  C   UNL     1       2.542   6.982  19.682  0.00  0.00    +0.000 C 
BRANCH  16  17
ATOM     17  C   UNL     1       1.336   6.401  20.419  0.00  0.00    +0.000 C 
BRANCH  17  18
ATOM     18  C   UNL     1       1.512   4.907  20.549  0.00  0.00    +0.000 A 
ATOM     19  C   UNL     1       0.742   4.036  19.767  0.00  0.00    +0.000 A 
ATOM     20  C   UNL     1       0.820   2.656  19.962  0.00  0.00    +0.000 A 
ATOM     21  C   UNL     1       1.663   2.135  20.942  0.00  0.00    +0.000 A 
ATOM     22  C   UNL     1       2.435   2.996  21.721  0.00  0.00    +0.000 A 
ATOM     23  C   UNL     1       2.363   4.373  21.525  0.00  0.00    +0.000 A 
ENDBRANCH  17  18
ENDBRANCH  16  17
ENDBRANCH  15  16
ENDBRANCH   7  15
TORSDOF 8
ENDMDL
MODEL 6
REMARK VINA RESULT:      -6.0      2.747      6.848
REMARK  Name = 
REMARK  9 active torsions:
REMARK  status: ('A' for Active; 'I' for Inactive)
REMARK    1  A    between atoms: C_1  and  S_2
REMARK    2  A    between atoms: S_2  and  C_3
REMARK    3  A    between atoms: C_3  and  C_4
REMARK    4  A    between atoms: C_10  and  C_11
REMARK    5  A    between atoms: C_10  and  C_13
REMARK    6  A    between atoms: C_11  and  O_12
REMARK    7  A    between atoms: C_13  and  C_14
REMARK    8  A    between atoms: C_14  and  C_15
REMARK    9  A    between atoms: C_15  and  C_16
REMARK                            x       y       z     vdW  Elec       q    Type
REMARK                         _______ _______ _______ _____ _____    ______ ____
ROOT
ATOM      1  C   UNL     1       2.197   5.088  20.447  0.00  0.00    +0.000 C 
ATOM      2  O   UNL     1       1.007   5.422  20.492  0.00  0.00    +0.000 OA
ATOM      3  N   UNL     1       3.143   5.846  19.767  0.00  0.00    +0.000 N 
ATOM      4  C   UNL     1       2.740   7.109  19.155  0.00  0.00    +0.000 C 
ATOM      5  C   UNL     1       3.041   7.109  17.661  0.00  0.00    +0.000 C 
ATOM      6  C   UNL     1       4.491   6.713  17.379  0.00  0.00    +0.000 C 
ATOM      7  C   UNL     1       4.922   5.396  18.082  0.00  0.00    +0.000 C 
ATOM      8  C   UNL     1       4.549   5.488  19.584  0.00  0.00    +0.000 C 
ENDROOT
BRANCH   1   9
ATOM      9  C   UNL     1       2.636   3.819  21.165  0.00  0.00    +0.000 C 
BRANCH   9  11
ATOM     10  C   UNL     1       1.367   2.129  19.360  0.00  0.00    +0.000 C 
ATOM     11  S   UNL     1       1.354   2.515  21.128  0.00  0.00    +0.000 S 
ENDBRANCH   9  11
ENDBRANCH   1   9
BRANCH   7  12
ATOM     12  C   UNL     1       4.186   4.184  17.452  0.00  0.00    +0.000 C 
BRANCH  12  13
ATOM     13  O   UNL     1       4.392   2.991  18.200  0.00  0.00    +0.000 OA
ATOM     14  H   UNL     1       4.988   3.199  18.943  0.00  0.00    +0.000 HD
ENDBRANCH  12  13
ENDBRANCH   7  12
BRANCH   7  15
ATOM     15  C   UNL     1       6.472   5.229  17.985  0.00  0.00    +0.000 C 
BRANCH  15  16
ATOM     16  C   UNL     1       6.948   4.517  16.715  0.00  0.00    +0.000 C 
BRANCH  16  17
ATOM     17  C   UNL     1       7.218   5.471  15.553  0.00  0.00    +0.000 C 
BRANCH  17  18
ATOM     18  C   UNL     1       6.911   4.764  14.255  0.00  0.00    +0.000 A 
ATOM     19  C   UNL     1       7.686   5.017  13.115  0.00  0.00    +0.000 A 
ATOM     20  C   UNL     1       7.339   4.452  11.886  0.00  0.00    +0.000 A 
ATOM     21  C   UNL     1       6.213   3.637  11.784  0.00  0.00    +0.000 A 
ATOM     22  C   UNL     1       5.441   3.378  12.916  0.00  0.00    +0.000 A 
ATOM     23  C   UNL     1       5.787   3.935  14.144  0.00  0.00    +0.000 A 
ENDBRANCH  17  18
ENDBRANCH  16  17
ENDBRANCH  15  16
ENDBRANCH   7  15
TORSDOF 8
ENDMDL
MODEL 7
REMARK VINA RESULT:      -5.9      2.638      4.252
REMARK  Name = 
REMARK  9 active torsions:
REMARK  status: ('A' for Active; 'I' for Inactive)
REMARK    1  A    between atoms: C_1  and  S_2
REMARK    2  A    between atoms: S_2  and  C_3
REMARK    3  A    between atoms: C_3  and  C_4
REMARK    4  A    between atoms: C_10  and  C_11
REMARK    5  A    between atoms: C_10  and  C_13
REMARK    6  A    between atoms: C_11  and  O_12
REMARK    7  A    between atoms: C_13  and  C_14
REMARK    8  A    between atoms: C_14  and  C_15
REMARK    9  A    between atoms: C_15  and  C_16
REMARK                            x       y       z     vdW  Elec       q    Type
REMARK                         _______ _______ _______ _____ _____    ______ ____
ROOT
ATOM      1  C   UNL     1       6.593   4.974  15.912  0.00  0.00    +0.000 C 
ATOM      2  O   UNL     1       7.712   4.469  16.060  0.00  0.00    +0.000 OA
ATOM      3  N   UNL     1       5.931   5.601  16.961  0.00  0.00    +0.000 N 
ATOM      4  C   UNL     1       6.603   5.738  18.250  0.00  0.00    +0.000 C 
ATOM      5  C   UNL     1       5.784   5.090  19.360  0.00  0.00    +0.000 C 
ATOM      6  C   UNL     1       4.336   5.585  19.355  0.00  0.00    +0.000 C 
ATOM      7  C   UNL     1       3.652   5.485  17.963  0.00  0.00    +0.000 C 
ATOM      8  C   UNL     1       4.574   6.146  16.906  0.00  0.00    +0.000 C 
ENDROOT
BRANCH   1   9
ATOM      9  C   UNL     1       5.931   4.914  14.542  0.00  0.00    +0.000 C 
BRANCH   9  11
ATOM     10  C   UNL     1       5.903   3.280  12.294  0.00  0.00    +0.000 C 
ATOM     11  S   UNL     1       7.062   4.294  13.245  0.00  0.00    +0.000 S 
ENDBRANCH   9  11
ENDBRANCH   1   9
BRANCH   7  12
ATOM     12  C   UNL     1       3.429   3.998  17.579  0.00  0.00    +0.000 C 
BRANCH  12  13
ATOM     13  O   UNL     1       2.079   3.744  17.207  0.00  0.00    +0.000 OA
ATOM     14  H   UNL     1       1.661   3.227  17.920  0.00  0.00    +0.000 HD
ENDBRANCH  12  13
ENDBRANCH   7  12
BRANCH   7  15
ATOM     15  C   UNL     1       2.304   6.274  17.979  0.00  0.00    +0.000 C 
BRANCH  15  16
ATOM     16  C   UNL     1       2.376   7.623  18.701  0.00  0.00    +0.000 C 
BRANCH  16  17
ATOM     17  C   UNL     1       2.089   8.813  17.786  0.00  0.00    +0.000 C 
BRANCH  17  18
ATOM     18  C   UNL     1       0.910   9.580  18.332  0.00  0.00    +0.000 A 
ATOM     19  C   UNL     1      -0.326   9.535  17.674  0.00  0.00    +0.000 A 
ATOM     20  C   UNL     1      -1.389  10.329  18.111  0.00  0.00    +0.000 A 
ATOM     21  C   UNL     1      -1.223  11.180  19.202  0.00  0.00    +0.000 A 
ATOM     22  C   UNL     1       0.003  11.227  19.863  0.00  0.00    +0.000 A 
ATOM     23  C   UNL     1       1.063  10.432  19.434  0.00  0.00    +0.000 A 
ENDBRANCH  17  18
ENDBRANCH  16  17
ENDBRANCH  15  16
ENDBRANCH   7  15
TORSDOF 8
ENDMDL
MODEL 8
REMARK VINA RESULT:      -5.9      1.842      3.445
REMARK  Name = 
REMARK  9 active torsions:
REMARK  status: ('A' for Active; 'I' for Inactive)
REMARK    1  A    between atoms: C_1  and  S_2
REMARK    2  A    between atoms: S_2  and  C_3
REMARK    3  A    between atoms: C_3  and  C_4
REMARK    4  A    between atoms: C_10  and  C_11
REMARK    5  A    between atoms: C_10  and  C_13
REMARK    6  A    between atoms: C_11  and  O_12
REMARK    7  A    between atoms: C_13  and  C_14
REMARK    8  A    between atoms: C_14  and  C_15
REMARK    9  A    between atoms: C_15  and  C_16
REMARK                            x       y       z     vdW  Elec       q    Type
REMARK                         _______ _______ _______ _____ _____    ______ ____
ROOT
ATOM      1  C   UNL     1       6.555   4.985  15.053  0.00  0.00    +0.000 C 
ATOM      2  O   UNL     1       7.737   5.056  14.700  0.00  0.00    +0.000 OA
ATOM      3  N   UNL     1       6.103   5.589  16.221  0.00  0.00    +0.000 N 
ATOM      4  C   UNL     1       7.029   6.394  17.012  0.00  0.00    +0.000 C 
ATOM      5  C   UNL     1       7.127   5.865  18.438  0.00  0.00    +0.000 C 
ATOM      6  C   UNL     1       5.745   5.697  19.072  0.00  0.00    +0.000 C 
ATOM      7  C   UNL     1       4.753   4.886  18.193  0.00  0.00    +0.000 C 
ATOM      8  C   UNL     1       4.749   5.486  16.764  0.00  0.00    +0.000 C 
ENDROOT
BRANCH   1   9
ATOM      9  C   UNL     1       5.567   4.223  14.178  0.00  0.00    +0.000 C 
BRANCH   9  11
ATOM     10  C   UNL     1       4.804   3.204  11.708  0.00  0.00    +0.000 C 
ATOM     11  S   UNL     1       6.306   3.685  12.594  0.00  0.00    +0.000 S 
ENDBRANCH   9  11
ENDBRANCH   1   9
BRANCH   7  12
ATOM     12  C   UNL     1       5.195   3.400  18.116  0.00  0.00    +0.000 C 
BRANCH  12  13
ATOM     13  O   UNL     1       5.082   2.747  19.376  0.00  0.00    +0.000 OA
ATOM     14  H   UNL     1       4.135   2.688  19.602  0.00  0.00    +0.000 HD
ENDBRANCH  12  13
ENDBRANCH   7  12
BRANCH   7  15
ATOM     15  C   UNL     1       3.308   5.017  18.770  0.00  0.00    +0.000 C 
BRANCH  15  16
ATOM     16  C   UNL     1       3.205   5.914  20.006  0.00  0.00    +0.000 C 
BRANCH  16  17
ATOM     17  C   UNL     1       1.796   6.455  20.245  0.00  0.00    +0.000 C 
BRANCH  17  18
ATOM     18  C   UNL     1       1.709   7.860  19.700  0.00  0.00    +0.000 A 
ATOM     19  C   UNL     1       1.016   8.849  20.410  0.00  0.00    +0.000 A 
ATOM     20  C   UNL     1       0.838  10.120  19.858  0.00  0.00    +0.000 A 
ATOM     21  C   UNL     1       1.342  10.409  18.591  0.00  0.00    +0.000 A 
ATOM     22  C   UNL     1       2.035   9.430  17.881  0.00  0.00    +0.000 A 
ATOM     23  C   UNL     1       2.220   8.163  18.431  0.00  0.00    +0.000 A 
ENDBRANCH  17  18
ENDBRANCH  16  17
ENDBRANCH  15  16
ENDBRANCH   7  15
TORSDOF 8
ENDMDL
MODEL 9
REMARK VINA RESULT:      -5.9      3.111      6.480
REMARK  Name = 
REMARK  9 active torsions:
REMARK  status: ('A' for Active; 'I' for Inactive)
REMARK    1  A    between atoms: C_1  and  S_2
REMARK    2  A    between atoms: S_2  and  C_3
REMARK    3  A    between atoms: C_3  and  C_4
REMARK    4  A    between atoms: C_10  and  C_11
REMARK    5  A    between atoms: C_10  and  C_13
REMARK    6  A    between atoms: C_11  and  O_12
REMARK    7  A    between atoms: C_13  and  C_14
REMARK    8  A    between atoms: C_14  and  C_15
REMARK    9  A    between atoms: C_15  and  C_16
REMARK                            x       y       z     vdW  Elec       q    Type
REMARK                         _______ _______ _______ _____ _____    ______ ____
ROOT
ATOM      1  C   UNL     1       1.866   5.651  19.902  0.00  0.00    +0.000 C 
ATOM      2  O   UNL     1       1.161   5.515  20.909  0.00  0.00    +0.000 OA
ATOM      3  N   UNL     1       1.936   4.669  18.921  0.00  0.00    +0.000 N 
ATOM      4  C   UNL     1       1.097   3.480  19.040  0.00  0.00    +0.000 C 
ATOM      5  C   UNL     1       1.947   2.215  19.041  0.00  0.00    +0.000 C 
ATOM      6  C   UNL     1       2.912   2.183  17.854  0.00  0.00    +0.000 C 
ATOM      7  C   UNL     1       3.757   3.479  17.707  0.00  0.00    +0.000 C 
ATOM      8  C   UNL     1       2.805   4.701  17.744  0.00  0.00    +0.000 C 
ENDROOT
BRANCH   1   9
ATOM      9  C   UNL     1       2.669   6.934  19.731  0.00  0.00    +0.000 C 
BRANCH   9  11
ATOM     10  C   UNL     1       1.843   8.829  17.873  0.00  0.00    +0.000 C 
ATOM     11  S   UNL     1       1.603   8.417  19.618  0.00  0.00    +0.000 S 
ENDBRANCH   9  11
ENDBRANCH   1   9
BRANCH   7  12
ATOM     12  C   UNL     1       4.773   3.593  18.875  0.00  0.00    +0.000 C 
BRANCH  12  13
ATOM     13  O   UNL     1       5.108   2.319  19.413  0.00  0.00    +0.000 OA
ATOM     14  H   UNL     1       4.843   2.308  20.351  0.00  0.00    +0.000 HD
ENDBRANCH  12  13
ENDBRANCH   7  12
BRANCH   7  15
ATOM     15  C   UNL     1       4.483   3.482  16.324  0.00  0.00    +0.000 C 
BRANCH  15  16
ATOM     16  C   UNL     1       5.973   3.825  16.398  0.00  0.00    +0.000 C 
BRANCH  16  17
ATOM     17  C   UNL     1       6.303   5.207  15.836  0.00  0.00    +0.000 C 
BRANCH  17  18
ATOM     18  C   UNL     1       6.946   6.038  16.920  0.00  0.00    +0.000 A 
ATOM     19  C   UNL     1       7.133   7.414  16.735  0.00  0.00    +0.000 A 
ATOM     20  C   UNL     1       7.827   8.166  17.685  0.00  0.00    +0.000 A 
ATOM     21  C   UNL     1       8.345   7.550  18.823  0.00  0.00    +0.000 A 
ATOM     22  C   UNL     1       8.159   6.181  19.014  0.00  0.00    +0.000 A 
ATOM     23  C   UNL     1       7.463   5.429  18.071  0.00  0.00    +0.000 A 
ENDBRANCH  17  18
ENDBRANCH  16  17
ENDBRANCH  15  16
ENDBRANCH   7  15
TORSDOF 8
ENDMDL
