MODEL 1
REMARK VINA RESULT:      -8.7      0.000      0.000
REMARK  Name = 
REMARK  2 active torsions:
REMARK  status: ('A' for Active; 'I' for Inactive)
REMARK    1  A    between atoms: N_8  and  C_9
REMARK    2  A    between atoms: C_23  and  C_24
REMARK                            x       y       z     vdW  Elec       q    Type
REMARK                         _______ _______ _______ _____ _____    ______ ____
ROOT
ATOM      1  N   UNL     1      -0.879  13.004  18.579  0.00  0.00    +0.000 N 
ATOM      2  C   UNL     1      -0.439  12.121  19.531  0.00  0.00    +0.000 A 
ATOM      3  N   UNL     1       0.218  11.041  19.231  0.00  0.00    +0.000 NA
ATOM      4  C   UNL     1       0.606  10.173  20.237  0.00  0.00    +0.000 A 
ATOM      5  N   UNL     1       1.229   9.007  19.841  0.00  0.00    +0.000 N 
ATOM      6  C   UNL     1       1.392   8.706  18.408  0.00  0.00    +0.000 C 
ATOM      7  C   UNL     1       2.609   7.792  18.173  0.00  0.00    +0.000 C 
ATOM      8  N   UNL     1       2.462   6.574  18.984  0.00  0.00    +0.000 N 
ATOM      9  C   UNL     1       2.324   6.844  20.432  0.00  0.00    +0.000 C 
ATOM     10  C   UNL     1       1.133   7.795  20.685  0.00  0.00    +0.000 C 
ATOM     11  N   UNL     1       0.415  10.412  21.510  0.00  0.00    +0.000 NA
ATOM     12  C   UNL     1      -0.218  11.559  21.844  0.00  0.00    +0.000 A 
ATOM     13  N   UNL     1      -0.517  12.097  23.008  0.00  0.00    +0.000 NA
ATOM     14  C   UNL     1      -1.207  13.244  22.665  0.00  0.00    +0.000 A 
ATOM     15  N   UNL     1      -1.309  13.472  21.346  0.00  0.00    +0.000 NA
ATOM     16  N   UNL     1      -0.676  12.388  20.871  0.00  0.00    +0.000 N 
ATOM     17  H   UNL     1      -0.386  12.965  17.696  0.00  0.00    +0.000 HD
ATOM     18  H   UNL     1      -1.104  13.938  18.915  0.00  0.00    +0.000 HD
ENDROOT
BRANCH   8  19
ATOM     19  C   UNL     1       2.882   5.335  18.523  0.00  0.00    +0.000 A 
ATOM     20  C   UNL     1       2.076   4.486  17.737  0.00  0.00    +0.000 A 
ATOM     21  F   UNL     1       0.875   4.897  17.301  0.00  0.00    +0.000 F 
ATOM     22  C   UNL     1       2.479   3.205  17.361  0.00  0.00    +0.000 A 
ATOM     23  C   UNL     1       3.718   2.740  17.763  0.00  0.00    +0.000 A 
ATOM     24  F   UNL     1       4.105   1.506  17.419  0.00  0.00    +0.000 F 
ATOM     25  C   UNL     1       4.558   3.532  18.524  0.00  0.00    +0.000 A 
ATOM     26  C   UNL     1       4.138   4.807  18.895  0.00  0.00    +0.000 A 
ATOM     27  F   UNL     1       4.956   5.510  19.696  0.00  0.00    +0.000 F 
ENDBRANCH   8  19
BRANCH  14  28
ATOM     28  C   UNL     1      -1.807  14.152  23.684  0.00  0.00    +0.000 A 
ATOM     29  C   UNL     1      -3.152  14.442  23.816  0.00  0.00    +0.000 A 
ATOM     30  C   UNL     1      -3.269  15.359  24.888  0.00  0.00    +0.000 A 
ATOM     31  C   UNL     1      -1.990  15.582  25.340  0.00  0.00    +0.000 A 
ATOM     32  O   UNL     1      -1.099  14.845  24.630  0.00  0.00    +0.000 OA
ENDBRANCH  14  28
TORSDOF 2
ENDMDL
MODEL 2
REMARK VINA RESULT:      -8.5      4.690     10.483
REMARK  Name = 
REMARK  2 active torsions:
REMARK  status: ('A' for Active; 'I' for Inactive)
REMARK    1  A    between atoms: N_8  and  C_9
REMARK    2  A    between atoms: C_23  and  C_24
REMARK                            x       y       z     vdW  Elec       q    Type
REMARK                         _______ _______ _______ _____ _____    ______ ____
ROOT
ATOM      1  N   UNL     1       2.257   5.135  20.933  0.00  0.00    +0.000 N 
ATOM      2  C   UNL     1       2.203   6.297  20.207  0.00  0.00    +0.000 A 
ATOM      3  N   UNL     1       1.522   7.333  20.597  0.00  0.00    +0.000 NA
ATOM      4  C   UNL     1       1.481   8.466  19.801  0.00  0.00    +0.000 A 
ATOM      5  N   UNL     1       0.675   9.497  20.235  0.00  0.00    +0.000 N 
ATOM      6  C   UNL     1      -0.139   9.336  21.453  0.00  0.00    +0.000 C 
ATOM      7  C   UNL     1      -0.415  10.699  22.114  0.00  0.00    +0.000 C 
ATOM      8  N   UNL     1      -1.051  11.592  21.133  0.00  0.00    +0.000 N 
ATOM      9  C   UNL     1      -0.244  11.794  19.911  0.00  0.00    +0.000 C 
ATOM     10  C   UNL     1       0.081  10.433  19.256  0.00  0.00    +0.000 C 
ATOM     11  N   UNL     1       2.163   8.591  18.690  0.00  0.00    +0.000 NA
ATOM     12  C   UNL     1       2.922   7.543  18.298  0.00  0.00    +0.000 A 
ATOM     13  N   UNL     1       3.736   7.376  17.277  0.00  0.00    +0.000 NA
ATOM     14  C   UNL     1       4.162   6.068  17.417  0.00  0.00    +0.000 A 
ATOM     15  N   UNL     1       3.691   5.431  18.501  0.00  0.00    +0.000 NA
ATOM     16  N   UNL     1       2.916   6.394  19.021  0.00  0.00    +0.000 N 
ATOM     17  H   UNL     1       2.042   5.233  21.917  0.00  0.00    +0.000 HD
ATOM     18  H   UNL     1       3.033   4.514  20.713  0.00  0.00    +0.000 HD
ENDROOT
BRANCH   8  19
ATOM     19  C   UNL     1      -2.033  12.499  21.502  0.00  0.00    +0.000 A 
ATOM     20  C   UNL     1      -1.968  13.280  22.674  0.00  0.00    +0.000 A 
ATOM     21  F   UNL     1      -0.873  13.257  23.450  0.00  0.00    +0.000 F 
ATOM     22  C   UNL     1      -3.007  14.118  23.077  0.00  0.00    +0.000 A 
ATOM     23  C   UNL     1      -4.150  14.200  22.302  0.00  0.00    +0.000 A 
ATOM     24  F   UNL     1      -5.158  14.990  22.691  0.00  0.00    +0.000 F 
ATOM     25  C   UNL     1      -4.267  13.467  21.135  0.00  0.00    +0.000 A 
ATOM     26  C   UNL     1      -3.221  12.632  20.750  0.00  0.00    +0.000 A 
ATOM     27  F   UNL     1      -3.411  11.885  19.649  0.00  0.00    +0.000 F 
ENDBRANCH   8  19
BRANCH  14  28
ATOM     28  C   UNL     1       5.063   5.410  16.428  0.00  0.00    +0.000 A 
ATOM     29  C   UNL     1       5.192   4.048  16.234  0.00  0.00    +0.000 A 
ATOM     30  C   UNL     1       6.167   3.869  15.223  0.00  0.00    +0.000 A 
ATOM     31  C   UNL     1       6.582   5.130  14.868  0.00  0.00    +0.000 A 
ATOM     32  O   UNL     1       5.909   6.070  15.578  0.00  0.00    +0.000 OA
ENDBRANCH  14  28
TORSDOF 2
ENDMDL
MODEL 3
REMARK VINA RESULT:      -8.4      4.871     10.614
REMARK  Name = 
REMARK  2 active torsions:
REMARK  status: ('A' for Active; 'I' for Inactive)
REMARK    1  A    between atoms: N_8  and  C_9
REMARK    2  A    between atoms: C_23  and  C_24
REMARK                            x       y       z     vdW  Elec       q    Type
REMARK                         _______ _______ _______ _____ _____    ______ ____
ROOT
ATOM      1  N   UNL     1       3.487   3.801  19.121  0.00  0.00    +0.000 N 
ATOM      2  C   UNL     1       3.428   5.094  18.668  0.00  0.00    +0.000 A 
ATOM      3  N   UNL     1       2.781   6.025  19.302  0.00  0.00    +0.000 NA
ATOM      4  C   UNL     1       2.732   7.305  18.774  0.00  0.00    +0.000 A 
ATOM      5  N   UNL     1       1.961   8.224  19.455  0.00  0.00    +0.000 N 
ATOM      6  C   UNL     1       1.190   7.809  20.640  0.00  0.00    +0.000 C 
ATOM      7  C   UNL     1       0.963   8.997  21.593  0.00  0.00    +0.000 C 
ATOM      8  N   UNL     1       0.308  10.089  20.857  0.00  0.00    +0.000 N 
ATOM      9  C   UNL     1       1.073  10.546  19.677  0.00  0.00    +0.000 C 
ATOM     10  C   UNL     1       1.348   9.358  18.728  0.00  0.00    +0.000 C 
ATOM     11  N   UNL     1       3.374   7.665  17.692  0.00  0.00    +0.000 NA
ATOM     12  C   UNL     1       4.099   6.720  17.050  0.00  0.00    +0.000 A 
ATOM     13  N   UNL     1       4.872   6.772  15.986  0.00  0.00    +0.000 NA
ATOM     14  C   UNL     1       5.278   5.462  15.820  0.00  0.00    +0.000 A 
ATOM     15  N   UNL     1       4.836   4.607  16.757  0.00  0.00    +0.000 NA
ATOM     16  N   UNL     1       4.098   5.441  17.505  0.00  0.00    +0.000 N 
ATOM     17  H   UNL     1       3.310   3.683  20.110  0.00  0.00    +0.000 HD
ATOM     18  H   UNL     1       4.243   3.235  18.740  0.00  0.00    +0.000 HD
ENDROOT
BRANCH   8  19
ATOM     19  C   UNL     1      -0.644  10.904  21.453  0.00  0.00    +0.000 A 
ATOM     20  C   UNL     1      -0.980  10.831  22.821  0.00  0.00    +0.000 A 
ATOM     21  F   UNL     1      -0.300  10.023  23.649  0.00  0.00    +0.000 F 
ATOM     22  C   UNL     1      -2.004  11.592  23.384  0.00  0.00    +0.000 A 
ATOM     23  C   UNL     1      -2.722  12.460  22.581  0.00  0.00    +0.000 A 
ATOM     24  F   UNL     1      -3.716  13.182  23.111  0.00  0.00    +0.000 F 
ATOM     25  C   UNL     1      -2.429  12.584  21.235  0.00  0.00    +0.000 A 
ATOM     26  C   UNL     1      -1.406  11.813  20.688  0.00  0.00    +0.000 A 
ATOM     27  F   UNL     1      -1.209  11.913  19.363  0.00  0.00    +0.000 F 
ENDBRANCH   8  19
BRANCH  14  28
ATOM     28  C   UNL     1       6.131   5.027  14.677  0.00  0.00    +0.000 A 
ATOM     29  C   UNL     1       5.815   4.038  13.763  0.00  0.00    +0.000 A 
ATOM     30  C   UNL     1       6.911   3.940  12.871  0.00  0.00    +0.000 A 
ATOM     31  C   UNL     1       7.832   4.866  13.299  0.00  0.00    +0.000 A 
ATOM     32  O   UNL     1       7.365   5.540  14.379  0.00  0.00    +0.000 OA
ENDBRANCH  14  28
TORSDOF 2
ENDMDL
MODEL 4
REMARK VINA RESULT:      -8.4      4.960     10.631
REMARK  Name = 
REMARK  2 active torsions:
REMARK  status: ('A' for Active; 'I' for Inactive)
REMARK    1  A    between atoms: N_8  and  C_9
REMARK    2  A    between atoms: C_23  and  C_24
REMARK                            x       y       z     vdW  Elec       q    Type
REMARK                         _______ _______ _______ _____ _____    ______ ____
ROOT
ATOM      1  N   UNL     1       3.878   3.662  18.861  0.00  0.00    +0.000 N 
ATOM      2  C   UNL     1       3.754   4.949  18.407  0.00  0.00    +0.000 A 
ATOM      3  N   UNL     1       3.086   5.856  19.054  0.00  0.00    +0.000 NA
ATOM      4  C   UNL     1       2.970   7.131  18.525  0.00  0.00    +0.000 A 
ATOM      5  N   UNL     1       2.179   8.020  19.223  0.00  0.00    +0.000 N 
ATOM      6  C   UNL     1       1.457   7.578  20.429  0.00  0.00    +0.000 C 
ATOM      7  C   UNL     1       1.206   8.759  21.384  0.00  0.00    +0.000 C 
ATOM      8  N   UNL     1       0.487   9.820  20.662  0.00  0.00    +0.000 N 
ATOM      9  C   UNL     1       1.203  10.303  19.461  0.00  0.00    +0.000 C 
ATOM     10  C   UNL     1       1.502   9.124  18.509  0.00  0.00    +0.000 C 
ATOM     11  N   UNL     1       3.569   7.512  17.425  0.00  0.00    +0.000 NA
ATOM     12  C   UNL     1       4.315   6.596  16.768  0.00  0.00    +0.000 A 
ATOM     13  N   UNL     1       5.058   6.675  15.684  0.00  0.00    +0.000 NA
ATOM     14  C   UNL     1       5.514   5.382  15.510  0.00  0.00    +0.000 A 
ATOM     15  N   UNL     1       5.131   4.514  16.461  0.00  0.00    +0.000 NA
ATOM     16  N   UNL     1       4.379   5.319  17.226  0.00  0.00    +0.000 N 
ATOM     17  H   UNL     1       3.732   3.540  19.855  0.00  0.00    +0.000 HD
ATOM     18  H   UNL     1       4.647   3.126  18.463  0.00  0.00    +0.000 HD
ENDROOT
BRANCH   8  19
ATOM     19  C   UNL     1      -0.481  10.597  21.280  0.00  0.00    +0.000 A 
ATOM     20  C   UNL     1      -1.277  11.538  20.594  0.00  0.00    +0.000 A 
ATOM     21  F   UNL     1      -1.203  11.648  19.258  0.00  0.00    +0.000 F 
ATOM     22  C   UNL     1      -2.180  12.376  21.246  0.00  0.00    +0.000 A 
ATOM     23  C   UNL     1      -2.315  12.287  22.620  0.00  0.00    +0.000 A 
ATOM     24  F   UNL     1      -3.168  13.099  23.255  0.00  0.00    +0.000 F 
ATOM     25  C   UNL     1      -1.570  11.375  23.346  0.00  0.00    +0.000 A 
ATOM     26  C   UNL     1      -0.670  10.549  22.679  0.00  0.00    +0.000 A 
ATOM     27  F   UNL     1       0.083   9.731  23.434  0.00  0.00    +0.000 F 
ENDBRANCH   8  19
BRANCH  14  28
ATOM     28  C   UNL     1       6.354   4.978  14.347  0.00  0.00    +0.000 A 
ATOM     29  C   UNL     1       6.072   3.953  13.464  0.00  0.00    +0.000 A 
ATOM     30  C   UNL     1       7.141   3.906  12.537  0.00  0.00    +0.000 A 
ATOM     31  C   UNL     1       8.015   4.898  12.914  0.00  0.00    +0.000 A 
ATOM     32  O   UNL     1       7.541   5.564  13.997  0.00  0.00    +0.000 OA
ENDBRANCH  14  28
TORSDOF 2
ENDMDL
MODEL 5
REMARK VINA RESULT:      -8.4      4.709     10.411
REMARK  Name = 
REMARK  2 active torsions:
REMARK  status: ('A' for Active; 'I' for Inactive)
REMARK    1  A    between atoms: N_8  and  C_9
REMARK    2  A    between atoms: C_23  and  C_24
REMARK                            x       y       z     vdW  Elec       q    Type
REMARK                         _______ _______ _______ _____ _____    ______ ____
ROOT
ATOM      1  N   UNL     1       2.335   5.176  20.921  0.00  0.00    +0.000 N 
ATOM      2  C   UNL     1       2.270   6.319  20.166  0.00  0.00    +0.000 A 
ATOM      3  N   UNL     1       1.585   7.360  20.535  0.00  0.00    +0.000 NA
ATOM      4  C   UNL     1       1.532   8.472  19.710  0.00  0.00    +0.000 A 
ATOM      5  N   UNL     1       0.722   9.509  20.124  0.00  0.00    +0.000 N 
ATOM      6  C   UNL     1      -0.083   9.374  21.351  0.00  0.00    +0.000 C 
ATOM      7  C   UNL     1      -0.363  10.752  21.979  0.00  0.00    +0.000 C 
ATOM      8  N   UNL     1      -1.011  11.615  20.980  0.00  0.00    +0.000 N 
ATOM      9  C   UNL     1      -0.212  11.792  19.748  0.00  0.00    +0.000 C 
ATOM     10  C   UNL     1       0.116  10.416  19.125  0.00  0.00    +0.000 C 
ATOM     11  N   UNL     1       2.206   8.574  18.592  0.00  0.00    +0.000 NA
ATOM     12  C   UNL     1       2.969   7.521  18.222  0.00  0.00    +0.000 A 
ATOM     13  N   UNL     1       3.778   7.332  17.201  0.00  0.00    +0.000 NA
ATOM     14  C   UNL     1       4.212   6.031  17.370  0.00  0.00    +0.000 A 
ATOM     15  N   UNL     1       3.752   5.419  18.473  0.00  0.00    +0.000 NA
ATOM     16  N   UNL     1       2.974   6.390  18.974  0.00  0.00    +0.000 N 
ATOM     17  H   UNL     1       2.126   5.297  21.904  0.00  0.00    +0.000 HD
ATOM     18  H   UNL     1       3.114   4.554  20.712  0.00  0.00    +0.000 HD
ENDROOT
BRANCH   8  19
ATOM     19  C   UNL     1      -1.996  12.526  21.332  0.00  0.00    +0.000 A 
ATOM     20  C   UNL     1      -3.193  12.694  20.605  0.00  0.00    +0.000 A 
ATOM     21  F   UNL     1      -3.485  11.884  19.575  0.00  0.00    +0.000 F 
ATOM     22  C   UNL     1      -4.130  13.678  20.917  0.00  0.00    +0.000 A 
ATOM     23  C   UNL     1      -3.891  14.525  21.985  0.00  0.00    +0.000 A 
ATOM     24  F   UNL     1      -4.778  15.482  22.281  0.00  0.00    +0.000 F 
ATOM     25  C   UNL     1      -2.741  14.401  22.743  0.00  0.00    +0.000 A 
ATOM     26  C   UNL     1      -1.814  13.415  22.413  0.00  0.00    +0.000 A 
ATOM     27  F   UNL     1      -0.678  13.381  23.132  0.00  0.00    +0.000 F 
ENDBRANCH   8  19
BRANCH  14  28
ATOM     28  C   UNL     1       5.112   5.354  16.393  0.00  0.00    +0.000 A 
ATOM     29  C   UNL     1       5.170   3.993  16.158  0.00  0.00    +0.000 A 
ATOM     30  C   UNL     1       6.171   3.790  15.177  0.00  0.00    +0.000 A 
ATOM     31  C   UNL     1       6.669   5.036  14.879  0.00  0.00    +0.000 A 
ATOM     32  O   UNL     1       6.024   5.991  15.595  0.00  0.00    +0.000 OA
ENDBRANCH  14  28
TORSDOF 2
ENDMDL
MODEL 6
REMARK VINA RESULT:      -8.3      0.845      1.731
REMARK  Name = 
REMARK  2 active torsions:
REMARK  status: ('A' for Active; 'I' for Inactive)
REMARK    1  A    between atoms: N_8  and  C_9
REMARK    2  A    between atoms: C_23  and  C_24
REMARK                            x       y       z     vdW  Elec       q    Type
REMARK                         _______ _______ _______ _____ _____    ______ ____
ROOT
ATOM      1  N   UNL     1      -0.771  13.032  17.708  0.00  0.00    +0.000 N 
ATOM      2  C   UNL     1      -0.309  12.283  18.760  0.00  0.00    +0.000 A 
ATOM      3  N   UNL     1       0.321  11.160  18.592  0.00  0.00    +0.000 NA
ATOM      4  C   UNL     1       0.733  10.433  19.697  0.00  0.00    +0.000 A 
ATOM      5  N   UNL     1       1.323   9.211  19.448  0.00  0.00    +0.000 N 
ATOM      6  C   UNL     1       1.429   8.709  18.067  0.00  0.00    +0.000 C 
ATOM      7  C   UNL     1       2.622   7.747  17.921  0.00  0.00    +0.000 C 
ATOM      8  N   UNL     1       2.488   6.658  18.901  0.00  0.00    +0.000 N 
ATOM      9  C   UNL     1       2.407   7.132  20.299  0.00  0.00    +0.000 C 
ATOM     10  C   UNL     1       1.241   8.132  20.457  0.00  0.00    +0.000 C 
ATOM     11  N   UNL     1       0.593  10.853  20.929  0.00  0.00    +0.000 NA
ATOM     12  C   UNL     1      -0.010  12.048  21.120  0.00  0.00    +0.000 A 
ATOM     13  N   UNL     1      -0.257  12.749  22.206  0.00  0.00    +0.000 NA
ATOM     14  C   UNL     1      -0.942  13.851  21.729  0.00  0.00    +0.000 A 
ATOM     15  N   UNL     1      -1.090  13.893  20.395  0.00  0.00    +0.000 NA
ATOM     16  N   UNL     1      -0.492  12.741  20.056  0.00  0.00    +0.000 N 
ATOM     17  H   UNL     1      -0.312  12.860  16.823  0.00  0.00    +0.000 HD
ATOM     18  H   UNL     1      -0.969  14.009  17.917  0.00  0.00    +0.000 HD
ENDROOT
BRANCH   8  19
ATOM     19  C   UNL     1       2.872   5.359  18.605  0.00  0.00    +0.000 A 
ATOM     20  C   UNL     1       4.115   4.811  18.983  0.00  0.00    +0.000 A 
ATOM     21  F   UNL     1       4.959   5.509  19.760  0.00  0.00    +0.000 F 
ATOM     22  C   UNL     1       4.523   3.535  18.597  0.00  0.00    +0.000 A 
ATOM     23  C   UNL     1       3.681   2.763  17.817  0.00  0.00    +0.000 A 
ATOM     24  F   UNL     1       4.072   1.544  17.429  0.00  0.00    +0.000 F 
ATOM     25  C   UNL     1       2.444   3.241  17.425  0.00  0.00    +0.000 A 
ATOM     26  C   UNL     1       2.055   4.520  17.816  0.00  0.00    +0.000 A 
ATOM     27  F   UNL     1       0.877   4.968  17.349  0.00  0.00    +0.000 F 
ENDBRANCH   8  19
BRANCH  14  28
ATOM     28  C   UNL     1      -1.490  14.905  22.630  0.00  0.00    +0.000 A 
ATOM     29  C   UNL     1      -2.685  14.835  23.322  0.00  0.00    +0.000 A 
ATOM     30  C   UNL     1      -2.820  16.055  24.028  0.00  0.00    +0.000 A 
ATOM     31  C   UNL     1      -1.707  16.799  23.718  0.00  0.00    +0.000 A 
ATOM     32  O   UNL     1      -0.888  16.107  22.887  0.00  0.00    +0.000 OA
ENDBRANCH  14  28
TORSDOF 2
ENDMDL
MODEL 7
REMARK VINA RESULT:      -8.3      1.809      2.284
REMARK  Name = 
REMARK  2 active torsions:
REMARK  status: ('A' for Active; 'I' for Inactive)
REMARK    1  A    between atoms: N_8  and  C_9
REMARK    2  A    between atoms: C_23  and  C_24
REMARK                            x       y       z     vdW  Elec       q    Type
REMARK                         _______ _______ _______ _____ _____    ______ ____
ROOT
ATOM      1  N   UNL     1      -1.482  12.466  18.339  0.00  0.00    +0.000 N 
ATOM      2  C   UNL     1      -0.889  11.575  19.197  0.00  0.00    +0.000 A 
ATOM      3  N   UNL     1       0.029  10.742  18.810  0.00  0.00    +0.000 NA
ATOM      4  C   UNL     1       0.566   9.844  19.719  0.00  0.00    +0.000 A 
ATOM      5  N   UNL     1       1.476   8.934  19.223  0.00  0.00    +0.000 N 
ATOM      6  C   UNL     1       1.785   8.907  17.782  0.00  0.00    +0.000 C 
ATOM      7  C   UNL     1       3.201   8.353  17.533  0.00  0.00    +0.000 C 
ATOM      8  N   UNL     1       3.316   7.025  18.153  0.00  0.00    +0.000 N 
ATOM      9  C   UNL     1       3.038   7.026  19.606  0.00  0.00    +0.000 C 
ATOM     10  C   UNL     1       1.638   7.618  19.880  0.00  0.00    +0.000 C 
ATOM     11  N   UNL     1       0.254   9.831  20.990  0.00  0.00    +0.000 NA
ATOM     12  C   UNL     1      -0.660  10.730  21.420  0.00  0.00    +0.000 A 
ATOM     13  N   UNL     1      -1.143  10.995  22.616  0.00  0.00    +0.000 NA
ATOM     14  C   UNL     1      -2.075  11.986  22.374  0.00  0.00    +0.000 A 
ATOM     15  N   UNL     1      -2.160  12.385  21.095  0.00  0.00    +0.000 NA
ATOM     16  N   UNL     1      -1.256  11.568  20.534  0.00  0.00    +0.000 N 
ATOM     17  H   UNL     1      -0.949  12.682  17.507  0.00  0.00    +0.000 HD
ATOM     18  H   UNL     1      -1.948  13.257  18.779  0.00  0.00    +0.000 HD
ENDROOT
BRANCH   8  19
ATOM     19  C   UNL     1       4.052   6.007  17.565  0.00  0.00    +0.000 A 
ATOM     20  C   UNL     1       5.358   6.184  17.063  0.00  0.00    +0.000 A 
ATOM     21  F   UNL     1       6.002   7.349  17.233  0.00  0.00    +0.000 F 
ATOM     22  C   UNL     1       6.048   5.175  16.391  0.00  0.00    +0.000 A 
ATOM     23  C   UNL     1       5.441   3.945  16.209  0.00  0.00    +0.000 A 
ATOM     24  F   UNL     1       6.090   2.978  15.552  0.00  0.00    +0.000 F 
ATOM     25  C   UNL     1       4.166   3.708  16.691  0.00  0.00    +0.000 A 
ATOM     26  C   UNL     1       3.490   4.729  17.355  0.00  0.00    +0.000 A 
ATOM     27  F   UNL     1       2.227   4.475  17.739  0.00  0.00    +0.000 F 
ENDBRANCH   8  19
BRANCH  14  28
ATOM     28  C   UNL     1      -2.934  12.557  23.451  0.00  0.00    +0.000 A 
ATOM     29  C   UNL     1      -2.872  13.852  23.931  0.00  0.00    +0.000 A 
ATOM     30  C   UNL     1      -3.843  13.954  24.957  0.00  0.00    +0.000 A 
ATOM     31  C   UNL     1      -4.432  12.715  25.047  0.00  0.00    +0.000 A 
ATOM     32  O   UNL     1      -3.902  11.868  24.130  0.00  0.00    +0.000 OA
ENDBRANCH  14  28
TORSDOF 2
ENDMDL
MODEL 8
REMARK VINA RESULT:      -8.3      4.948     10.434
REMARK  Name = 
REMARK  2 active torsions:
REMARK  status: ('A' for Active; 'I' for Inactive)
REMARK    1  A    between atoms: N_8  and  C_9
REMARK    2  A    between atoms: C_23  and  C_24
REMARK                            x       y       z     vdW  Elec       q    Type
REMARK                         _______ _______ _______ _____ _____    ______ ____
ROOT
ATOM      1  N   UNL     1       1.829  10.090  17.561  0.00  0.00    +0.000 N 
ATOM      2  C   UNL     1       1.320   9.742  18.786  0.00  0.00    +0.000 A 
ATOM      3  N   UNL     1       0.484  10.496  19.433  0.00  0.00    +0.000 NA
ATOM      4  C   UNL     1       0.032  10.103  20.683  0.00  0.00    +0.000 A 
ATOM      5  N   UNL     1      -0.789  10.989  21.349  0.00  0.00    +0.000 N 
ATOM      6  C   UNL     1      -1.092  12.305  20.758  0.00  0.00    +0.000 C 
ATOM      7  C   UNL     1      -2.449  12.833  21.257  0.00  0.00    +0.000 C 
ATOM      8  N   UNL     1      -2.442  12.871  22.727  0.00  0.00    +0.000 N 
ATOM      9  C   UNL     1      -2.168  11.558  23.349  0.00  0.00    +0.000 C 
ATOM     10  C   UNL     1      -0.829  10.991  22.827  0.00  0.00    +0.000 C 
ATOM     11  N   UNL     1       0.342   8.957  21.234  0.00  0.00    +0.000 NA
ATOM     12  C   UNL     1       1.167   8.134  20.548  0.00  0.00    +0.000 A 
ATOM     13  N   UNL     1       1.622   6.926  20.804  0.00  0.00    +0.000 NA
ATOM     14  C   UNL     1       2.458   6.664  19.736  0.00  0.00    +0.000 A 
ATOM     15  N   UNL     1       2.508   7.629  18.804  0.00  0.00    +0.000 NA
ATOM     16  N   UNL     1       1.684   8.532  19.357  0.00  0.00    +0.000 N 
ATOM     17  H   UNL     1       1.279  10.762  17.042  0.00  0.00    +0.000 HD
ATOM     18  H   UNL     1       2.219   9.326  17.013  0.00  0.00    +0.000 HD
ENDROOT
BRANCH   8  19
ATOM     19  C   UNL     1      -3.079  13.880  23.434  0.00  0.00    +0.000 A 
ATOM     20  C   UNL     1      -4.446  14.192  23.279  0.00  0.00    +0.000 A 
ATOM     21  F   UNL     1      -5.234  13.436  22.499  0.00  0.00    +0.000 F 
ATOM     22  C   UNL     1      -5.049  15.269  23.928  0.00  0.00    +0.000 A 
ATOM     23  C   UNL     1      -4.289  16.067  24.764  0.00  0.00    +0.000 A 
ATOM     24  F   UNL     1      -4.856  17.112  25.378  0.00  0.00    +0.000 F 
ATOM     25  C   UNL     1      -2.946  15.803  24.966  0.00  0.00    +0.000 A 
ATOM     26  C   UNL     1      -2.359  14.726  24.306  0.00  0.00    +0.000 A 
ATOM     27  F   UNL     1      -1.037  14.554  24.475  0.00  0.00    +0.000 F 
ENDBRANCH   8  19
BRANCH  14  28
ATOM     28  C   UNL     1       3.258   5.410  19.634  0.00  0.00    +0.000 A 
ATOM     29  C   UNL     1       4.563   5.318  19.188  0.00  0.00    +0.000 A 
ATOM     30  C   UNL     1       4.916   3.947  19.235  0.00  0.00    +0.000 A 
ATOM     31  C   UNL     1       3.804   3.285  19.696  0.00  0.00    +0.000 A 
ATOM     32  O   UNL     1       2.802   4.160  19.957  0.00  0.00    +0.000 OA
ENDBRANCH  14  28
TORSDOF 2
ENDMDL
MODEL 9
REMARK VINA RESULT:      -8.1      1.016      1.131
REMARK  Name = 
REMARK  2 active torsions:
REMARK  status: ('A' for Active; 'I' for Inactive)
REMARK    1  A    between atoms: N_8  and  C_9
REMARK    2  A    between atoms: C_23  and  C_24
REMARK                            x       y       z     vdW  Elec       q    Type
REMARK                         _______ _______ _______ _____ _____    ______ ____
ROOT
ATOM      1  N   UNL     1      -1.161  13.412  18.554  0.00  0.00    +0.000 N 
ATOM      2  C   UNL     1      -0.651  12.518  19.460  0.00  0.00    +0.000 A 
ATOM      3  N   UNL     1       0.039  11.478  19.100  0.00  0.00    +0.000 NA
ATOM      4  C   UNL     1       0.499  10.594  20.062  0.00  0.00    +0.000 A 
ATOM      5  N   UNL     1       1.154   9.469  19.604  0.00  0.00    +0.000 N 
ATOM      6  C   UNL     1       1.278   9.224  18.156  0.00  0.00    +0.000 C 
ATOM      7  C   UNL     1       2.523   8.371  17.848  0.00  0.00    +0.000 C 
ATOM      8  N   UNL     1       2.456   7.121  18.621  0.00  0.00    +0.000 N 
ATOM      9  C   UNL     1       2.359   7.337  20.081  0.00  0.00    +0.000 C 
ATOM     10  C   UNL     1       1.139   8.227  20.408  0.00  0.00    +0.000 C 
ATOM     11  N   UNL     1       0.344  10.783  21.348  0.00  0.00    +0.000 NA
ATOM     12  C   UNL     1      -0.324  11.890  21.743  0.00  0.00    +0.000 A 
ATOM     13  N   UNL     1      -0.603  12.375  22.934  0.00  0.00    +0.000 NA
ATOM     14  C   UNL     1      -1.351  13.503  22.656  0.00  0.00    +0.000 A 
ATOM     15  N   UNL     1      -1.510  13.769  21.349  0.00  0.00    +0.000 NA
ATOM     16  N   UNL     1      -0.851  12.730  20.815  0.00  0.00    +0.000 N 
ATOM     17  H   UNL     1      -0.700  13.424  17.654  0.00  0.00    +0.000 HD
ATOM     18  H   UNL     1      -1.413  14.324  18.930  0.00  0.00    +0.000 HD
ENDROOT
BRANCH   8  19
ATOM     19  C   UNL     1       2.910   5.917  18.103  0.00  0.00    +0.000 A 
ATOM     20  C   UNL     1       2.228   4.694  18.270  0.00  0.00    +0.000 A 
ATOM     21  F   UNL     1       1.024   4.660  18.862  0.00  0.00    +0.000 F 
ATOM     22  C   UNL     1       2.745   3.478  17.824  0.00  0.00    +0.000 A 
ATOM     23  C   UNL     1       3.972   3.459  17.185  0.00  0.00    +0.000 A 
ATOM     24  F   UNL     1       4.482   2.295  16.767  0.00  0.00    +0.000 F 
ATOM     25  C   UNL     1       4.682   4.629  16.981  0.00  0.00    +0.000 A 
ATOM     26  C   UNL     1       4.152   5.833  17.438  0.00  0.00    +0.000 A 
ATOM     27  F   UNL     1       4.911   6.931  17.283  0.00  0.00    +0.000 F 
ENDBRANCH   8  19
BRANCH  14  28
ATOM     28  C   UNL     1      -1.951  14.350  23.726  0.00  0.00    +0.000 A 
ATOM     29  C   UNL     1      -1.250  15.095  24.655  0.00  0.00    +0.000 A 
ATOM     30  C   UNL     1      -2.210  15.720  25.487  0.00  0.00    +0.000 A 
ATOM     31  C   UNL     1      -3.438  15.312  25.023  0.00  0.00    +0.000 A 
ATOM     32  O   UNL     1      -3.294  14.498  23.948  0.00  0.00    +0.000 OA
ENDBRANCH  14  28
TORSDOF 2
ENDMDL
