MODEL 1
REMARK VINA RESULT:      -6.9      0.000      0.000
REMARK  Name = 
REMARK  2 active torsions:
REMARK  status: ('A' for Active; 'I' for Inactive)
REMARK    1  A    between atoms: C_1  and  C_2
REMARK    2  A    between atoms: N_7  and  C_8
REMARK                            x       y       z     vdW  Elec       q    Type
REMARK                         _______ _______ _______ _____ _____    ______ ____
ROOT
ATOM      1  C   UNL     1      11.609  15.995  18.344  0.00  0.00    +0.000 C 
ATOM      2  C   UNL     1      10.488  16.288  19.351  0.00  0.00    +0.000 C 
ATOM      3  C   UNL     1      10.808  15.754  20.758  0.00  0.00    +0.000 C 
ATOM      4  N   UNL     1      10.337  14.390  21.060  0.00  0.00    +0.000 N 
ATOM      5  C   UNL     1       9.480  14.221  22.161  0.00  0.00    +0.000 C 
ATOM      6  O   UNL     1       9.117  15.199  22.804  0.00  0.00    +0.000 OA
ATOM      7  N   UNL     1       9.087  12.923  22.419  0.00  0.00    +0.000 N 
ATOM      8  C   UNL     1      10.498  13.412  20.051  0.00  0.00    +0.000 A 
ATOM      9  C   UNL     1      11.496  12.448  20.185  0.00  0.00    +0.000 A 
ATOM     10  C   UNL     1      11.674  11.499  19.175  0.00  0.00    +0.000 A 
ATOM     11  C   UNL     1      10.845  11.491  18.048  0.00  0.00    +0.000 A 
ATOM     12  C   UNL     1       9.835  12.445  17.905  0.00  0.00    +0.000 A 
ATOM     13  C   UNL     1       9.691  13.412  18.899  0.00  0.00    +0.000 A 
ATOM     14  N   UNL     1       8.791  14.542  18.659  0.00  0.00    +0.000 N 
ATOM     15  C   UNL     1       7.506  14.379  18.170  0.00  0.00    +0.000 A 
ATOM     16  C   UNL     1       6.840  15.577  18.044  0.00  0.00    +0.000 A 
ATOM     17  S   UNL     1       7.860  16.874  18.514  0.00  0.00    +0.000 S 
ATOM     18  C   UNL     1       9.147  15.801  18.881  0.00  0.00    +0.000 A 
ATOM     19  H   UNL     1       9.680  12.187  22.064  0.00  0.00    +0.000 HD
ENDROOT
BRANCH   7  20
ATOM     20  C   UNL     1       8.222  12.527  23.473  0.00  0.00    +0.000 A 
ATOM     21  C   UNL     1       8.558  12.622  24.827  0.00  0.00    +0.000 A 
ATOM     22  C   UNL     1       7.700  12.127  25.814  0.00  0.00    +0.000 A 
ATOM     23  C   UNL     1       6.485  11.552  25.458  0.00  0.00    +0.000 A 
ATOM     24  C   UNL     1       6.115  11.496  24.117  0.00  0.00    +0.000 A 
ATOM     25  C   UNL     1       6.974  11.991  23.129  0.00  0.00    +0.000 A 
ENDBRANCH   7  20
TORSDOF 1
ENDMDL
MODEL 2
REMARK VINA RESULT:      -6.6     10.269     12.472
REMARK  Name = 
REMARK  2 active torsions:
REMARK  status: ('A' for Active; 'I' for Inactive)
REMARK    1  A    between atoms: C_1  and  C_2
REMARK    2  A    between atoms: N_7  and  C_8
REMARK                            x       y       z     vdW  Elec       q    Type
REMARK                         _______ _______ _______ _____ _____    ______ ____
ROOT
ATOM      1  C   UNL     1       1.980  10.408  18.682  0.00  0.00    +0.000 C 
ATOM      2  C   UNL     1       0.636   9.709  18.930  0.00  0.00    +0.000 C 
ATOM      3  C   UNL     1      -0.438  10.126  17.911  0.00  0.00    +0.000 C 
ATOM      4  N   UNL     1      -1.286  11.271  18.289  0.00  0.00    +0.000 N 
ATOM      5  C   UNL     1      -2.676  11.071  18.334  0.00  0.00    +0.000 C 
ATOM      6  O   UNL     1      -3.138   9.959  18.106  0.00  0.00    +0.000 OA
ATOM      7  N   UNL     1      -3.429  12.180  18.667  0.00  0.00    +0.000 N 
ATOM      8  C   UNL     1      -0.647  12.377  18.894  0.00  0.00    +0.000 A 
ATOM      9  C   UNL     1      -0.446  13.542  18.154  0.00  0.00    +0.000 A 
ATOM     10  C   UNL     1       0.212  14.625  18.743  0.00  0.00    +0.000 A 
ATOM     11  C   UNL     1       0.646  14.560  20.073  0.00  0.00    +0.000 A 
ATOM     12  C   UNL     1       0.443  13.404  20.828  0.00  0.00    +0.000 A 
ATOM     13  C   UNL     1      -0.179  12.314  20.220  0.00  0.00    +0.000 A 
ATOM     14  N   UNL     1      -0.199  11.029  20.922  0.00  0.00    +0.000 N 
ATOM     15  C   UNL     1      -0.563  10.916  22.253  0.00  0.00    +0.000 A 
ATOM     16  C   UNL     1      -0.526   9.612  22.693  0.00  0.00    +0.000 A 
ATOM     17  S   UNL     1      -0.005   8.574  21.431  0.00  0.00    +0.000 S 
ATOM     18  C   UNL     1       0.142   9.888  20.338  0.00  0.00    +0.000 A 
ATOM     19  H   UNL     1      -3.007  13.082  18.508  0.00  0.00    +0.000 HD
ENDROOT
BRANCH   7  20
ATOM     20  C   UNL     1      -4.845  12.201  18.777  0.00  0.00    +0.000 A 
ATOM     21  C   UNL     1      -5.706  12.230  17.677  0.00  0.00    +0.000 A 
ATOM     22  C   UNL     1      -7.089  12.346  17.852  0.00  0.00    +0.000 A 
ATOM     23  C   UNL     1      -7.626  12.411  19.133  0.00  0.00    +0.000 A 
ATOM     24  C   UNL     1      -6.784  12.333  20.239  0.00  0.00    +0.000 A 
ATOM     25  C   UNL     1      -5.401  12.217  20.064  0.00  0.00    +0.000 A 
ENDBRANCH   7  20
TORSDOF 1
ENDMDL
MODEL 3
REMARK VINA RESULT:      -6.5      8.910     11.551
REMARK  Name = 
REMARK  2 active torsions:
REMARK  status: ('A' for Active; 'I' for Inactive)
REMARK    1  A    between atoms: C_1  and  C_2
REMARK    2  A    between atoms: N_7  and  C_8
REMARK                            x       y       z     vdW  Elec       q    Type
REMARK                         _______ _______ _______ _____ _____    ______ ____
ROOT
ATOM      1  C   UNL     1      -0.351   9.647  21.159  0.00  0.00    +0.000 C 
ATOM      2  C   UNL     1      -0.070  10.312  19.804  0.00  0.00    +0.000 C 
ATOM      3  C   UNL     1       0.957  11.453  19.912  0.00  0.00    +0.000 C 
ATOM      4  N   UNL     1       0.410  12.802  20.142  0.00  0.00    +0.000 N 
ATOM      5  C   UNL     1       0.725  13.805  19.209  0.00  0.00    +0.000 C 
ATOM      6  O   UNL     1       1.396  13.527  18.221  0.00  0.00    +0.000 OA
ATOM      7  N   UNL     1       0.211  15.057  19.480  0.00  0.00    +0.000 N 
ATOM      8  C   UNL     1      -0.644  12.923  21.077  0.00  0.00    +0.000 A 
ATOM      9  C   UNL     1      -0.386  13.469  22.333  0.00  0.00    +0.000 A 
ATOM     10  C   UNL     1      -1.421  13.561  23.267  0.00  0.00    +0.000 A 
ATOM     11  C   UNL     1      -2.716  13.137  22.944  0.00  0.00    +0.000 A 
ATOM     12  C   UNL     1      -2.990  12.598  21.686  0.00  0.00    +0.000 A 
ATOM     13  C   UNL     1      -1.942  12.472  20.775  0.00  0.00    +0.000 A 
ATOM     14  N   UNL     1      -2.164  11.711  19.544  0.00  0.00    +0.000 N 
ATOM     15  C   UNL     1      -3.277  11.901  18.742  0.00  0.00    +0.000 A 
ATOM     16  C   UNL     1      -3.262  11.089  17.630  0.00  0.00    +0.000 A 
ATOM     17  S   UNL     1      -1.868  10.091  17.643  0.00  0.00    +0.000 S 
ATOM     18  C   UNL     1      -1.323  10.778  19.117  0.00  0.00    +0.000 A 
ATOM     19  H   UNL     1      -0.027  15.254  20.441  0.00  0.00    +0.000 HD
ENDROOT
BRANCH   7  20
ATOM     20  C   UNL     1       0.398  16.209  18.671  0.00  0.00    +0.000 A 
ATOM     21  C   UNL     1      -0.652  16.998  18.194  0.00  0.00    +0.000 A 
ATOM     22  C   UNL     1      -0.409  18.065  17.323  0.00  0.00    +0.000 A 
ATOM     23  C   UNL     1       0.893  18.367  16.937  0.00  0.00    +0.000 A 
ATOM     24  C   UNL     1       1.953  17.620  17.443  0.00  0.00    +0.000 A 
ATOM     25  C   UNL     1       1.709  16.553  18.315  0.00  0.00    +0.000 A 
ENDBRANCH   7  20
TORSDOF 1
ENDMDL
MODEL 4
REMARK VINA RESULT:      -6.4      9.055     10.736
REMARK  Name = 
REMARK  2 active torsions:
REMARK  status: ('A' for Active; 'I' for Inactive)
REMARK    1  A    between atoms: C_1  and  C_2
REMARK    2  A    between atoms: N_7  and  C_8
REMARK                            x       y       z     vdW  Elec       q    Type
REMARK                         _______ _______ _______ _____ _____    ______ ____
ROOT
ATOM      1  C   UNL     1       5.880   3.406  15.927  0.00  0.00    +0.000 C 
ATOM      2  C   UNL     1       4.477   3.486  16.545  0.00  0.00    +0.000 C 
ATOM      3  C   UNL     1       3.779   4.824  16.246  0.00  0.00    +0.000 C 
ATOM      4  N   UNL     1       3.970   5.895  17.241  0.00  0.00    +0.000 N 
ATOM      5  C   UNL     1       2.823   6.450  17.835  0.00  0.00    +0.000 C 
ATOM      6  O   UNL     1       1.717   6.008  17.549  0.00  0.00    +0.000 OA
ATOM      7  N   UNL     1       3.052   7.467  18.741  0.00  0.00    +0.000 N 
ATOM      8  C   UNL     1       5.270   6.061  17.773  0.00  0.00    +0.000 A 
ATOM      9  C   UNL     1       6.049   7.138  17.354  0.00  0.00    +0.000 A 
ATOM     10  C   UNL     1       7.345   7.285  17.856  0.00  0.00    +0.000 A 
ATOM     11  C   UNL     1       7.854   6.379  18.794  0.00  0.00    +0.000 A 
ATOM     12  C   UNL     1       7.081   5.302  19.230  0.00  0.00    +0.000 A 
ATOM     13  C   UNL     1       5.805   5.140  18.693  0.00  0.00    +0.000 A 
ATOM     14  N   UNL     1       5.073   3.902  18.969  0.00  0.00    +0.000 N 
ATOM     15  C   UNL     1       4.963   3.373  20.244  0.00  0.00    +0.000 A 
ATOM     16  C   UNL     1       4.214   2.217  20.265  0.00  0.00    +0.000 A 
ATOM     17  S   UNL     1       3.700   1.815  18.679  0.00  0.00    +0.000 S 
ATOM     18  C   UNL     1       4.476   3.195  18.019  0.00  0.00    +0.000 A 
ATOM     19  H   UNL     1       3.925   7.966  18.656  0.00  0.00    +0.000 HD
ENDROOT
BRANCH   7  20
ATOM     20  C   UNL     1       2.042   8.161  19.459  0.00  0.00    +0.000 A 
ATOM     21  C   UNL     1       1.619   7.800  20.742  0.00  0.00    +0.000 A 
ATOM     22  C   UNL     1       0.555   8.465  21.359  0.00  0.00    +0.000 A 
ATOM     23  C   UNL     1      -0.082   9.516  20.707  0.00  0.00    +0.000 A 
ATOM     24  C   UNL     1       0.361   9.918  19.450  0.00  0.00    +0.000 A 
ATOM     25  C   UNL     1       1.426   9.252  18.833  0.00  0.00    +0.000 A 
ENDBRANCH   7  20
TORSDOF 1
ENDMDL
MODEL 5
REMARK VINA RESULT:      -6.1      7.347      9.868
REMARK  Name = 
REMARK  2 active torsions:
REMARK  status: ('A' for Active; 'I' for Inactive)
REMARK    1  A    between atoms: C_1  and  C_2
REMARK    2  A    between atoms: N_7  and  C_8
REMARK                            x       y       z     vdW  Elec       q    Type
REMARK                         _______ _______ _______ _____ _____    ______ ____
ROOT
ATOM      1  C   UNL     1      -2.385  10.410  18.472  0.00  0.00    +0.000 C 
ATOM      2  C   UNL     1      -2.021  11.810  18.988  0.00  0.00    +0.000 C 
ATOM      3  C   UNL     1      -0.966  12.503  18.109  0.00  0.00    +0.000 C 
ATOM      4  N   UNL     1       0.441  12.303  18.500  0.00  0.00    +0.000 N 
ATOM      5  C   UNL     1       1.214  13.444  18.775  0.00  0.00    +0.000 C 
ATOM      6  O   UNL     1       0.697  14.554  18.727  0.00  0.00    +0.000 OA
ATOM      7  N   UNL     1       2.532  13.206  19.111  0.00  0.00    +0.000 N 
ATOM      8  C   UNL     1       0.825  10.999  18.892  0.00  0.00    +0.000 A 
ATOM      9  C   UNL     1       1.583  10.217  18.023  0.00  0.00    +0.000 A 
ATOM     10  C   UNL     1       1.937   8.919  18.398  0.00  0.00    +0.000 A 
ATOM     11  C   UNL     1       1.561   8.408  19.646  0.00  0.00    +0.000 A 
ATOM     12  C   UNL     1       0.810   9.184  20.531  0.00  0.00    +0.000 A 
ATOM     13  C   UNL     1       0.427  10.464  20.131  0.00  0.00    +0.000 A 
ATOM     14  N   UNL     1      -0.541  11.199  20.948  0.00  0.00    +0.000 N 
ATOM     15  C   UNL     1      -0.424  11.305  22.324  0.00  0.00    +0.000 A 
ATOM     16  C   UNL     1      -1.436  12.058  22.876  0.00  0.00    +0.000 A 
ATOM     17  S   UNL     1      -2.519  12.583  21.654  0.00  0.00    +0.000 S 
ATOM     18  C   UNL     1      -1.602  11.804  20.431  0.00  0.00    +0.000 A 
ATOM     19  H   UNL     1       2.931  12.331  18.804  0.00  0.00    +0.000 HD
ENDROOT
BRANCH   7  20
ATOM     20  C   UNL     1       3.485  14.209  19.433  0.00  0.00    +0.000 A 
ATOM     21  C   UNL     1       3.723  14.661  20.734  0.00  0.00    +0.000 A 
ATOM     22  C   UNL     1       4.606  15.718  20.975  0.00  0.00    +0.000 A 
ATOM     23  C   UNL     1       5.281  16.318  19.917  0.00  0.00    +0.000 A 
ATOM     24  C   UNL     1       5.092  15.844  18.622  0.00  0.00    +0.000 A 
ATOM     25  C   UNL     1       4.207  14.787  18.380  0.00  0.00    +0.000 A 
ENDBRANCH   7  20
TORSDOF 1
ENDMDL
MODEL 6
REMARK VINA RESULT:      -6.0      8.503     10.525
REMARK  Name = 
REMARK  2 active torsions:
REMARK  status: ('A' for Active; 'I' for Inactive)
REMARK    1  A    between atoms: C_1  and  C_2
REMARK    2  A    between atoms: N_7  and  C_8
REMARK                            x       y       z     vdW  Elec       q    Type
REMARK                         _______ _______ _______ _____ _____    ______ ____
ROOT
ATOM      1  C   UNL     1      -1.889  13.951  21.399  0.00  0.00    +0.000 C 
ATOM      2  C   UNL     1      -2.200  12.466  21.166  0.00  0.00    +0.000 C 
ATOM      3  C   UNL     1      -1.184  11.538  21.853  0.00  0.00    +0.000 C 
ATOM      4  N   UNL     1      -0.022  11.130  21.044  0.00  0.00    +0.000 N 
ATOM      5  C   UNL     1       0.195   9.755  20.853  0.00  0.00    +0.000 C 
ATOM      6  O   UNL     1      -0.599   8.945  21.318  0.00  0.00    +0.000 OA
ATOM      7  N   UNL     1       1.309   9.422  20.109  0.00  0.00    +0.000 N 
ATOM      8  C   UNL     1       0.594  12.124  20.248  0.00  0.00    +0.000 A 
ATOM      9  C   UNL     1       1.819  12.658  20.645  0.00  0.00    +0.000 A 
ATOM     10  C   UNL     1       2.413  13.661  19.875  0.00  0.00    +0.000 A 
ATOM     11  C   UNL     1       1.804  14.114  18.698  0.00  0.00    +0.000 A 
ATOM     12  C   UNL     1       0.582  13.581  18.284  0.00  0.00    +0.000 A 
ATOM     13  C   UNL     1      -0.023  12.610  19.080  0.00  0.00    +0.000 A 
ATOM     14  N   UNL     1      -1.398  12.205  18.779  0.00  0.00    +0.000 N 
ATOM     15  C   UNL     1      -1.817  11.889  17.498  0.00  0.00    +0.000 A 
ATOM     16  C   UNL     1      -3.142  11.519  17.460  0.00  0.00    +0.000 A 
ATOM     17  S   UNL     1      -3.829  11.612  19.028  0.00  0.00    +0.000 S 
ATOM     18  C   UNL     1      -2.341  12.127  19.709  0.00  0.00    +0.000 A 
ATOM     19  H   UNL     1       2.048  10.107  20.064  0.00  0.00    +0.000 HD
ENDROOT
BRANCH   7  20
ATOM     20  C   UNL     1       1.711   8.098  19.790  0.00  0.00    +0.000 A 
ATOM     21  C   UNL     1       1.625   7.026  20.683  0.00  0.00    +0.000 A 
ATOM     22  C   UNL     1       2.125   5.766  20.341  0.00  0.00    +0.000 A 
ATOM     23  C   UNL     1       2.697   5.559  19.090  0.00  0.00    +0.000 A 
ATOM     24  C   UNL     1       2.745   6.604  18.172  0.00  0.00    +0.000 A 
ATOM     25  C   UNL     1       2.244   7.866  18.515  0.00  0.00    +0.000 A 
ENDBRANCH   7  20
TORSDOF 1
ENDMDL
MODEL 7
REMARK VINA RESULT:      -6.0      7.337      9.757
REMARK  Name = 
REMARK  2 active torsions:
REMARK  status: ('A' for Active; 'I' for Inactive)
REMARK    1  A    between atoms: C_1  and  C_2
REMARK    2  A    between atoms: N_7  and  C_8
REMARK                            x       y       z     vdW  Elec       q    Type
REMARK                         _______ _______ _______ _____ _____    ______ ____
ROOT
ATOM      1  C   UNL     1      -2.313  10.566  18.374  0.00  0.00    +0.000 C 
ATOM      2  C   UNL     1      -1.956  11.934  18.973  0.00  0.00    +0.000 C 
ATOM      3  C   UNL     1      -0.863  12.659  18.170  0.00  0.00    +0.000 C 
ATOM      4  N   UNL     1       0.527  12.425  18.601  0.00  0.00    +0.000 N 
ATOM      5  C   UNL     1       1.300  13.542  18.961  0.00  0.00    +0.000 C 
ATOM      6  O   UNL     1       0.794  14.658  18.952  0.00  0.00    +0.000 OA
ATOM      7  N   UNL     1       2.602  13.274  19.333  0.00  0.00    +0.000 N 
ATOM      8  C   UNL     1       0.884  11.099  18.940  0.00  0.00    +0.000 A 
ATOM      9  C   UNL     1       1.668  10.354  18.060  0.00  0.00    +0.000 A 
ATOM     10  C   UNL     1       1.996   9.034  18.382  0.00  0.00    +0.000 A 
ATOM     11  C   UNL     1       1.570   8.466  19.588  0.00  0.00    +0.000 A 
ATOM     12  C   UNL     1       0.793   9.204  20.482  0.00  0.00    +0.000 A 
ATOM     13  C   UNL     1       0.436  10.506  20.135  0.00  0.00    +0.000 A 
ATOM     14  N   UNL     1      -0.554  11.209  20.952  0.00  0.00    +0.000 N 
ATOM     15  C   UNL     1      -0.488  11.244  22.335  0.00  0.00    +0.000 A 
ATOM     16  C   UNL     1      -1.512  11.979  22.888  0.00  0.00    +0.000 A 
ATOM     17  S   UNL     1      -2.545  12.576  21.655  0.00  0.00    +0.000 S 
ATOM     18  C   UNL     1      -1.590  11.851  20.428  0.00  0.00    +0.000 A 
ATOM     19  H   UNL     1       3.004  12.411  18.997  0.00  0.00    +0.000 HD
ENDROOT
BRANCH   7  20
ATOM     20  C   UNL     1       3.551  14.249  19.740  0.00  0.00    +0.000 A 
ATOM     21  C   UNL     1       4.329  14.991  18.847  0.00  0.00    +0.000 A 
ATOM     22  C   UNL     1       5.314  15.868  19.312  0.00  0.00    +0.000 A 
ATOM     23  C   UNL     1       5.515  16.028  20.679  0.00  0.00    +0.000 A 
ATOM     24  C   UNL     1       4.714  15.333  21.581  0.00  0.00    +0.000 A 
ATOM     25  C   UNL     1       3.729  14.455  21.115  0.00  0.00    +0.000 A 
ENDBRANCH   7  20
TORSDOF 1
ENDMDL
MODEL 8
REMARK VINA RESULT:      -6.0      7.746     10.634
REMARK  Name = 
REMARK  2 active torsions:
REMARK  status: ('A' for Active; 'I' for Inactive)
REMARK    1  A    between atoms: C_1  and  C_2
REMARK    2  A    between atoms: N_7  and  C_8
REMARK                            x       y       z     vdW  Elec       q    Type
REMARK                         _______ _______ _______ _____ _____    ______ ____
ROOT
ATOM      1  C   UNL     1      -0.865   8.660  21.561  0.00  0.00    +0.000 C 
ATOM      2  C   UNL     1       0.523   9.277  21.338  0.00  0.00    +0.000 C 
ATOM      3  C   UNL     1       0.577  10.761  21.741  0.00  0.00    +0.000 C 
ATOM      4  N   UNL     1       0.284  11.736  20.676  0.00  0.00    +0.000 N 
ATOM      5  C   UNL     1       1.263  12.701  20.381  0.00  0.00    +0.000 C 
ATOM      6  O   UNL     1       2.335  12.679  20.976  0.00  0.00    +0.000 OA
ATOM      7  N   UNL     1       0.933  13.608  19.395  0.00  0.00    +0.000 N 
ATOM      8  C   UNL     1      -0.793  11.443  19.807  0.00  0.00    +0.000 A 
ATOM      9  C   UNL     1      -1.993  12.139  19.945  0.00  0.00    +0.000 A 
ATOM     10  C   UNL     1      -3.067  11.828  19.106  0.00  0.00    +0.000 A 
ATOM     11  C   UNL     1      -2.940  10.847  18.116  0.00  0.00    +0.000 A 
ATOM     12  C   UNL     1      -1.740  10.150  17.961  0.00  0.00    +0.000 A 
ATOM     13  C   UNL     1      -0.688  10.438  18.828  0.00  0.00    +0.000 A 
ATOM     14  N   UNL     1       0.490   9.567  18.824  0.00  0.00    +0.000 N 
ATOM     15  C   UNL     1       1.123   9.179  17.655  0.00  0.00    +0.000 A 
ATOM     16  C   UNL     1       2.217   8.379  17.896  0.00  0.00    +0.000 A 
ATOM     17  S   UNL     1       2.397   8.113  19.581  0.00  0.00    +0.000 S 
ATOM     18  C   UNL     1       1.025   9.080  19.936  0.00  0.00    +0.000 A 
ATOM     19  H   UNL     1      -0.051  13.749  19.216  0.00  0.00    +0.000 HD
ENDROOT
BRANCH   7  20
ATOM     20  C   UNL     1       1.773  14.657  18.936  0.00  0.00    +0.000 A 
ATOM     21  C   UNL     1       1.569  16.004  19.249  0.00  0.00    +0.000 A 
ATOM     22  C   UNL     1       2.375  17.000  18.689  0.00  0.00    +0.000 A 
ATOM     23  C   UNL     1       3.411  16.655  17.827  0.00  0.00    +0.000 A 
ATOM     24  C   UNL     1       3.657  15.314  17.546  0.00  0.00    +0.000 A 
ATOM     25  C   UNL     1       2.849  14.318  18.106  0.00  0.00    +0.000 A 
ENDBRANCH   7  20
TORSDOF 1
ENDMDL
MODEL 9
REMARK VINA RESULT:      -5.9     10.124     12.507
REMARK  Name = 
REMARK  2 active torsions:
REMARK  status: ('A' for Active; 'I' for Inactive)
REMARK    1  A    between atoms: C_1  and  C_2
REMARK    2  A    between atoms: N_7  and  C_8
REMARK                            x       y       z     vdW  Elec       q    Type
REMARK                         _______ _______ _______ _____ _____    ______ ____
ROOT
ATOM      1  C   UNL     1       2.046  12.968  20.511  0.00  0.00    +0.000 C 
ATOM      2  C   UNL     1       1.086  11.862  20.051  0.00  0.00    +0.000 C 
ATOM      3  C   UNL     1       0.052  12.369  19.031  0.00  0.00    +0.000 C 
ATOM      4  N   UNL     1      -1.224  12.856  19.583  0.00  0.00    +0.000 N 
ATOM      5  C   UNL     1      -2.408  12.242  19.139  0.00  0.00    +0.000 C 
ATOM      6  O   UNL     1      -2.348  11.305  18.352  0.00  0.00    +0.000 OA
ATOM      7  N   UNL     1      -3.579  12.750  19.666  0.00  0.00    +0.000 N 
ATOM      8  C   UNL     1      -1.162  13.658  20.746  0.00  0.00    +0.000 A 
ATOM      9  C   UNL     1      -1.375  15.032  20.643  0.00  0.00    +0.000 A 
ATOM     10  C   UNL     1      -1.284  15.829  21.787  0.00  0.00    +0.000 A 
ATOM     11  C   UNL     1      -1.009  15.259  23.035  0.00  0.00    +0.000 A 
ATOM     12  C   UNL     1      -0.803  13.883  23.154  0.00  0.00    +0.000 A 
ATOM     13  C   UNL     1      -0.856  13.102  22.001  0.00  0.00    +0.000 A 
ATOM     14  N   UNL     1      -0.425  11.704  22.075  0.00  0.00    +0.000 N 
ATOM     15  C   UNL     1      -0.853  10.846  23.074  0.00  0.00    +0.000 A 
ATOM     16  C   UNL     1      -0.335   9.579  22.930  0.00  0.00    +0.000 A 
ATOM     17  S   UNL     1       0.698   9.513  21.562  0.00  0.00    +0.000 S 
ATOM     18  C   UNL     1       0.413  11.165  21.199  0.00  0.00    +0.000 A 
ATOM     19  H   UNL     1      -3.548  13.694  20.021  0.00  0.00    +0.000 HD
ENDROOT
BRANCH   7  20
ATOM     20  C   UNL     1      -4.883  12.277  19.362  0.00  0.00    +0.000 A 
ATOM     21  C   UNL     1      -5.371  12.135  18.059  0.00  0.00    +0.000 A 
ATOM     22  C   UNL     1      -6.696  11.753  17.828  0.00  0.00    +0.000 A 
ATOM     23  C   UNL     1      -7.542  11.488  18.900  0.00  0.00    +0.000 A 
ATOM     24  C   UNL     1      -7.056  11.577  20.201  0.00  0.00    +0.000 A 
ATOM     25  C   UNL     1      -5.729  11.959  20.433  0.00  0.00    +0.000 A 
ENDBRANCH   7  20
TORSDOF 1
ENDMDL
