MODEL 1
REMARK VINA RESULT:      -6.8      0.000      0.000
REMARK  Name = 
REMARK  10 active torsions:
REMARK  status: ('A' for Active; 'I' for Inactive)
REMARK    1  A    between atoms: C_1  and  C_2
REMARK    2  A    between atoms: C_2  and  C_3
REMARK    3  A    between atoms: C_2  and  N_4
REMARK    4  A    between atoms: N_4  and  C_5
REMARK    5  A    between atoms: C_5  and  C_6
REMARK    6  A    between atoms: C_6  and  C_7
REMARK    7  A    between atoms: N_9  and  C_10
REMARK    8  A    between atoms: C_14  and  C_15
REMARK    9  A    between atoms: C_18  and  C_19
REMARK   10  A    between atoms: N_22  and  C_23
REMARK                            x       y       z     vdW  Elec       q    Type
REMARK                         _______ _______ _______ _____ _____    ______ ____
ROOT
ATOM      1  C   UNL     1       1.813   6.769  20.641  0.00  0.00    +0.000 A 
ATOM      2  S   UNL     1       0.652   7.740  21.435  0.00  0.00    +0.000 S 
ATOM      3  C   UNL     1       0.722   8.926  20.220  0.00  0.00    +0.000 A 
ATOM      4  C   UNL     1       1.616   8.604  19.216  0.00  0.00    +0.000 A 
ATOM      5  C   UNL     1       2.252   7.336  19.457  0.00  0.00    +0.000 A 
ATOM      6  C   UNL     1       1.819   9.563  18.075  0.00  0.00    +0.000 C 
ATOM      7  C   UNL     1       1.244  10.955  18.395  0.00  0.00    +0.000 C 
ATOM      8  N   UNL     1      -0.106  10.884  18.981  0.00  0.00    +0.000 NA
ATOM      9  C   UNL     1      -0.067  10.200  20.292  0.00  0.00    +0.000 C 
ATOM     10  H   UNL     1      -0.698  10.327  18.364  0.00  0.00    +0.000 HD
ENDROOT
BRANCH   5  11
ATOM     11  C   UNL     1       3.215   6.636  18.530  0.00  0.00    +0.000 A 
ATOM     12  N   UNL     1       4.489   6.959  18.470  0.00  0.00    +0.000 NA
ATOM     13  C   UNL     1       5.147   6.167  17.522  0.00  0.00    +0.000 A 
ATOM     14  C   UNL     1       6.510   6.233  17.134  0.00  0.00    +0.000 A 
ATOM     15  C   UNL     1       7.006   5.315  16.189  0.00  0.00    +0.000 A 
ATOM     16  C   UNL     1       6.186   4.334  15.642  0.00  0.00    +0.000 A 
ATOM     17  C   UNL     1       4.843   4.254  16.005  0.00  0.00    +0.000 A 
ATOM     18  C   UNL     1       4.351   5.182  16.935  0.00  0.00    +0.000 A 
ATOM     19  S   UNL     1       2.755   5.317  17.533  0.00  0.00    +0.000 S 
BRANCH  14  20
ATOM     20  C   UNL     1       7.364   7.217  17.764  0.00  0.00    +0.000 A 
ATOM     21  C   UNL     1       8.326   7.100  18.794  0.00  0.00    +0.000 A 
ATOM     22  N   UNL     1       8.984   8.242  19.018  0.00  0.00    +0.000 NA
ATOM     23  N   UNL     1       8.431   9.098  18.140  0.00  0.00    +0.000 N 
ATOM     24  C   UNL     1       8.925  10.447  18.022  0.00  0.00    +0.000 C 
ATOM     25  C   UNL     1       7.445   8.538  17.380  0.00  0.00    +0.000 A 
ENDBRANCH  14  20
ENDBRANCH   5  11
BRANCH   1  28
ATOM     26  C   UNL     1       1.508   4.418  20.983  0.00  0.00    +0.000 C 
ATOM     27  O   UNL     1       0.522   4.337  20.262  0.00  0.00    +0.000 OA
ATOM     28  N   UNL     1       2.207   5.587  21.260  0.00  0.00    +0.000 N 
ATOM     29  H   UNL     1       3.213   5.470  21.363  0.00  0.00    +0.000 HD
BRANCH  26  30
ATOM     30  C   UNL     1       2.074   3.183  21.682  0.00  0.00    +0.000 C 
BRANCH  30  31
ATOM     31  C   UNL     1       3.441   2.858  21.074  0.00  0.00    +0.000 C 
BRANCH  31  32
ATOM     32  N   UNL     1       3.464   2.960  19.607  0.00  0.00    +0.000 NA
ATOM     33  H   UNL     1       2.857   3.724  19.312  0.00  0.00    +0.000 HD
BRANCH  32  35
ATOM     34  C   UNL     1       1.684   1.954  18.257  0.00  0.00    +0.000 C 
ATOM     35  C   UNL     1       3.025   1.710  18.954  0.00  0.00    +0.000 C 
ATOM     36  C   UNL     1       4.030   1.177  17.926  0.00  0.00    +0.000 C 
ENDBRANCH  32  35
ENDBRANCH  31  32
ENDBRANCH  30  31
ENDBRANCH  26  30
ENDBRANCH   1  28
TORSDOF 7
ENDMDL
MODEL 2
REMARK VINA RESULT:      -6.6      3.449      7.376
REMARK  Name = 
REMARK  10 active torsions:
REMARK  status: ('A' for Active; 'I' for Inactive)
REMARK    1  A    between atoms: C_1  and  C_2
REMARK    2  A    between atoms: C_2  and  C_3
REMARK    3  A    between atoms: C_2  and  N_4
REMARK    4  A    between atoms: N_4  and  C_5
REMARK    5  A    between atoms: C_5  and  C_6
REMARK    6  A    between atoms: C_6  and  C_7
REMARK    7  A    between atoms: N_9  and  C_10
REMARK    8  A    between atoms: C_14  and  C_15
REMARK    9  A    between atoms: C_18  and  C_19
REMARK   10  A    between atoms: N_22  and  C_23
REMARK                            x       y       z     vdW  Elec       q    Type
REMARK                         _______ _______ _______ _____ _____    ______ ____
ROOT
ATOM      1  C   UNL     1      -0.630  10.332  18.937  0.00  0.00    +0.000 A 
ATOM      2  S   UNL     1      -1.617  11.240  19.996  0.00  0.00    +0.000 S 
ATOM      3  C   UNL     1      -0.793  10.660  21.363  0.00  0.00    +0.000 A 
ATOM      4  C   UNL     1       0.223   9.781  21.036  0.00  0.00    +0.000 A 
ATOM      5  C   UNL     1       0.325   9.593  19.613  0.00  0.00    +0.000 A 
ATOM      6  C   UNL     1       1.036   9.152  22.135  0.00  0.00    +0.000 C 
ATOM      7  C   UNL     1       0.358   9.318  23.507  0.00  0.00    +0.000 C 
ATOM      8  N   UNL     1      -0.127  10.692  23.732  0.00  0.00    +0.000 NA
ATOM      9  C   UNL     1      -1.190  11.032  22.762  0.00  0.00    +0.000 C 
ATOM     10  H   UNL     1       0.647  11.338  23.575  0.00  0.00    +0.000 HD
ENDROOT
BRANCH   5  11
ATOM     11  C   UNL     1       1.371   8.773  18.900  0.00  0.00    +0.000 A 
ATOM     12  N   UNL     1       1.434   7.463  19.017  0.00  0.00    +0.000 NA
ATOM     13  C   UNL     1       2.502   6.960  18.265  0.00  0.00    +0.000 A 
ATOM     14  C   UNL     1       2.928   5.610  18.162  0.00  0.00    +0.000 A 
ATOM     15  C   UNL     1       4.004   5.286  17.313  0.00  0.00    +0.000 A 
ATOM     16  C   UNL     1       4.646   6.266  16.564  0.00  0.00    +0.000 A 
ATOM     17  C   UNL     1       4.248   7.597  16.654  0.00  0.00    +0.000 A 
ATOM     18  C   UNL     1       3.186   7.916  17.514  0.00  0.00    +0.000 A 
ATOM     19  S   UNL     1       2.518   9.459  17.823  0.00  0.00    +0.000 S 
BRANCH  14  20
ATOM     20  C   UNL     1       2.203   4.595  18.897  0.00  0.00    +0.000 A 
ATOM     21  C   UNL     1       1.269   3.620  18.476  0.00  0.00    +0.000 A 
ATOM     22  N   UNL     1       0.908   2.793  19.463  0.00  0.00    +0.000 NA
ATOM     23  N   UNL     1       1.599   3.249  20.522  0.00  0.00    +0.000 N 
ATOM     24  C   UNL     1       1.529   2.567  21.790  0.00  0.00    +0.000 C 
ATOM     25  C   UNL     1       2.374   4.336  20.240  0.00  0.00    +0.000 A 
ENDBRANCH  14  20
ENDBRANCH   5  11
BRANCH   1  28
ATOM     26  C   UNL     1      -2.112   9.890  17.109  0.00  0.00    +0.000 C 
ATOM     27  O   UNL     1      -2.959   9.335  17.796  0.00  0.00    +0.000 OA
ATOM     28  N   UNL     1      -0.904  10.396  17.575  0.00  0.00    +0.000 N 
ATOM     29  H   UNL     1      -0.591  11.247  17.113  0.00  0.00    +0.000 HD
BRANCH  26  30
ATOM     30  C   UNL     1      -2.315  10.072  15.606  0.00  0.00    +0.000 C 
BRANCH  30  31
ATOM     31  C   UNL     1      -3.623  10.835  15.375  0.00  0.00    +0.000 C 
BRANCH  31  32
ATOM     32  N   UNL     1      -3.875  11.875  16.382  0.00  0.00    +0.000 NA
ATOM     33  H   UNL     1      -3.180  11.802  17.125  0.00  0.00    +0.000 HD
BRANCH  32  35
ATOM     34  C   UNL     1      -5.102  11.635  18.489  0.00  0.00    +0.000 C 
ATOM     35  C   UNL     1      -5.226  11.770  16.969  0.00  0.00    +0.000 C 
ATOM     36  C   UNL     1      -6.123  12.971  16.647  0.00  0.00    +0.000 C 
ENDBRANCH  32  35
ENDBRANCH  31  32
ENDBRANCH  30  31
ENDBRANCH  26  30
ENDBRANCH   1  28
TORSDOF 7
ENDMDL
MODEL 3
REMARK VINA RESULT:      -6.6      4.686      9.332
REMARK  Name = 
REMARK  10 active torsions:
REMARK  status: ('A' for Active; 'I' for Inactive)
REMARK    1  A    between atoms: C_1  and  C_2
REMARK    2  A    between atoms: C_2  and  C_3
REMARK    3  A    between atoms: C_2  and  N_4
REMARK    4  A    between atoms: N_4  and  C_5
REMARK    5  A    between atoms: C_5  and  C_6
REMARK    6  A    between atoms: C_6  and  C_7
REMARK    7  A    between atoms: N_9  and  C_10
REMARK    8  A    between atoms: C_14  and  C_15
REMARK    9  A    between atoms: C_18  and  C_19
REMARK   10  A    between atoms: N_22  and  C_23
REMARK                            x       y       z     vdW  Elec       q    Type
REMARK                         _______ _______ _______ _____ _____    ______ ____
ROOT
ATOM      1  C   UNL     1       0.747  12.587  20.489  0.00  0.00    +0.000 A 
ATOM      2  S   UNL     1       2.281  13.315  20.684  0.00  0.00    +0.000 S 
ATOM      3  C   UNL     1       1.628  14.876  20.547  0.00  0.00    +0.000 A 
ATOM      4  C   UNL     1       0.259  14.863  20.351  0.00  0.00    +0.000 A 
ATOM      5  C   UNL     1      -0.261  13.522  20.324  0.00  0.00    +0.000 A 
ATOM      6  C   UNL     1      -0.474  16.166  20.182  0.00  0.00    +0.000 C 
ATOM      7  C   UNL     1       0.494  17.327  19.891  0.00  0.00    +0.000 C 
ATOM      8  N   UNL     1       1.661  17.325  20.792  0.00  0.00    +0.000 NA
ATOM      9  C   UNL     1       2.479  16.112  20.576  0.00  0.00    +0.000 C 
ATOM     10  H   UNL     1       1.326  17.300  21.755  0.00  0.00    +0.000 HD
ENDROOT
BRANCH   5  11
ATOM     11  C   UNL     1      -1.715  13.136  20.216  0.00  0.00    +0.000 A 
ATOM     12  N   UNL     1      -2.168  12.374  19.244  0.00  0.00    +0.000 NA
ATOM     13  C   UNL     1      -3.548  12.186  19.376  0.00  0.00    +0.000 A 
ATOM     14  C   UNL     1      -4.411  11.464  18.510  0.00  0.00    +0.000 A 
ATOM     15  C   UNL     1      -5.776  11.346  18.834  0.00  0.00    +0.000 A 
ATOM     16  C   UNL     1      -6.289  11.912  19.996  0.00  0.00    +0.000 A 
ATOM     17  C   UNL     1      -5.461  12.629  20.857  0.00  0.00    +0.000 A 
ATOM     18  C   UNL     1      -4.105  12.757  20.521  0.00  0.00    +0.000 A 
ATOM     19  S   UNL     1      -2.888  13.592  21.383  0.00  0.00    +0.000 S 
BRANCH  14  20
ATOM     20  C   UNL     1      -3.845  10.826  17.341  0.00  0.00    +0.000 A 
ATOM     21  C   UNL     1      -2.930   9.755  17.209  0.00  0.00    +0.000 A 
ATOM     22  N   UNL     1      -2.742   9.392  15.936  0.00  0.00    +0.000 NA
ATOM     23  N   UNL     1      -3.525  10.242  15.250  0.00  0.00    +0.000 N 
ATOM     24  C   UNL     1      -3.652  10.127  13.818  0.00  0.00    +0.000 C 
ATOM     25  C   UNL     1      -4.192  11.131  16.043  0.00  0.00    +0.000 A 
ENDBRANCH  14  20
ENDBRANCH   5  11
BRANCH   1  28
ATOM     26  C   UNL     1       0.310  10.532  21.637  0.00  0.00    +0.000 C 
ATOM     27  O   UNL     1       0.075  11.063  22.714  0.00  0.00    +0.000 OA
ATOM     28  N   UNL     1       0.682  11.198  20.476  0.00  0.00    +0.000 N 
ATOM     29  H   UNL     1       0.319  10.793  19.615  0.00  0.00    +0.000 HD
BRANCH  26  30
ATOM     30  C   UNL     1       0.224   9.015  21.474  0.00  0.00    +0.000 C 
BRANCH  30  31
ATOM     31  C   UNL     1       1.292   8.567  20.471  0.00  0.00    +0.000 C 
BRANCH  31  32
ATOM     32  N   UNL     1       2.002   7.348  20.883  0.00  0.00    +0.000 NA
ATOM     33  H   UNL     1       2.937   7.594  21.208  0.00  0.00    +0.000 HD
BRANCH  32  35
ATOM     34  C   UNL     1       2.608   7.085  18.524  0.00  0.00    +0.000 C 
ATOM     35  C   UNL     1       2.113   6.368  19.783  0.00  0.00    +0.000 C 
ATOM     36  C   UNL     1       3.060   5.205  20.100  0.00  0.00    +0.000 C 
ENDBRANCH  32  35
ENDBRANCH  31  32
ENDBRANCH  30  31
ENDBRANCH  26  30
ENDBRANCH   1  28
TORSDOF 7
ENDMDL
MODEL 4
REMARK VINA RESULT:      -6.4      4.643      9.311
REMARK  Name = 
REMARK  10 active torsions:
REMARK  status: ('A' for Active; 'I' for Inactive)
REMARK    1  A    between atoms: C_1  and  C_2
REMARK    2  A    between atoms: C_2  and  C_3
REMARK    3  A    between atoms: C_2  and  N_4
REMARK    4  A    between atoms: N_4  and  C_5
REMARK    5  A    between atoms: C_5  and  C_6
REMARK    6  A    between atoms: C_6  and  C_7
REMARK    7  A    between atoms: N_9  and  C_10
REMARK    8  A    between atoms: C_14  and  C_15
REMARK    9  A    between atoms: C_18  and  C_19
REMARK   10  A    between atoms: N_22  and  C_23
REMARK                            x       y       z     vdW  Elec       q    Type
REMARK                         _______ _______ _______ _____ _____    ______ ____
ROOT
ATOM      1  C   UNL     1       1.196  13.067  19.034  0.00  0.00    +0.000 A 
ATOM      2  S   UNL     1       2.748  13.770  19.174  0.00  0.00    +0.000 S 
ATOM      3  C   UNL     1       2.138  15.098  20.038  0.00  0.00    +0.000 A 
ATOM      4  C   UNL     1       0.770  15.027  20.224  0.00  0.00    +0.000 A 
ATOM      5  C   UNL     1       0.217  13.833  19.643  0.00  0.00    +0.000 A 
ATOM      6  C   UNL     1       0.065  16.141  20.949  0.00  0.00    +0.000 C 
ATOM      7  C   UNL     1       0.954  17.393  21.063  0.00  0.00    +0.000 C 
ATOM      8  N   UNL     1       2.325  17.072  21.497  0.00  0.00    +0.000 NA
ATOM      9  C   UNL     1       3.007  16.238  20.482  0.00  0.00    +0.000 C 
ATOM     10  H   UNL     1       2.273  16.525  22.356  0.00  0.00    +0.000 HD
ENDROOT
BRANCH   5  11
ATOM     11  C   UNL     1      -1.222  13.389  19.730  0.00  0.00    +0.000 A 
ATOM     12  N   UNL     1      -1.760  12.575  18.845  0.00  0.00    +0.000 NA
ATOM     13  C   UNL     1      -3.104  12.340  19.156  0.00  0.00    +0.000 A 
ATOM     14  C   UNL     1      -4.036  11.556  18.428  0.00  0.00    +0.000 A 
ATOM     15  C   UNL     1      -5.345  11.397  18.924  0.00  0.00    +0.000 A 
ATOM     16  C   UNL     1      -5.733  11.984  20.124  0.00  0.00    +0.000 A 
ATOM     17  C   UNL     1      -4.835  12.762  20.852  0.00  0.00    +0.000 A 
ATOM     18  C   UNL     1      -3.538  12.930  20.343  0.00  0.00    +0.000 A 
ATOM     19  S   UNL     1      -2.259  13.841  21.020  0.00  0.00    +0.000 S 
BRANCH  14  20
ATOM     20  C   UNL     1      -3.594  10.898  17.217  0.00  0.00    +0.000 A 
ATOM     21  C   UNL     1      -2.657   9.860  17.003  0.00  0.00    +0.000 A 
ATOM     22  N   UNL     1      -2.614   9.459  15.729  0.00  0.00    +0.000 NA
ATOM     23  N   UNL     1      -3.513  10.252  15.121  0.00  0.00    +0.000 N 
ATOM     24  C   UNL     1      -3.812  10.081  13.721  0.00  0.00    +0.000 C 
ATOM     25  C   UNL     1      -4.113  11.142  15.964  0.00  0.00    +0.000 A 
ENDBRANCH  14  20
ENDBRANCH   5  11
BRANCH   1  28
ATOM     26  C   UNL     1       1.075  10.676  19.017  0.00  0.00    +0.000 C 
ATOM     27  O   UNL     1       1.214  10.557  20.227  0.00  0.00    +0.000 OA
ATOM     28  N   UNL     1       1.081  11.879  18.321  0.00  0.00    +0.000 N 
ATOM     29  H   UNL     1       0.448  11.915  17.524  0.00  0.00    +0.000 HD
BRANCH  26  30
ATOM     30  C   UNL     1       0.888   9.450  18.124  0.00  0.00    +0.000 C 
BRANCH  30  31
ATOM     31  C   UNL     1       2.080   8.509  18.325  0.00  0.00    +0.000 C 
BRANCH  31  32
ATOM     32  N   UNL     1       2.038   7.781  19.601  0.00  0.00    +0.000 NA
ATOM     33  H   UNL     1       2.566   8.299  20.303  0.00  0.00    +0.000 HD
BRANCH  32  35
ATOM     34  C   UNL     1       1.909   5.510  20.512  0.00  0.00    +0.000 C 
ATOM     35  C   UNL     1       2.592   6.417  19.485  0.00  0.00    +0.000 C 
ATOM     36  C   UNL     1       2.418   5.809  18.089  0.00  0.00    +0.000 C 
ENDBRANCH  32  35
ENDBRANCH  31  32
ENDBRANCH  30  31
ENDBRANCH  26  30
ENDBRANCH   1  28
TORSDOF 7
ENDMDL
MODEL 5
REMARK VINA RESULT:      -6.4      5.005      9.940
REMARK  Name = 
REMARK  10 active torsions:
REMARK  status: ('A' for Active; 'I' for Inactive)
REMARK    1  A    between atoms: C_1  and  C_2
REMARK    2  A    between atoms: C_2  and  C_3
REMARK    3  A    between atoms: C_2  and  N_4
REMARK    4  A    between atoms: N_4  and  C_5
REMARK    5  A    between atoms: C_5  and  C_6
REMARK    6  A    between atoms: C_6  and  C_7
REMARK    7  A    between atoms: N_9  and  C_10
REMARK    8  A    between atoms: C_14  and  C_15
REMARK    9  A    between atoms: C_18  and  C_19
REMARK   10  A    between atoms: N_22  and  C_23
REMARK                            x       y       z     vdW  Elec       q    Type
REMARK                         _______ _______ _______ _____ _____    ______ ____
ROOT
ATOM      1  C   UNL     1       0.938  12.474  20.181  0.00  0.00    +0.000 A 
ATOM      2  S   UNL     1       2.352  13.380  20.498  0.00  0.00    +0.000 S 
ATOM      3  C   UNL     1       1.643  14.809  19.913  0.00  0.00    +0.000 A 
ATOM      4  C   UNL     1       0.347  14.616  19.473  0.00  0.00    +0.000 A 
ATOM      5  C   UNL     1      -0.072  13.249  19.636  0.00  0.00    +0.000 A 
ATOM      6  C   UNL     1      -0.417  15.777  18.897  0.00  0.00    +0.000 C 
ATOM      7  C   UNL     1       0.516  16.953  18.552  0.00  0.00    +0.000 C 
ATOM      8  N   UNL     1       1.473  17.248  19.633  0.00  0.00    +0.000 NA
ATOM      9  C   UNL     1       2.392  16.107  19.837  0.00  0.00    +0.000 C 
ATOM     10  H   UNL     1       0.951  17.378  20.500  0.00  0.00    +0.000 HD
ENDROOT
BRANCH   5  11
ATOM     11  C   UNL     1      -1.447  12.702  19.344  0.00  0.00    +0.000 A 
ATOM     12  N   UNL     1      -2.492  12.999  20.087  0.00  0.00    +0.000 NA
ATOM     13  C   UNL     1      -3.633  12.349  19.603  0.00  0.00    +0.000 A 
ATOM     14  C   UNL     1      -4.943  12.378  20.148  0.00  0.00    +0.000 A 
ATOM     15  C   UNL     1      -5.982  11.692  19.490  0.00  0.00    +0.000 A 
ATOM     16  C   UNL     1      -5.747  10.999  18.307  0.00  0.00    +0.000 A 
ATOM     17  C   UNL     1      -4.468  10.954  17.757  0.00  0.00    +0.000 A 
ATOM     18  C   UNL     1      -3.434  11.625  18.427  0.00  0.00    +0.000 A 
ATOM     19  S   UNL     1      -1.785  11.712  17.983  0.00  0.00    +0.000 S 
BRANCH  14  20
ATOM     20  C   UNL     1      -5.180  13.160  21.342  0.00  0.00    +0.000 A 
ATOM     21  C   UNL     1      -4.895  12.901  22.704  0.00  0.00    +0.000 A 
ATOM     22  N   UNL     1      -5.181  13.940  23.496  0.00  0.00    +0.000 NA
ATOM     23  N   UNL     1      -5.665  14.860  22.644  0.00  0.00    +0.000 N 
ATOM     24  C   UNL     1      -6.031  16.172  23.114  0.00  0.00    +0.000 C 
ATOM     25  C   UNL     1      -5.702  14.436  21.347  0.00  0.00    +0.000 A 
ENDBRANCH  14  20
ENDBRANCH   5  11
BRANCH   1  28
ATOM     26  C   UNL     1       0.459  10.656  21.664  0.00  0.00    +0.000 C 
ATOM     27  O   UNL     1       0.027  11.366  22.561  0.00  0.00    +0.000 OA
ATOM     28  N   UNL     1       0.964  11.110  20.451  0.00  0.00    +0.000 N 
ATOM     29  H   UNL     1       0.764  10.510  19.653  0.00  0.00    +0.000 HD
BRANCH  26  30
ATOM     30  C   UNL     1       0.496   9.136  21.813  0.00  0.00    +0.000 C 
BRANCH  30  31
ATOM     31  C   UNL     1       0.979   8.524  20.495  0.00  0.00    +0.000 C 
BRANCH  31  32
ATOM     32  N   UNL     1       2.066   7.551  20.669  0.00  0.00    +0.000 NA
ATOM     33  H   UNL     1       2.925   8.044  20.915  0.00  0.00    +0.000 HD
BRANCH  32  35
ATOM     34  C   UNL     1       2.628   7.693  18.288  0.00  0.00    +0.000 C 
ATOM     35  C   UNL     1       2.299   6.750  19.450  0.00  0.00    +0.000 C 
ATOM     36  C   UNL     1       3.435   5.732  19.600  0.00  0.00    +0.000 C 
ENDBRANCH  32  35
ENDBRANCH  31  32
ENDBRANCH  30  31
ENDBRANCH  26  30
ENDBRANCH   1  28
TORSDOF 7
ENDMDL
MODEL 6
REMARK VINA RESULT:      -6.3      4.717      9.925
REMARK  Name = 
REMARK  10 active torsions:
REMARK  status: ('A' for Active; 'I' for Inactive)
REMARK    1  A    between atoms: C_1  and  C_2
REMARK    2  A    between atoms: C_2  and  C_3
REMARK    3  A    between atoms: C_2  and  N_4
REMARK    4  A    between atoms: N_4  and  C_5
REMARK    5  A    between atoms: C_5  and  C_6
REMARK    6  A    between atoms: C_6  and  C_7
REMARK    7  A    between atoms: N_9  and  C_10
REMARK    8  A    between atoms: C_14  and  C_15
REMARK    9  A    between atoms: C_18  and  C_19
REMARK   10  A    between atoms: N_22  and  C_23
REMARK                            x       y       z     vdW  Elec       q    Type
REMARK                         _______ _______ _______ _____ _____    ______ ____
ROOT
ATOM      1  C   UNL     1       1.112  12.777  19.176  0.00  0.00    +0.000 A 
ATOM      2  S   UNL     1       2.576  13.261  18.440  0.00  0.00    +0.000 S 
ATOM      3  C   UNL     1       2.236  14.905  18.698  0.00  0.00    +0.000 A 
ATOM      4  C   UNL     1       1.024  15.103  19.332  0.00  0.00    +0.000 A 
ATOM      5  C   UNL     1       0.366  13.856  19.620  0.00  0.00    +0.000 A 
ATOM      6  C   UNL     1       0.558  16.505  19.611  0.00  0.00    +0.000 C 
ATOM      7  C   UNL     1       1.364  17.541  18.805  0.00  0.00    +0.000 C 
ATOM      8  N   UNL     1       2.815  17.291  18.862  0.00  0.00    +0.000 NA
ATOM      9  C   UNL     1       3.144  16.000  18.220  0.00  0.00    +0.000 C 
ATOM     10  H   UNL     1       3.094  17.225  19.841  0.00  0.00    +0.000 HD
ENDROOT
BRANCH   5  11
ATOM     11  C   UNL     1      -0.928  13.691  20.378  0.00  0.00    +0.000 A 
ATOM     12  N   UNL     1      -2.019  13.224  19.809  0.00  0.00    +0.000 NA
ATOM     13  C   UNL     1      -3.071  13.188  20.732  0.00  0.00    +0.000 A 
ATOM     14  C   UNL     1      -4.413  12.790  20.500  0.00  0.00    +0.000 A 
ATOM     15  C   UNL     1      -5.327  12.777  21.571  0.00  0.00    +0.000 A 
ATOM     16  C   UNL     1      -4.930  13.133  22.856  0.00  0.00    +0.000 A 
ATOM     17  C   UNL     1      -3.619  13.532  23.105  0.00  0.00    +0.000 A 
ATOM     18  C   UNL     1      -2.718  13.559  22.030  0.00  0.00    +0.000 A 
ATOM     19  S   UNL     1      -1.073  14.023  22.056  0.00  0.00    +0.000 S 
BRANCH  14  20
ATOM     20  C   UNL     1      -4.789  12.358  19.170  0.00  0.00    +0.000 A 
ATOM     21  C   UNL     1      -5.899  12.686  18.358  0.00  0.00    +0.000 A 
ATOM     22  N   UNL     1      -5.820  12.149  17.136  0.00  0.00    +0.000 NA
ATOM     23  N   UNL     1      -4.665  11.461  17.171  0.00  0.00    +0.000 N 
ATOM     24  C   UNL     1      -4.183  10.781  15.995  0.00  0.00    +0.000 C 
ATOM     25  C   UNL     1      -4.020  11.540  18.371  0.00  0.00    +0.000 A 
ENDBRANCH  14  20
ENDBRANCH   5  11
BRANCH   1  28
ATOM     26  C   UNL     1       0.929  10.739  20.419  0.00  0.00    +0.000 C 
ATOM     27  O   UNL     1       1.317  11.225  21.473  0.00  0.00    +0.000 OA
ATOM     28  N   UNL     1       0.818  11.419  19.212  0.00  0.00    +0.000 N 
ATOM     29  H   UNL     1       0.032  11.133  18.631  0.00  0.00    +0.000 HD
BRANCH  26  30
ATOM     30  C   UNL     1       0.525   9.267  20.335  0.00  0.00    +0.000 C 
BRANCH  30  31
ATOM     31  C   UNL     1       1.704   8.467  19.774  0.00  0.00    +0.000 C 
BRANCH  31  32
ATOM     32  N   UNL     1       2.097   7.335  20.626  0.00  0.00    +0.000 NA
ATOM     33  H   UNL     1       2.853   7.625  21.245  0.00  0.00    +0.000 HD
BRANCH  32  35
ATOM     34  C   UNL     1       1.660   4.964  20.192  0.00  0.00    +0.000 C 
ATOM     35  C   UNL     1       2.537   6.167  19.836  0.00  0.00    +0.000 C 
ATOM     36  C   UNL     1       2.472   6.400  18.322  0.00  0.00    +0.000 C 
ENDBRANCH  32  35
ENDBRANCH  31  32
ENDBRANCH  30  31
ENDBRANCH  26  30
ENDBRANCH   1  28
TORSDOF 7
ENDMDL
MODEL 7
REMARK VINA RESULT:      -6.2      7.053     10.421
REMARK  Name = 
REMARK  10 active torsions:
REMARK  status: ('A' for Active; 'I' for Inactive)
REMARK    1  A    between atoms: C_1  and  C_2
REMARK    2  A    between atoms: C_2  and  C_3
REMARK    3  A    between atoms: C_2  and  N_4
REMARK    4  A    between atoms: N_4  and  C_5
REMARK    5  A    between atoms: C_5  and  C_6
REMARK    6  A    between atoms: C_6  and  C_7
REMARK    7  A    between atoms: N_9  and  C_10
REMARK    8  A    between atoms: C_14  and  C_15
REMARK    9  A    between atoms: C_18  and  C_19
REMARK   10  A    between atoms: N_22  and  C_23
REMARK                            x       y       z     vdW  Elec       q    Type
REMARK                         _______ _______ _______ _____ _____    ______ ____
ROOT
ATOM      1  C   UNL     1      -2.775  11.871  19.164  0.00  0.00    +0.000 A 
ATOM      2  S   UNL     1      -3.529  11.327  17.730  0.00  0.00    +0.000 S 
ATOM      3  C   UNL     1      -5.031  11.962  18.204  0.00  0.00    +0.000 A 
ATOM      4  C   UNL     1      -4.980  12.581  19.439  0.00  0.00    +0.000 A 
ATOM      5  C   UNL     1      -3.655  12.536  20.000  0.00  0.00    +0.000 A 
ATOM      6  C   UNL     1      -6.234  13.175  20.020  0.00  0.00    +0.000 C 
ATOM      7  C   UNL     1      -7.491  12.673  19.285  0.00  0.00    +0.000 C 
ATOM      8  N   UNL     1      -7.341  12.719  17.819  0.00  0.00    +0.000 NA
ATOM      9  C   UNL     1      -6.273  11.796  17.378  0.00  0.00    +0.000 C 
ATOM     10  H   UNL     1      -7.059  13.662  17.553  0.00  0.00    +0.000 HD
ENDROOT
BRANCH   5  11
ATOM     11  C   UNL     1      -3.216  13.185  21.289  0.00  0.00    +0.000 A 
ATOM     12  N   UNL     1      -2.117  13.905  21.373  0.00  0.00    +0.000 NA
ATOM     13  C   UNL     1      -1.943  14.374  22.679  0.00  0.00    +0.000 A 
ATOM     14  C   UNL     1      -0.865  15.147  23.185  0.00  0.00    +0.000 A 
ATOM     15  C   UNL     1      -0.885  15.568  24.529  0.00  0.00    +0.000 A 
ATOM     16  C   UNL     1      -1.952  15.251  25.363  0.00  0.00    +0.000 A 
ATOM     17  C   UNL     1      -3.017  14.490  24.889  0.00  0.00    +0.000 A 
ATOM     18  C   UNL     1      -2.983  14.059  23.554  0.00  0.00    +0.000 A 
ATOM     19  S   UNL     1      -4.140  13.106  22.733  0.00  0.00    +0.000 S 
BRANCH  14  20
ATOM     20  C   UNL     1       0.202  15.523  22.283  0.00  0.00    +0.000 A 
ATOM     21  C   UNL     1       1.345  14.818  21.837  0.00  0.00    +0.000 A 
ATOM     22  N   UNL     1       2.035  15.489  20.910  0.00  0.00    +0.000 NA
ATOM     23  N   UNL     1       1.344  16.634  20.773  0.00  0.00    +0.000 N 
ATOM     24  C   UNL     1       1.740  17.616  19.795  0.00  0.00    +0.000 C 
ATOM     25  C   UNL     1       0.250  16.711  21.584  0.00  0.00    +0.000 A 
ENDBRANCH  14  20
ENDBRANCH   5  11
BRANCH   1  28
ATOM     26  C   UNL     1      -0.470  12.436  18.847  0.00  0.00    +0.000 C 
ATOM     27  O   UNL     1      -0.700  13.448  18.199  0.00  0.00    +0.000 OA
ATOM     28  N   UNL     1      -1.431  11.566  19.349  0.00  0.00    +0.000 N 
ATOM     29  H   UNL     1      -1.204  11.152  20.251  0.00  0.00    +0.000 HD
BRANCH  26  30
ATOM     30  C   UNL     1       0.964  12.016  19.165  0.00  0.00    +0.000 C 
BRANCH  30  31
ATOM     31  C   UNL     1       0.929  10.926  20.241  0.00  0.00    +0.000 C 
BRANCH  31  32
ATOM     32  N   UNL     1       0.456  11.412  21.546  0.00  0.00    +0.000 NA
ATOM     33  H   UNL     1       1.200  11.943  21.999  0.00  0.00    +0.000 HD
BRANCH  32  35
ATOM     34  C   UNL     1      -1.227  10.726  23.189  0.00  0.00    +0.000 C 
ATOM     35  C   UNL     1       0.038  10.308  22.434  0.00  0.00    +0.000 C 
ATOM     36  C   UNL     1      -0.239   8.999  21.686  0.00  0.00    +0.000 C 
ENDBRANCH  32  35
ENDBRANCH  31  32
ENDBRANCH  30  31
ENDBRANCH  26  30
ENDBRANCH   1  28
TORSDOF 7
ENDMDL
MODEL 8
REMARK VINA RESULT:      -6.2      5.034     10.031
REMARK  Name = 
REMARK  10 active torsions:
REMARK  status: ('A' for Active; 'I' for Inactive)
REMARK    1  A    between atoms: C_1  and  C_2
REMARK    2  A    between atoms: C_2  and  C_3
REMARK    3  A    between atoms: C_2  and  N_4
REMARK    4  A    between atoms: N_4  and  C_5
REMARK    5  A    between atoms: C_5  and  C_6
REMARK    6  A    between atoms: C_6  and  C_7
REMARK    7  A    between atoms: N_9  and  C_10
REMARK    8  A    between atoms: C_14  and  C_15
REMARK    9  A    between atoms: C_18  and  C_19
REMARK   10  A    between atoms: N_22  and  C_23
REMARK                            x       y       z     vdW  Elec       q    Type
REMARK                         _______ _______ _______ _____ _____    ______ ____
ROOT
ATOM      1  C   UNL     1       0.683  12.210  20.113  0.00  0.00    +0.000 A 
ATOM      2  S   UNL     1       2.113  13.056  20.512  0.00  0.00    +0.000 S 
ATOM      3  C   UNL     1       1.455  14.536  20.003  0.00  0.00    +0.000 A 
ATOM      4  C   UNL     1       0.163  14.407  19.528  0.00  0.00    +0.000 A 
ATOM      5  C   UNL     1      -0.295  13.045  19.599  0.00  0.00    +0.000 A 
ATOM      6  C   UNL     1      -0.558  15.622  19.012  0.00  0.00    +0.000 C 
ATOM      7  C   UNL     1       0.412  16.791  18.757  0.00  0.00    +0.000 C 
ATOM      8  N   UNL     1       1.355  16.992  19.872  0.00  0.00    +0.000 NA
ATOM      9  C   UNL     1       2.239  15.816  20.022  0.00  0.00    +0.000 C 
ATOM     10  H   UNL     1       0.819  17.083  20.735  0.00  0.00    +0.000 HD
ENDROOT
BRANCH   5  11
ATOM     11  C   UNL     1      -1.677  12.555  19.248  0.00  0.00    +0.000 A 
ATOM     12  N   UNL     1      -2.735  12.866  19.967  0.00  0.00    +0.000 NA
ATOM     13  C   UNL     1      -3.881  12.271  19.429  0.00  0.00    +0.000 A 
ATOM     14  C   UNL     1      -5.206  12.330  19.933  0.00  0.00    +0.000 A 
ATOM     15  C   UNL     1      -6.247  11.700  19.224  0.00  0.00    +0.000 A 
ATOM     16  C   UNL     1      -5.998  11.034  18.028  0.00  0.00    +0.000 A 
ATOM     17  C   UNL     1      -4.704  10.959  17.517  0.00  0.00    +0.000 A 
ATOM     18  C   UNL     1      -3.670  11.575  18.238  0.00  0.00    +0.000 A 
ATOM     19  S   UNL     1      -2.006  11.617  17.849  0.00  0.00    +0.000 S 
BRANCH  14  20
ATOM     20  C   UNL     1      -5.455  13.086  21.143  0.00  0.00    +0.000 A 
ATOM     21  C   UNL     1      -4.952  14.329  21.591  0.00  0.00    +0.000 A 
ATOM     22  N   UNL     1      -5.521  14.735  22.730  0.00  0.00    +0.000 NA
ATOM     23  N   UNL     1      -6.378  13.741  23.023  0.00  0.00    +0.000 N 
ATOM     24  C   UNL     1      -7.247  13.837  24.169  0.00  0.00    +0.000 C 
ATOM     25  C   UNL     1      -6.363  12.723  22.114  0.00  0.00    +0.000 A 
ENDBRANCH  14  20
ENDBRANCH   5  11
BRANCH   1  28
ATOM     26  C   UNL     1       0.250  10.324  21.524  0.00  0.00    +0.000 C 
ATOM     27  O   UNL     1      -0.068  10.994  22.497  0.00  0.00    +0.000 OA
ATOM     28  N   UNL     1       0.668  10.832  20.299  0.00  0.00    +0.000 N 
ATOM     29  H   UNL     1       0.371  10.292  19.489  0.00  0.00    +0.000 HD
BRANCH  26  30
ATOM     30  C   UNL     1       0.227   8.797  21.580  0.00  0.00    +0.000 C 
BRANCH  30  31
ATOM     31  C   UNL     1       1.625   8.273  21.238  0.00  0.00    +0.000 C 
BRANCH  31  32
ATOM     32  N   UNL     1       1.617   6.905  20.697  0.00  0.00    +0.000 NA
ATOM     33  H   UNL     1       1.882   6.250  21.432  0.00  0.00    +0.000 HD
BRANCH  32  35
ATOM     34  C   UNL     1       2.340   5.366  18.934  0.00  0.00    +0.000 C 
ATOM     35  C   UNL     1       2.539   6.752  19.554  0.00  0.00    +0.000 C 
ATOM     36  C   UNL     1       2.341   7.815  18.468  0.00  0.00    +0.000 C 
ENDBRANCH  32  35
ENDBRANCH  31  32
ENDBRANCH  30  31
ENDBRANCH  26  30
ENDBRANCH   1  28
TORSDOF 7
ENDMDL
MODEL 9
REMARK VINA RESULT:      -6.2      4.975      9.967
REMARK  Name = 
REMARK  10 active torsions:
REMARK  status: ('A' for Active; 'I' for Inactive)
REMARK    1  A    between atoms: C_1  and  C_2
REMARK    2  A    between atoms: C_2  and  C_3
REMARK    3  A    between atoms: C_2  and  N_4
REMARK    4  A    between atoms: N_4  and  C_5
REMARK    5  A    between atoms: C_5  and  C_6
REMARK    6  A    between atoms: C_6  and  C_7
REMARK    7  A    between atoms: N_9  and  C_10
REMARK    8  A    between atoms: C_14  and  C_15
REMARK    9  A    between atoms: C_18  and  C_19
REMARK   10  A    between atoms: N_22  and  C_23
REMARK                            x       y       z     vdW  Elec       q    Type
REMARK                         _______ _______ _______ _____ _____    ______ ____
ROOT
ATOM      1  C   UNL     1       0.736  12.197  19.426  0.00  0.00    +0.000 A 
ATOM      2  S   UNL     1       2.282  12.920  19.344  0.00  0.00    +0.000 S 
ATOM      3  C   UNL     1       1.616  14.466  19.120  0.00  0.00    +0.000 A 
ATOM      4  C   UNL     1       0.234  14.451  19.101  0.00  0.00    +0.000 A 
ATOM      5  C   UNL     1      -0.285  13.121  19.288  0.00  0.00    +0.000 A 
ATOM      6  C   UNL     1      -0.516  15.737  18.884  0.00  0.00    +0.000 C 
ATOM      7  C   UNL     1       0.407  16.846  18.348  0.00  0.00    +0.000 C 
ATOM      8  N   UNL     1       1.679  16.926  19.088  0.00  0.00    +0.000 NA
ATOM      9  C   UNL     1       2.464  15.686  18.906  0.00  0.00    +0.000 C 
ATOM     10  H   UNL     1       1.469  17.011  20.083  0.00  0.00    +0.000 HD
ENDROOT
BRANCH   5  11
ATOM     11  C   UNL     1      -1.741  12.746  19.408  0.00  0.00    +0.000 A 
ATOM     12  N   UNL     1      -2.471  13.093  20.448  0.00  0.00    +0.000 NA
ATOM     13  C   UNL     1      -3.775  12.606  20.309  0.00  0.00    +0.000 A 
ATOM     14  C   UNL     1      -4.848  12.730  21.229  0.00  0.00    +0.000 A 
ATOM     15  C   UNL     1      -6.113  12.210  20.893  0.00  0.00    +0.000 A 
ATOM     16  C   UNL     1      -6.331  11.591  19.667  0.00  0.00    +0.000 A 
ATOM     17  C   UNL     1      -5.291  11.454  18.751  0.00  0.00    +0.000 A 
ATOM     18  C   UNL     1      -4.029  11.959  19.099  0.00  0.00    +0.000 A 
ATOM     19  S   UNL     1      -2.591  11.906  18.176  0.00  0.00    +0.000 S 
BRANCH  14  20
ATOM     20  C   UNL     1      -4.619  13.438  22.471  0.00  0.00    +0.000 A 
ATOM     21  C   UNL     1      -3.966  13.049  23.664  0.00  0.00    +0.000 A 
ATOM     22  N   UNL     1      -3.874  14.046  24.550  0.00  0.00    +0.000 NA
ATOM     23  N   UNL     1      -4.485  15.071  23.930  0.00  0.00    +0.000 N 
ATOM     24  C   UNL     1      -4.536  16.373  24.548  0.00  0.00    +0.000 C 
ATOM     25  C   UNL     1      -4.964  14.754  22.693  0.00  0.00    +0.000 A 
ENDBRANCH  14  20
ENDBRANCH   5  11
BRANCH   1  28
ATOM     26  C   UNL     1       0.623  10.278  20.855  0.00  0.00    +0.000 C 
ATOM     27  O   UNL     1       0.684  10.920  21.895  0.00  0.00    +0.000 OA
ATOM     28  N   UNL     1       0.670  10.815  19.574  0.00  0.00    +0.000 N 
ATOM     29  H   UNL     1       0.090  10.337  18.888  0.00  0.00    +0.000 HD
BRANCH  26  30
ATOM     30  C   UNL     1       0.497   8.756  20.878  0.00  0.00    +0.000 C 
BRANCH  30  31
ATOM     31  C   UNL     1       1.824   8.146  20.415  0.00  0.00    +0.000 C 
BRANCH  31  32
ATOM     32  N   UNL     1       1.993   8.162  18.955  0.00  0.00    +0.000 NA
ATOM     33  H   UNL     1       1.095   8.355  18.513  0.00  0.00    +0.000 HD
BRANCH  32  35
ATOM     34  C   UNL     1       3.806   7.153  17.651  0.00  0.00    +0.000 C 
ATOM     35  C   UNL     1       2.522   6.882  18.441  0.00  0.00    +0.000 C 
ATOM     36  C   UNL     1       2.823   5.863  19.545  0.00  0.00    +0.000 C 
ENDBRANCH  32  35
ENDBRANCH  31  32
ENDBRANCH  30  31
ENDBRANCH  26  30
ENDBRANCH   1  28
TORSDOF 7
ENDMDL
