MODEL 1
REMARK VINA RESULT:      -8.0      0.000      0.000
REMARK  Name = 
REMARK  8 active torsions:
REMARK  status: ('A' for Active; 'I' for Inactive)
REMARK    1  A    between atoms: C_1  and  C_2
REMARK    2  A    between atoms: C_2  and  O_3
REMARK    3  A    between atoms: O_3  and  C_4
REMARK    4  A    between atoms: C_4  and  C_6
REMARK    5  A    between atoms: C_9  and  N_10
REMARK    6  A    between atoms: N_10  and  C_22
REMARK    7  A    between atoms: C_11  and  C_13
REMARK    8  A    between atoms: C_17  and  N_18
REMARK                            x       y       z     vdW  Elec       q    Type
REMARK                         _______ _______ _______ _____ _____    ______ ____
ROOT
ATOM      1  N   UNL     1       2.793   5.179  19.320  0.00  0.00    +0.000 N 
ATOM      2  C   UNL     1       2.849   6.454  18.706  0.00  0.00    +0.000 C 
ATOM      3  O   UNL     1       3.363   6.669  17.606  0.00  0.00    +0.000 OA
ENDROOT
BRANCH   2   4
ATOM      4  C   UNL     1       2.186   7.653  19.320  0.00  0.00    +0.000 A 
ATOM      5  C   UNL     1       1.559   7.662  20.563  0.00  0.00    +0.000 A 
ATOM      6  C   UNL     1       0.700   8.710  20.910  0.00  0.00    +0.000 A 
ATOM      7 CL   UNL     1      -0.250   8.534  22.347  0.00  0.00    +0.000 Cl
ATOM      8  C   UNL     1       0.577   9.855  20.107  0.00  0.00    +0.000 A 
ATOM      9  C   UNL     1       1.378   9.918  18.956  0.00  0.00    +0.000 A 
ATOM     10 CL   UNL     1       1.381  11.338  17.965  0.00  0.00    +0.000 Cl
ATOM     11  C   UNL     1       2.173   8.837  18.566  0.00  0.00    +0.000 A 
BRANCH   8  12
ATOM     12  N   UNL     1      -0.479  10.769  20.304  0.00  0.00    +0.000 N 
ATOM     13  H   UNL     1      -1.179  10.466  20.977  0.00  0.00    +0.000 HD
ATOM     14  H   UNL     1      -0.180  11.735  20.412  0.00  0.00    +0.000 HD
ENDBRANCH   8  12
ENDBRANCH   2   4
BRANCH   1  18
ATOM     15  C   UNL     1       5.977   4.593  17.269  0.00  0.00    +0.000 C 
ATOM     16  C   UNL     1       5.854   4.600  18.802  0.00  0.00    +0.000 C 
ATOM     17  C   UNL     1       4.791   3.640  19.322  0.00  0.00    +0.000 C 
ATOM     18  C   UNL     1       3.404   3.944  18.726  0.00  0.00    +0.000 C 
ATOM     19  C   UNL     1       3.518   3.815  17.200  0.00  0.00    +0.000 C 
ATOM     20  C   UNL     1       4.609   4.677  16.577  0.00  0.00    +0.000 C 
BRANCH  15  21
ATOM     21  C   UNL     1       6.814   5.784  16.814  0.00  0.00    +0.000 C 
ATOM     22  O   UNL     1       7.513   5.806  15.810  0.00  0.00    +0.000 OA
BRANCH  21  23
ATOM     23  O   UNL     1       6.732   6.795  17.726  0.00  0.00    +0.000 OA
BRANCH  23  25
ATOM     24  C   UNL     1       8.041   8.802  17.839  0.00  0.00    +0.000 C 
ATOM     25  C   UNL     1       7.985   7.321  18.183  0.00  0.00    +0.000 C 
ENDBRANCH  23  25
ENDBRANCH  21  23
ENDBRANCH  15  21
ENDBRANCH   1  18
BRANCH   1  26
ATOM     26  C   UNL     1       1.960   4.941  20.494  0.00  0.00    +0.000 C 
ATOM     27  C   UNL     1       0.877   3.887  20.423  0.00  0.00    +0.000 C 
ATOM     28  C   UNL     1       1.992   3.741  21.404  0.00  0.00    +0.000 C 
ENDBRANCH   1  26
TORSDOF 7
ENDMDL
MODEL 2
REMARK VINA RESULT:      -7.8      1.033      1.799
REMARK  Name = 
REMARK  8 active torsions:
REMARK  status: ('A' for Active; 'I' for Inactive)
REMARK    1  A    between atoms: C_1  and  C_2
REMARK    2  A    between atoms: C_2  and  O_3
REMARK    3  A    between atoms: O_3  and  C_4
REMARK    4  A    between atoms: C_4  and  C_6
REMARK    5  A    between atoms: C_9  and  N_10
REMARK    6  A    between atoms: N_10  and  C_22
REMARK    7  A    between atoms: C_11  and  C_13
REMARK    8  A    between atoms: C_17  and  N_18
REMARK                            x       y       z     vdW  Elec       q    Type
REMARK                         _______ _______ _______ _____ _____    ______ ____
ROOT
ATOM      1  N   UNL     1       2.899   5.107  19.389  0.00  0.00    +0.000 N 
ATOM      2  C   UNL     1       2.910   6.350  18.709  0.00  0.00    +0.000 C 
ATOM      3  O   UNL     1       3.374   6.516  17.580  0.00  0.00    +0.000 OA
ENDROOT
BRANCH   2   4
ATOM      4  C   UNL     1       2.252   7.569  19.289  0.00  0.00    +0.000 A 
ATOM      5  C   UNL     1       1.591   7.605  20.514  0.00  0.00    +0.000 A 
ATOM      6  C   UNL     1       0.743   8.674  20.823  0.00  0.00    +0.000 A 
ATOM      7 CL   UNL     1      -0.251   8.535  22.235  0.00  0.00    +0.000 Cl
ATOM      8  C   UNL     1       0.664   9.811  20.003  0.00  0.00    +0.000 A 
ATOM      9  C   UNL     1       1.499   9.844  18.875  0.00  0.00    +0.000 A 
ATOM     10 CL   UNL     1       1.557  11.250  17.867  0.00  0.00    +0.000 Cl
ATOM     11  C   UNL     1       2.283   8.743  18.521  0.00  0.00    +0.000 A 
BRANCH   8  12
ATOM     12  N   UNL     1      -0.379  10.747  20.158  0.00  0.00    +0.000 N 
ATOM     13  H   UNL     1      -0.417  11.461  19.436  0.00  0.00    +0.000 HD
ATOM     14  H   UNL     1      -1.279  10.334  20.390  0.00  0.00    +0.000 HD
ENDBRANCH   8  12
ENDBRANCH   2   4
BRANCH   1  18
ATOM     15  C   UNL     1       5.787   4.487  16.947  0.00  0.00    +0.000 C 
ATOM     16  C   UNL     1       5.888   4.652  18.472  0.00  0.00    +0.000 C 
ATOM     17  C   UNL     1       4.983   3.694  19.239  0.00  0.00    +0.000 C 
ATOM     18  C   UNL     1       3.506   3.853  18.833  0.00  0.00    +0.000 C 
ATOM     19  C   UNL     1       3.407   3.567  17.327  0.00  0.00    +0.000 C 
ATOM     20  C   UNL     1       4.331   4.418  16.465  0.00  0.00    +0.000 C 
BRANCH  15  21
ATOM     21  C   UNL     1       6.461   5.668  16.255  0.00  0.00    +0.000 C 
ATOM     22  O   UNL     1       7.101   6.542  16.825  0.00  0.00    +0.000 OA
BRANCH  21  23
ATOM     23  O   UNL     1       6.184   5.654  14.920  0.00  0.00    +0.000 OA
BRANCH  23  25
ATOM     24  C   UNL     1       6.229   3.832  13.359  0.00  0.00    +0.000 C 
ATOM     25  C   UNL     1       7.062   4.857  14.114  0.00  0.00    +0.000 C 
ENDBRANCH  23  25
ENDBRANCH  21  23
ENDBRANCH  15  21
ENDBRANCH   1  18
BRANCH   1  26
ATOM     26  C   UNL     1       2.119   4.918  20.607  0.00  0.00    +0.000 C 
ATOM     27  C   UNL     1       0.948   3.960  20.585  0.00  0.00    +0.000 C 
ATOM     28  C   UNL     1       2.102   3.701  21.496  0.00  0.00    +0.000 C 
ENDBRANCH   1  26
TORSDOF 7
ENDMDL
MODEL 3
REMARK VINA RESULT:      -7.6      0.581      1.868
REMARK  Name = 
REMARK  8 active torsions:
REMARK  status: ('A' for Active; 'I' for Inactive)
REMARK    1  A    between atoms: C_1  and  C_2
REMARK    2  A    between atoms: C_2  and  O_3
REMARK    3  A    between atoms: O_3  and  C_4
REMARK    4  A    between atoms: C_4  and  C_6
REMARK    5  A    between atoms: C_9  and  N_10
REMARK    6  A    between atoms: N_10  and  C_22
REMARK    7  A    between atoms: C_11  and  C_13
REMARK    8  A    between atoms: C_17  and  N_18
REMARK                            x       y       z     vdW  Elec       q    Type
REMARK                         _______ _______ _______ _____ _____    ______ ____
ROOT
ATOM      1  N   UNL     1       2.912   5.281  19.113  0.00  0.00    +0.000 N 
ATOM      2  C   UNL     1       3.004   6.514  18.421  0.00  0.00    +0.000 C 
ATOM      3  O   UNL     1       3.633   6.673  17.373  0.00  0.00    +0.000 OA
ENDROOT
BRANCH   2   4
ATOM      4  C   UNL     1       2.243   7.728  18.873  0.00  0.00    +0.000 A 
ATOM      5  C   UNL     1       2.062   8.878  18.109  0.00  0.00    +0.000 A 
ATOM      6  C   UNL     1       1.630  10.062  18.715  0.00  0.00    +0.000 A 
ATOM      7 CL   UNL     1       1.678  11.515  17.773  0.00  0.00    +0.000 Cl
ATOM      8  C   UNL     1       1.204  10.090  20.052  0.00  0.00    +0.000 A 
ATOM      9  C   UNL     1       1.198   8.871  20.747  0.00  0.00    +0.000 A 
ATOM     10 CL   UNL     1       0.583   8.785  22.363  0.00  0.00    +0.000 Cl
ATOM     11  C   UNL     1       1.708   7.705  20.170  0.00  0.00    +0.000 A 
BRANCH   8  12
ATOM     12  N   UNL     1       1.039  11.313  20.735  0.00  0.00    +0.000 N 
ATOM     13  H   UNL     1       1.798  11.977  20.602  0.00  0.00    +0.000 HD
ATOM     14  H   UNL     1       0.109  11.716  20.652  0.00  0.00    +0.000 HD
ENDBRANCH   8  12
ENDBRANCH   2   4
BRANCH   1  18
ATOM     15  C   UNL     1       6.270   4.679  17.366  0.00  0.00    +0.000 C 
ATOM     16  C   UNL     1       6.027   4.810  18.879  0.00  0.00    +0.000 C 
ATOM     17  C   UNL     1       4.966   3.847  19.401  0.00  0.00    +0.000 C 
ATOM     18  C   UNL     1       3.619   4.032  18.677  0.00  0.00    +0.000 C 
ATOM     19  C   UNL     1       3.859   3.779  17.182  0.00  0.00    +0.000 C 
ATOM     20  C   UNL     1       4.959   4.637  16.568  0.00  0.00    +0.000 C 
BRANCH  15  21
ATOM     21  C   UNL     1       7.090   5.866  16.871  0.00  0.00    +0.000 C 
ATOM     22  O   UNL     1       7.543   5.982  15.741  0.00  0.00    +0.000 OA
BRANCH  21  23
ATOM     23  O   UNL     1       7.311   6.744  17.891  0.00  0.00    +0.000 OA
BRANCH  23  25
ATOM     24  C   UNL     1       8.363   8.887  18.135  0.00  0.00    +0.000 C 
ATOM     25  C   UNL     1       7.177   8.132  17.554  0.00  0.00    +0.000 C 
ENDBRANCH  23  25
ENDBRANCH  21  23
ENDBRANCH  15  21
ENDBRANCH   1  18
BRANCH   1  26
ATOM     26  C   UNL     1       1.958   5.093  20.200  0.00  0.00    +0.000 C 
ATOM     27  C   UNL     1       0.935   3.984  20.094  0.00  0.00    +0.000 C 
ATOM     28  C   UNL     1       1.933   3.969  21.203  0.00  0.00    +0.000 C 
ENDBRANCH   1  26
TORSDOF 7
ENDMDL
MODEL 4
REMARK VINA RESULT:      -7.5      1.155      2.592
REMARK  Name = 
REMARK  8 active torsions:
REMARK  status: ('A' for Active; 'I' for Inactive)
REMARK    1  A    between atoms: C_1  and  C_2
REMARK    2  A    between atoms: C_2  and  O_3
REMARK    3  A    between atoms: O_3  and  C_4
REMARK    4  A    between atoms: C_4  and  C_6
REMARK    5  A    between atoms: C_9  and  N_10
REMARK    6  A    between atoms: N_10  and  C_22
REMARK    7  A    between atoms: C_11  and  C_13
REMARK    8  A    between atoms: C_17  and  N_18
REMARK                            x       y       z     vdW  Elec       q    Type
REMARK                         _______ _______ _______ _____ _____    ______ ____
ROOT
ATOM      1  N   UNL     1       3.049   5.196  19.232  0.00  0.00    +0.000 N 
ATOM      2  C   UNL     1       3.070   6.367  18.435  0.00  0.00    +0.000 C 
ATOM      3  O   UNL     1       3.630   6.448  17.339  0.00  0.00    +0.000 OA
ENDROOT
BRANCH   2   4
ATOM      4  C   UNL     1       2.311   7.601  18.830  0.00  0.00    +0.000 A 
ATOM      5  C   UNL     1       2.224   8.758  18.060  0.00  0.00    +0.000 A 
ATOM      6  C   UNL     1       1.779   9.952  18.635  0.00  0.00    +0.000 A 
ATOM      7 CL   UNL     1       1.944  11.406  17.707  0.00  0.00    +0.000 Cl
ATOM      8  C   UNL     1       1.248   9.990  19.934  0.00  0.00    +0.000 A 
ATOM      9  C   UNL     1       1.152   8.769  20.621  0.00  0.00    +0.000 A 
ATOM     10 CL   UNL     1       0.407   8.697  22.181  0.00  0.00    +0.000 Cl
ATOM     11  C   UNL     1       1.673   7.591  20.080  0.00  0.00    +0.000 A 
BRANCH   8  12
ATOM     12  N   UNL     1       1.065  11.215  20.608  0.00  0.00    +0.000 N 
ATOM     13  H   UNL     1       0.387  11.183  21.365  0.00  0.00    +0.000 HD
ATOM     14  H   UNL     1       1.930  11.698  20.838  0.00  0.00    +0.000 HD
ENDBRANCH   8  12
ENDBRANCH   2   4
BRANCH   1  18
ATOM     15  C   UNL     1       6.074   4.478  16.991  0.00  0.00    +0.000 C 
ATOM     16  C   UNL     1       6.097   4.835  18.487  0.00  0.00    +0.000 C 
ATOM     17  C   UNL     1       5.221   3.919  19.334  0.00  0.00    +0.000 C 
ATOM     18  C   UNL     1       3.757   3.926  18.858  0.00  0.00    +0.000 C 
ATOM     19  C   UNL     1       3.742   3.452  17.398  0.00  0.00    +0.000 C 
ATOM     20  C   UNL     1       4.648   4.251  16.469  0.00  0.00    +0.000 C 
BRANCH  15  21
ATOM     21  C   UNL     1       6.703   5.608  16.182  0.00  0.00    +0.000 C 
ATOM     22  O   UNL     1       7.440   6.471  16.639  0.00  0.00    +0.000 OA
BRANCH  21  23
ATOM     23  O   UNL     1       6.265   5.564  14.891  0.00  0.00    +0.000 OA
BRANCH  23  25
ATOM     24  C   UNL     1       6.236   3.827  13.237  0.00  0.00    +0.000 C 
ATOM     25  C   UNL     1       7.099   4.836  13.979  0.00  0.00    +0.000 C 
ENDBRANCH  23  25
ENDBRANCH  21  23
ENDBRANCH  15  21
ENDBRANCH   1  18
BRANCH   1  26
ATOM     26  C   UNL     1       2.168   5.084  20.389  0.00  0.00    +0.000 C 
ATOM     27  C   UNL     1       1.026   4.093  20.347  0.00  0.00    +0.000 C 
ATOM     28  C   UNL     1       2.100   3.945  21.373  0.00  0.00    +0.000 C 
ENDBRANCH   1  26
TORSDOF 7
ENDMDL
MODEL 5
REMARK VINA RESULT:      -7.0      1.225      2.273
REMARK  Name = 
REMARK  8 active torsions:
REMARK  status: ('A' for Active; 'I' for Inactive)
REMARK    1  A    between atoms: C_1  and  C_2
REMARK    2  A    between atoms: C_2  and  O_3
REMARK    3  A    between atoms: O_3  and  C_4
REMARK    4  A    between atoms: C_4  and  C_6
REMARK    5  A    between atoms: C_9  and  N_10
REMARK    6  A    between atoms: N_10  and  C_22
REMARK    7  A    between atoms: C_11  and  C_13
REMARK    8  A    between atoms: C_17  and  N_18
REMARK                            x       y       z     vdW  Elec       q    Type
REMARK                         _______ _______ _______ _____ _____    ______ ____
ROOT
ATOM      1  N   UNL     1       3.029   5.392  17.762  0.00  0.00    +0.000 N 
ATOM      2  C   UNL     1       3.245   6.787  17.887  0.00  0.00    +0.000 C 
ATOM      3  O   UNL     1       4.218   7.381  17.417  0.00  0.00    +0.000 OA
ENDROOT
BRANCH   2   4
ATOM      4  C   UNL     1       2.232   7.685  18.538  0.00  0.00    +0.000 A 
ATOM      5  C   UNL     1       1.365   8.529  17.849  0.00  0.00    +0.000 A 
ATOM      6  C   UNL     1       0.693   9.551  18.528  0.00  0.00    +0.000 A 
ATOM      7 CL   UNL     1      -0.159  10.725  17.582  0.00  0.00    +0.000 Cl
ATOM      8  C   UNL     1       0.731   9.652  19.928  0.00  0.00    +0.000 A 
ATOM      9  C   UNL     1       1.446   8.663  20.621  0.00  0.00    +0.000 A 
ATOM     10 CL   UNL     1       1.456   8.638  22.352  0.00  0.00    +0.000 Cl
ATOM     11  C   UNL     1       2.186   7.692  19.940  0.00  0.00    +0.000 A 
BRANCH   8  12
ATOM     12  N   UNL     1       0.297  10.823  20.582  0.00  0.00    +0.000 N 
ATOM     13  H   UNL     1       0.881  11.112  21.363  0.00  0.00    +0.000 HD
ATOM     14  H   UNL     1       0.030  11.578  19.954  0.00  0.00    +0.000 HD
ENDBRANCH   8  12
ENDBRANCH   2   4
BRANCH   1  18
ATOM     15  C   UNL     1       6.854   5.343  17.524  0.00  0.00    +0.000 C 
ATOM     16  C   UNL     1       5.990   4.714  18.630  0.00  0.00    +0.000 C 
ATOM     17  C   UNL     1       4.926   3.764  18.091  0.00  0.00    +0.000 C 
ATOM     18  C   UNL     1       3.991   4.462  17.085  0.00  0.00    +0.000 C 
ATOM     19  C   UNL     1       4.859   4.979  15.929  0.00  0.00    +0.000 C 
ATOM     20  C   UNL     1       6.008   5.882  16.361  0.00  0.00    +0.000 C 
BRANCH  15  21
ATOM     21  C   UNL     1       7.663   6.501  18.099  0.00  0.00    +0.000 C 
ATOM     22  O   UNL     1       8.128   6.538  19.231  0.00  0.00    +0.000 OA
BRANCH  21  23
ATOM     23  O   UNL     1       7.731   7.522  17.198  0.00  0.00    +0.000 OA
BRANCH  23  25
ATOM     24  C   UNL     1       8.640   9.542  18.121  0.00  0.00    +0.000 C 
ATOM     25  C   UNL     1       7.371   8.817  17.700  0.00  0.00    +0.000 C 
ENDBRANCH  23  25
ENDBRANCH  21  23
ENDBRANCH  15  21
ENDBRANCH   1  18
BRANCH   1  26
ATOM     26  C   UNL     1       1.749   4.791  18.119  0.00  0.00    +0.000 C 
ATOM     27  C   UNL     1       1.628   3.283  18.138  0.00  0.00    +0.000 C 
ATOM     28  C   UNL     1       1.411   4.061  19.393  0.00  0.00    +0.000 C 
ENDBRANCH   1  26
TORSDOF 7
ENDMDL
MODEL 6
REMARK VINA RESULT:      -6.9      0.943      1.135
REMARK  Name = 
REMARK  8 active torsions:
REMARK  status: ('A' for Active; 'I' for Inactive)
REMARK    1  A    between atoms: C_1  and  C_2
REMARK    2  A    between atoms: C_2  and  O_3
REMARK    3  A    between atoms: O_3  and  C_4
REMARK    4  A    between atoms: C_4  and  C_6
REMARK    5  A    between atoms: C_9  and  N_10
REMARK    6  A    between atoms: N_10  and  C_22
REMARK    7  A    between atoms: C_11  and  C_13
REMARK    8  A    between atoms: C_17  and  N_18
REMARK                            x       y       z     vdW  Elec       q    Type
REMARK                         _______ _______ _______ _____ _____    ______ ____
ROOT
ATOM      1  N   UNL     1       2.797   5.706  19.077  0.00  0.00    +0.000 N 
ATOM      2  C   UNL     1       2.689   6.993  18.496  0.00  0.00    +0.000 C 
ATOM      3  O   UNL     1       3.088   7.277  17.364  0.00  0.00    +0.000 OA
ENDROOT
BRANCH   2   4
ATOM      4  C   UNL     1       1.976   8.115  19.194  0.00  0.00    +0.000 A 
ATOM      5  C   UNL     1       1.928   8.284  20.576  0.00  0.00    +0.000 A 
ATOM      6  C   UNL     1       0.989   9.151  21.145  0.00  0.00    +0.000 A 
ATOM      7 CL   UNL     1       0.800   9.119  22.867  0.00  0.00    +0.000 Cl
ATOM      8  C   UNL     1       0.196   9.997  20.354  0.00  0.00    +0.000 A 
ATOM      9  C   UNL     1       0.407   9.960  18.967  0.00  0.00    +0.000 A 
ATOM     10 CL   UNL     1      -0.441  11.046  17.921  0.00  0.00    +0.000 Cl
ATOM     11  C   UNL     1       1.284   9.036  18.392  0.00  0.00    +0.000 A 
BRANCH   8  12
ATOM     12  N   UNL     1      -0.928  10.653  20.897  0.00  0.00    +0.000 N 
ATOM     13  H   UNL     1      -1.043  10.534  21.900  0.00  0.00    +0.000 HD
ATOM     14  H   UNL     1      -1.052  11.608  20.570  0.00  0.00    +0.000 HD
ENDBRANCH   8  12
ENDBRANCH   2   4
BRANCH   1  18
ATOM     15  C   UNL     1       6.429   5.038  18.051  0.00  0.00    +0.000 C 
ATOM     16  C   UNL     1       5.783   4.732  19.412  0.00  0.00    +0.000 C 
ATOM     17  C   UNL     1       4.523   3.881  19.300  0.00  0.00    +0.000 C 
ATOM     18  C   UNL     1       3.463   4.544  18.401  0.00  0.00    +0.000 C 
ATOM     19  C   UNL     1       4.088   4.733  17.011  0.00  0.00    +0.000 C 
ATOM     20  C   UNL     1       5.400   5.507  17.012  0.00  0.00    +0.000 C 
BRANCH  15  21
ATOM     21  C   UNL     1       7.476   6.136  18.212  0.00  0.00    +0.000 C 
ATOM     22  O   UNL     1       8.224   6.255  19.174  0.00  0.00    +0.000 OA
BRANCH  21  23
ATOM     23  O   UNL     1       7.407   7.011  17.169  0.00  0.00    +0.000 OA
BRANCH  23  25
ATOM     24  C   UNL     1       8.299   9.117  17.894  0.00  0.00    +0.000 C 
ATOM     25  C   UNL     1       7.040   8.355  17.509  0.00  0.00    +0.000 C 
ENDBRANCH  23  25
ENDBRANCH  21  23
ENDBRANCH  15  21
ENDBRANCH   1  18
BRANCH   1  26
ATOM     26  C   UNL     1       2.089   5.370  20.307  0.00  0.00    +0.000 C 
ATOM     27  C   UNL     1       0.910   4.425  20.240  0.00  0.00    +0.000 C 
ATOM     28  C   UNL     1       2.114   4.054  21.040  0.00  0.00    +0.000 C 
ENDBRANCH   1  26
TORSDOF 7
ENDMDL
MODEL 7
REMARK VINA RESULT:      -6.9      4.481      7.774
REMARK  Name = 
REMARK  8 active torsions:
REMARK  status: ('A' for Active; 'I' for Inactive)
REMARK    1  A    between atoms: C_1  and  C_2
REMARK    2  A    between atoms: C_2  and  O_3
REMARK    3  A    between atoms: O_3  and  C_4
REMARK    4  A    between atoms: C_4  and  C_6
REMARK    5  A    between atoms: C_9  and  N_10
REMARK    6  A    between atoms: N_10  and  C_22
REMARK    7  A    between atoms: C_11  and  C_13
REMARK    8  A    between atoms: C_17  and  N_18
REMARK                            x       y       z     vdW  Elec       q    Type
REMARK                         _______ _______ _______ _____ _____    ______ ____
ROOT
ATOM      1  N   UNL     1       5.787   5.571  17.279  0.00  0.00    +0.000 N 
ATOM      2  C   UNL     1       5.198   4.930  16.162  0.00  0.00    +0.000 C 
ATOM      3  O   UNL     1       4.000   4.653  16.075  0.00  0.00    +0.000 OA
ENDROOT
BRANCH   2   4
ATOM      4  C   UNL     1       5.992   4.615  14.926  0.00  0.00    +0.000 A 
ATOM      5  C   UNL     1       7.215   5.198  14.601  0.00  0.00    +0.000 A 
ATOM      6  C   UNL     1       7.718   5.093  13.300  0.00  0.00    +0.000 A 
ATOM      7 CL   UNL     1       9.099   6.054  12.889  0.00  0.00    +0.000 Cl
ATOM      8  C   UNL     1       7.111   4.267  12.341  0.00  0.00    +0.000 A 
ATOM      9  C   UNL     1       5.993   3.524  12.753  0.00  0.00    +0.000 A 
ATOM     10 CL   UNL     1       5.246   2.393  11.676  0.00  0.00    +0.000 Cl
ATOM     11  C   UNL     1       5.440   3.691  14.025  0.00  0.00    +0.000 A 
BRANCH   8  12
ATOM     12  N   UNL     1       7.443   4.376  10.975  0.00  0.00    +0.000 N 
ATOM     13  H   UNL     1       8.110   5.113  10.760  0.00  0.00    +0.000 HD
ATOM     14  H   UNL     1       7.638   3.487  10.521  0.00  0.00    +0.000 HD
ENDBRANCH   8  12
ENDBRANCH   2   4
BRANCH   1  18
ATOM     15  C   UNL     1       2.824   3.945  19.086  0.00  0.00    +0.000 C 
ATOM     16  C   UNL     1       4.315   3.633  19.292  0.00  0.00    +0.000 C 
ATOM     17  C   UNL     1       5.147   4.869  19.615  0.00  0.00    +0.000 C 
ATOM     18  C   UNL     1       5.026   5.943  18.517  0.00  0.00    +0.000 C 
ATOM     19  C   UNL     1       3.544   6.328  18.409  0.00  0.00    +0.000 C 
ATOM     20  C   UNL     1       2.605   5.153  18.163  0.00  0.00    +0.000 C 
BRANCH  15  21
ATOM     21  C   UNL     1       2.127   2.740  18.463  0.00  0.00    +0.000 C 
ATOM     22  O   UNL     1       2.226   2.400  17.292  0.00  0.00    +0.000 OA
BRANCH  21  23
ATOM     23  O   UNL     1       1.316   2.138  19.380  0.00  0.00    +0.000 OA
BRANCH  23  25
ATOM     24  C   UNL     1       1.532   2.507  21.741  0.00  0.00    +0.000 C 
ATOM     25  C   UNL     1       0.868   2.976  20.455  0.00  0.00    +0.000 C 
ENDBRANCH  23  25
ENDBRANCH  21  23
ENDBRANCH  15  21
ENDBRANCH   1  18
BRANCH   1  26
ATOM     26  C   UNL     1       7.148   6.094  17.221  0.00  0.00    +0.000 C 
ATOM     27  C   UNL     1       7.363   7.588  17.310  0.00  0.00    +0.000 C 
ATOM     28  C   UNL     1       7.941   6.691  18.354  0.00  0.00    +0.000 C 
ENDBRANCH   1  26
TORSDOF 7
ENDMDL
MODEL 8
REMARK VINA RESULT:      -6.6      3.751      7.779
REMARK  Name = 
REMARK  8 active torsions:
REMARK  status: ('A' for Active; 'I' for Inactive)
REMARK    1  A    between atoms: C_1  and  C_2
REMARK    2  A    between atoms: C_2  and  O_3
REMARK    3  A    between atoms: O_3  and  C_4
REMARK    4  A    between atoms: C_4  and  C_6
REMARK    5  A    between atoms: C_9  and  N_10
REMARK    6  A    between atoms: N_10  and  C_22
REMARK    7  A    between atoms: C_11  and  C_13
REMARK    8  A    between atoms: C_17  and  N_18
REMARK                            x       y       z     vdW  Elec       q    Type
REMARK                         _______ _______ _______ _____ _____    ______ ____
ROOT
ATOM      1  N   UNL     1       0.804  10.116  20.008  0.00  0.00    +0.000 N 
ATOM      2  C   UNL     1       1.613   9.717  18.915  0.00  0.00    +0.000 C 
ATOM      3  O   UNL     1       2.037  10.487  18.051  0.00  0.00    +0.000 OA
ENDROOT
BRANCH   2   4
ATOM      4  C   UNL     1       2.106   8.305  18.776  0.00  0.00    +0.000 A 
ATOM      5  C   UNL     1       1.749   7.255  19.618  0.00  0.00    +0.000 A 
ATOM      6  C   UNL     1       2.493   6.070  19.617  0.00  0.00    +0.000 A 
ATOM      7 CL   UNL     1       2.168   4.912  20.863  0.00  0.00    +0.000 Cl
ATOM      8  C   UNL     1       3.496   5.833  18.664  0.00  0.00    +0.000 A 
ATOM      9  C   UNL     1       3.700   6.824  17.690  0.00  0.00    +0.000 A 
ATOM     10 CL   UNL     1       4.834   6.573  16.407  0.00  0.00    +0.000 Cl
ATOM     11  C   UNL     1       3.017   8.042  17.741  0.00  0.00    +0.000 A 
BRANCH   8  12
ATOM     12  N   UNL     1       4.421   4.782  18.831  0.00  0.00    +0.000 N 
ATOM     13  H   UNL     1       4.032   3.852  18.698  0.00  0.00    +0.000 HD
ATOM     14  H   UNL     1       5.314   4.934  18.369  0.00  0.00    +0.000 HD
ENDBRANCH   8  12
ENDBRANCH   2   4
BRANCH   1  18
ATOM     15  C   UNL     1      -2.166  12.070  18.576  0.00  0.00    +0.000 C 
ATOM     16  C   UNL     1      -2.165  11.181  19.831  0.00  0.00    +0.000 C 
ATOM     17  C   UNL     1      -1.086  11.566  20.836  0.00  0.00    +0.000 C 
ATOM     18  C   UNL     1       0.321  11.522  20.211  0.00  0.00    +0.000 C 
ATOM     19  C   UNL     1       0.335  12.506  19.033  0.00  0.00    +0.000 C 
ATOM     20  C   UNL     1      -0.757  12.262  17.998  0.00  0.00    +0.000 C 
BRANCH  15  21
ATOM     21  C   UNL     1      -3.040  11.437  17.497  0.00  0.00    +0.000 C 
ATOM     22  O   UNL     1      -4.261  11.366  17.537  0.00  0.00    +0.000 OA
BRANCH  21  23
ATOM     23  O   UNL     1      -2.261  10.894  16.519  0.00  0.00    +0.000 OA
BRANCH  23  25
ATOM     24  C   UNL     1      -3.102  10.006  14.454  0.00  0.00    +0.000 C 
ATOM     25  C   UNL     1      -2.774   9.702  15.908  0.00  0.00    +0.000 C 
ENDBRANCH  23  25
ENDBRANCH  21  23
ENDBRANCH  15  21
ENDBRANCH   1  18
BRANCH   1  26
ATOM     26  C   UNL     1       0.543   9.215  21.125  0.00  0.00    +0.000 C 
ATOM     27  C   UNL     1       1.459   9.256  22.328  0.00  0.00    +0.000 C 
ATOM     28  C   UNL     1       0.011   9.584  22.485  0.00  0.00    +0.000 C 
ENDBRANCH   1  26
TORSDOF 7
ENDMDL
MODEL 9
REMARK VINA RESULT:      -6.6      6.033      9.104
REMARK  Name = 
REMARK  8 active torsions:
REMARK  status: ('A' for Active; 'I' for Inactive)
REMARK    1  A    between atoms: C_1  and  C_2
REMARK    2  A    between atoms: C_2  and  O_3
REMARK    3  A    between atoms: O_3  and  C_4
REMARK    4  A    between atoms: C_4  and  C_6
REMARK    5  A    between atoms: C_9  and  N_10
REMARK    6  A    between atoms: N_10  and  C_22
REMARK    7  A    between atoms: C_11  and  C_13
REMARK    8  A    between atoms: C_17  and  N_18
REMARK                            x       y       z     vdW  Elec       q    Type
REMARK                         _______ _______ _______ _____ _____    ______ ____
ROOT
ATOM      1  N   UNL     1      -2.861  12.267  19.151  0.00  0.00    +0.000 N 
ATOM      2  C   UNL     1      -2.816  13.206  20.211  0.00  0.00    +0.000 C 
ATOM      3  O   UNL     1      -1.875  13.977  20.412  0.00  0.00    +0.000 OA
ENDROOT
BRANCH   2   4
ATOM      4  C   UNL     1      -3.981  13.403  21.138  0.00  0.00    +0.000 A 
ATOM      5  C   UNL     1      -5.072  14.228  20.874  0.00  0.00    +0.000 A 
ATOM      6  C   UNL     1      -5.936  14.601  21.909  0.00  0.00    +0.000 A 
ATOM      7 CL   UNL     1      -7.110  15.831  21.577  0.00  0.00    +0.000 Cl
ATOM      8  C   UNL     1      -5.842  14.030  23.187  0.00  0.00    +0.000 A 
ATOM      9  C   UNL     1      -4.862  13.043  23.376  0.00  0.00    +0.000 A 
ATOM     10 CL   UNL     1      -4.743  12.200  24.883  0.00  0.00    +0.000 Cl
ATOM     11  C   UNL     1      -3.945  12.730  22.369  0.00  0.00    +0.000 A 
BRANCH   8  12
ATOM     12  N   UNL     1      -6.516  14.599  24.288  0.00  0.00    +0.000 N 
ATOM     13  H   UNL     1      -5.935  14.747  25.109  0.00  0.00    +0.000 HD
ATOM     14  H   UNL     1      -7.115  15.385  24.049  0.00  0.00    +0.000 HD
ENDBRANCH   8  12
ENDBRANCH   2   4
BRANCH   1  18
ATOM     15  C   UNL     1       0.256  10.039  19.214  0.00  0.00    +0.000 C 
ATOM     16  C   UNL     1      -1.144   9.655  18.705  0.00  0.00    +0.000 C 
ATOM     17  C   UNL     1      -1.683  10.617  17.653  0.00  0.00    +0.000 C 
ATOM     18  C   UNL     1      -1.740  12.064  18.176  0.00  0.00    +0.000 C 
ATOM     19  C   UNL     1      -0.312  12.471  18.567  0.00  0.00    +0.000 C 
ATOM     20  C   UNL     1       0.359  11.531  19.561  0.00  0.00    +0.000 C 
BRANCH  15  21
ATOM     21  C   UNL     1       0.587   9.235  20.467  0.00  0.00    +0.000 C 
ATOM     22  O   UNL     1       1.622   8.606  20.643  0.00  0.00    +0.000 OA
BRANCH  21  23
ATOM     23  O   UNL     1      -0.467   9.254  21.332  0.00  0.00    +0.000 OA
BRANCH  23  25
ATOM     24  C   UNL     1      -1.068  10.716  23.137  0.00  0.00    +0.000 C 
ATOM     25  C   UNL     1      -0.149   9.590  22.690  0.00  0.00    +0.000 C 
ENDBRANCH  23  25
ENDBRANCH  21  23
ENDBRANCH  15  21
ENDBRANCH   1  18
BRANCH   1  26
ATOM     26  C   UNL     1      -4.094  11.563  18.817  0.00  0.00    +0.000 C 
ATOM     27  C   UNL     1      -5.136  12.268  17.977  0.00  0.00    +0.000 C 
ATOM     28  C   UNL     1      -4.494  11.019  17.470  0.00  0.00    +0.000 C 
ENDBRANCH   1  26
TORSDOF 7
ENDMDL
