MODEL 1
REMARK VINA RESULT:      -7.0      0.000      0.000
REMARK  Name = 
REMARK  7 active torsions:
REMARK  status: ('A' for Active; 'I' for Inactive)
REMARK    1  A    between atoms: C_1  and  C_2
REMARK    2  A    between atoms: C_2  and  C_3
REMARK    3  A    between atoms: C_2  and  C_4
REMARK    4  A    between atoms: C_2  and  O_5
REMARK    5  A    between atoms: O_5  and  C_6
REMARK    6  A    between atoms: C_6  and  C_7
REMARK    7  A    between atoms: C_14  and  C_15
REMARK                            x       y       z     vdW  Elec       q    Type
REMARK                         _______ _______ _______ _____ _____    ______ ____
ROOT
ATOM      1  C   UNL     1       5.077   5.400  18.175  0.00  0.00    +0.000 C 
ATOM      2  C   UNL     1       4.755   5.075  19.633  0.00  0.00    +0.000 C 
ATOM      3  N   UNL     1       3.334   4.851  19.560  0.00  0.00    +0.000 N 
ATOM      4  C   UNL     1       2.882   3.545  19.392  0.00  0.00    +0.000 C 
ATOM      5  O   UNL     1       3.329   2.560  19.965  0.00  0.00    +0.000 OA
ATOM      6  C   UNL     1       1.900   3.495  18.253  0.00  0.00    +0.000 C 
ATOM      7  C   UNL     1       1.680   4.942  17.857  0.00  0.00    +0.000 C 
ATOM      8  C   UNL     1       2.777   5.726  18.574  0.00  0.00    +0.000 C 
ATOM      9  O   UNL     1       3.862   6.012  17.668  0.00  0.00    +0.000 OA
ENDROOT
BRANCH   8  10
ATOM     10  C   UNL     1       2.207   7.012  19.171  0.00  0.00    +0.000 A 
ATOM     11  C   UNL     1       1.760   7.059  20.507  0.00  0.00    +0.000 A 
ATOM     12  C   UNL     1       1.158   8.209  21.028  0.00  0.00    +0.000 A 
ATOM     13  C   UNL     1       0.990   9.328  20.218  0.00  0.00    +0.000 A 
ATOM     14 CL   UNL     1       0.231  10.738  20.849  0.00  0.00    +0.000 Cl
ATOM     15  C   UNL     1       1.423   9.308  18.896  0.00  0.00    +0.000 A 
ATOM     16  C   UNL     1       2.024   8.156  18.374  0.00  0.00    +0.000 A 
ENDBRANCH   8  10
BRANCH   1  17
ATOM     17  C   UNL     1       5.409   4.110  17.396  0.00  0.00    +0.000 C 
BRANCH  17  18
ATOM     18  O   UNL     1       4.904   4.101  16.057  0.00  0.00    +0.000 OA
BRANCH  18  20
ATOM     19  C   UNL     1       5.709   3.836  13.739  0.00  0.00    +0.000 C 
ATOM     20  C   UNL     1       5.821   4.612  15.057  0.00  0.00    +0.000 C 
ATOM     21  C   UNL     1       7.271   4.605  15.568  0.00  0.00    +0.000 C 
ATOM     22  C   UNL     1       5.410   6.065  14.776  0.00  0.00    +0.000 C 
ENDBRANCH  18  20
ENDBRANCH  17  18
ENDBRANCH   1  17
TORSDOF 4
ENDMDL
MODEL 2
REMARK VINA RESULT:      -7.0      1.242      1.759
REMARK  Name = 
REMARK  7 active torsions:
REMARK  status: ('A' for Active; 'I' for Inactive)
REMARK    1  A    between atoms: C_1  and  C_2
REMARK    2  A    between atoms: C_2  and  C_3
REMARK    3  A    between atoms: C_2  and  C_4
REMARK    4  A    between atoms: C_2  and  O_5
REMARK    5  A    between atoms: O_5  and  C_6
REMARK    6  A    between atoms: C_6  and  C_7
REMARK    7  A    between atoms: C_14  and  C_15
REMARK                            x       y       z     vdW  Elec       q    Type
REMARK                         _______ _______ _______ _____ _____    ______ ____
ROOT
ATOM      1  C   UNL     1       6.029   5.899  17.933  0.00  0.00    +0.000 C 
ATOM      2  C   UNL     1       5.764   5.549  19.397  0.00  0.00    +0.000 C 
ATOM      3  N   UNL     1       4.461   4.941  19.307  0.00  0.00    +0.000 N 
ATOM      4  C   UNL     1       4.390   3.557  19.185  0.00  0.00    +0.000 C 
ATOM      5  O   UNL     1       5.071   2.753  19.808  0.00  0.00    +0.000 OA
ATOM      6  C   UNL     1       3.493   3.199  18.031  0.00  0.00    +0.000 C 
ATOM      7  C   UNL     1       2.897   4.515  17.570  0.00  0.00    +0.000 C 
ATOM      8  C   UNL     1       3.716   5.595  18.274  0.00  0.00    +0.000 C 
ATOM      9  O   UNL     1       4.708   6.135  17.377  0.00  0.00    +0.000 OA
ENDROOT
BRANCH   8  10
ATOM     10  C   UNL     1       2.798   6.695  18.804  0.00  0.00    +0.000 A 
ATOM     11  C   UNL     1       2.527   7.848  18.039  0.00  0.00    +0.000 A 
ATOM     12  C   UNL     1       1.759   8.896  18.558  0.00  0.00    +0.000 A 
ATOM     13  C   UNL     1       1.255   8.808  19.851  0.00  0.00    +0.000 A 
ATOM     14 CL   UNL     1       0.328  10.104  20.500  0.00  0.00    +0.000 Cl
ATOM     15  C   UNL     1       1.508   7.681  20.627  0.00  0.00    +0.000 A 
ATOM     16  C   UNL     1       2.278   6.633  20.109  0.00  0.00    +0.000 A 
ENDBRANCH   8  10
BRANCH   1  17
ATOM     17  C   UNL     1       6.724   4.722  17.216  0.00  0.00    +0.000 C 
BRANCH  17  18
ATOM     18  O   UNL     1       7.345   5.089  15.980  0.00  0.00    +0.000 OA
BRANCH  18  20
ATOM     19  C   UNL     1       5.473   5.919  14.601  0.00  0.00    +0.000 C 
ATOM     20  C   UNL     1       6.544   4.838  14.797  0.00  0.00    +0.000 C 
ATOM     21  C   UNL     1       5.903   3.442  14.838  0.00  0.00    +0.000 C 
ATOM     22  C   UNL     1       7.494   4.903  13.592  0.00  0.00    +0.000 C 
ENDBRANCH  18  20
ENDBRANCH  17  18
ENDBRANCH   1  17
TORSDOF 4
ENDMDL
MODEL 3
REMARK VINA RESULT:      -7.0      0.238      1.056
REMARK  Name = 
REMARK  7 active torsions:
REMARK  status: ('A' for Active; 'I' for Inactive)
REMARK    1  A    between atoms: C_1  and  C_2
REMARK    2  A    between atoms: C_2  and  C_3
REMARK    3  A    between atoms: C_2  and  C_4
REMARK    4  A    between atoms: C_2  and  O_5
REMARK    5  A    between atoms: O_5  and  C_6
REMARK    6  A    between atoms: C_6  and  C_7
REMARK    7  A    between atoms: C_14  and  C_15
REMARK                            x       y       z     vdW  Elec       q    Type
REMARK                         _______ _______ _______ _____ _____    ______ ____
ROOT
ATOM      1  C   UNL     1       5.216   5.544  18.059  0.00  0.00    +0.000 C 
ATOM      2  C   UNL     1       4.931   5.250  19.531  0.00  0.00    +0.000 C 
ATOM      3  N   UNL     1       3.536   4.893  19.478  0.00  0.00    +0.000 N 
ATOM      4  C   UNL     1       3.206   3.546  19.365  0.00  0.00    +0.000 C 
ATOM      5  O   UNL     1       3.744   2.630  19.974  0.00  0.00    +0.000 OA
ATOM      6  C   UNL     1       2.228   3.360  18.237  0.00  0.00    +0.000 C 
ATOM      7  C   UNL     1       1.874   4.764  17.785  0.00  0.00    +0.000 C 
ATOM      8  C   UNL     1       2.897   5.673  18.462  0.00  0.00    +0.000 C 
ATOM      9  O   UNL     1       3.948   6.021  17.536  0.00  0.00    +0.000 OA
ENDROOT
BRANCH   8  10
ATOM     10  C   UNL     1       2.214   6.925  19.010  0.00  0.00    +0.000 A 
ATOM     11  C   UNL     1       2.055   8.076  18.212  0.00  0.00    +0.000 A 
ATOM     12  C   UNL     1       1.510   9.252  18.739  0.00  0.00    +0.000 A 
ATOM     13  C   UNL     1       1.119   9.294  20.074  0.00  0.00    +0.000 A 
ATOM     14 CL   UNL     1       0.467  10.744  20.731  0.00  0.00    +0.000 Cl
ATOM     15  C   UNL     1       1.265   8.171  20.883  0.00  0.00    +0.000 A 
ATOM     16  C   UNL     1       1.813   6.996  20.356  0.00  0.00    +0.000 A 
ENDBRANCH   8  10
BRANCH   1  17
ATOM     17  C   UNL     1       5.662   4.259  17.329  0.00  0.00    +0.000 C 
BRANCH  17  18
ATOM     18  O   UNL     1       5.077   4.101  16.033  0.00  0.00    +0.000 OA
BRANCH  18  20
ATOM     19  C   UNL     1       5.701   3.780  13.667  0.00  0.00    +0.000 C 
ATOM     20  C   UNL     1       5.873   4.620  14.938  0.00  0.00    +0.000 C 
ATOM     21  C   UNL     1       7.358   4.723  15.322  0.00  0.00    +0.000 C 
ATOM     22  C   UNL     1       5.350   6.032  14.635  0.00  0.00    +0.000 C 
ENDBRANCH  18  20
ENDBRANCH  17  18
ENDBRANCH   1  17
TORSDOF 4
ENDMDL
MODEL 4
REMARK VINA RESULT:      -6.9      1.231      1.261
REMARK  Name = 
REMARK  7 active torsions:
REMARK  status: ('A' for Active; 'I' for Inactive)
REMARK    1  A    between atoms: C_1  and  C_2
REMARK    2  A    between atoms: C_2  and  C_3
REMARK    3  A    between atoms: C_2  and  C_4
REMARK    4  A    between atoms: C_2  and  O_5
REMARK    5  A    between atoms: O_5  and  C_6
REMARK    6  A    between atoms: C_6  and  C_7
REMARK    7  A    between atoms: C_14  and  C_15
REMARK                            x       y       z     vdW  Elec       q    Type
REMARK                         _______ _______ _______ _____ _____    ______ ____
ROOT
ATOM      1  C   UNL     1       6.075   5.962  17.916  0.00  0.00    +0.000 C 
ATOM      2  C   UNL     1       5.836   5.609  19.383  0.00  0.00    +0.000 C 
ATOM      3  N   UNL     1       4.513   5.042  19.320  0.00  0.00    +0.000 N 
ATOM      4  C   UNL     1       4.396   3.661  19.190  0.00  0.00    +0.000 C 
ATOM      5  O   UNL     1       5.068   2.832  19.790  0.00  0.00    +0.000 OA
ATOM      6  C   UNL     1       3.461   3.340  18.056  0.00  0.00    +0.000 C 
ATOM      7  C   UNL     1       2.894   4.677  17.620  0.00  0.00    +0.000 C 
ATOM      8  C   UNL     1       3.763   5.726  18.312  0.00  0.00    +0.000 C 
ATOM      9  O   UNL     1       4.748   6.243  17.394  0.00  0.00    +0.000 OA
ENDROOT
BRANCH   8  10
ATOM     10  C   UNL     1       2.893   6.849  18.873  0.00  0.00    +0.000 A 
ATOM     11  C   UNL     1       2.280   6.733  20.137  0.00  0.00    +0.000 A 
ATOM     12  C   UNL     1       1.413   7.722  20.614  0.00  0.00    +0.000 A 
ATOM     13  C   UNL     1       1.143   8.840  19.832  0.00  0.00    +0.000 A 
ATOM     14 CL   UNL     1       0.061  10.048  20.406  0.00  0.00    +0.000 Cl
ATOM     15  C   UNL     1       1.735   8.979  18.580  0.00  0.00    +0.000 A 
ATOM     16  C   UNL     1       2.601   7.988  18.102  0.00  0.00    +0.000 A 
ENDBRANCH   8  10
BRANCH   1  17
ATOM     17  C   UNL     1       6.716   4.771  17.173  0.00  0.00    +0.000 C 
BRANCH  17  18
ATOM     18  O   UNL     1       7.292   5.124  15.911  0.00  0.00    +0.000 OA
BRANCH  18  20
ATOM     19  C   UNL     1       5.691   3.477  15.006  0.00  0.00    +0.000 C 
ATOM     20  C   UNL     1       6.496   4.758  14.755  0.00  0.00    +0.000 C 
ATOM     21  C   UNL     1       7.368   4.612  13.496  0.00  0.00    +0.000 C 
ATOM     22  C   UNL     1       5.494   5.898  14.523  0.00  0.00    +0.000 C 
ENDBRANCH  18  20
ENDBRANCH  17  18
ENDBRANCH   1  17
TORSDOF 4
ENDMDL
MODEL 5
REMARK VINA RESULT:      -6.8      2.859      4.508
REMARK  Name = 
REMARK  7 active torsions:
REMARK  status: ('A' for Active; 'I' for Inactive)
REMARK    1  A    between atoms: C_1  and  C_2
REMARK    2  A    between atoms: C_2  and  C_3
REMARK    3  A    between atoms: C_2  and  C_4
REMARK    4  A    between atoms: C_2  and  O_5
REMARK    5  A    between atoms: O_5  and  C_6
REMARK    6  A    between atoms: C_6  and  C_7
REMARK    7  A    between atoms: C_14  and  C_15
REMARK                            x       y       z     vdW  Elec       q    Type
REMARK                         _______ _______ _______ _____ _____    ______ ____
ROOT
ATOM      1  C   UNL     1       5.334   4.944  14.801  0.00  0.00    +0.000 C 
ATOM      2  C   UNL     1       5.251   6.321  15.458  0.00  0.00    +0.000 C 
ATOM      3  N   UNL     1       5.758   6.031  16.775  0.00  0.00    +0.000 N 
ATOM      4  C   UNL     1       7.114   6.233  17.016  0.00  0.00    +0.000 C 
ATOM      5  O   UNL     1       7.769   7.192  16.629  0.00  0.00    +0.000 OA
ATOM      6  C   UNL     1       7.701   5.001  17.650  0.00  0.00    +0.000 C 
ATOM      7  C   UNL     1       6.518   4.092  17.919  0.00  0.00    +0.000 C 
ATOM      8  C   UNL     1       5.354   4.709  17.146  0.00  0.00    +0.000 C 
ATOM      9  O   UNL     1       5.156   4.011  15.900  0.00  0.00    +0.000 OA
ENDROOT
BRANCH   8  10
ATOM     10  C   UNL     1       4.083   4.688  17.994  0.00  0.00    +0.000 A 
ATOM     11  C   UNL     1       4.068   5.231  19.295  0.00  0.00    +0.000 A 
ATOM     12  C   UNL     1       2.932   5.135  20.105  0.00  0.00    +0.000 A 
ATOM     13  C   UNL     1       1.796   4.490  19.627  0.00  0.00    +0.000 A 
ATOM     14 CL   UNL     1       0.403   4.352  20.629  0.00  0.00    +0.000 Cl
ATOM     15  C   UNL     1       1.785   3.946  18.347  0.00  0.00    +0.000 A 
ATOM     16  C   UNL     1       2.923   4.040  17.537  0.00  0.00    +0.000 A 
ENDBRANCH   8  10
BRANCH   1  17
ATOM     17  C   UNL     1       6.711   4.748  14.132  0.00  0.00    +0.000 C 
BRANCH  17  18
ATOM     18  O   UNL     1       6.860   3.481  13.484  0.00  0.00    +0.000 OA
BRANCH  18  20
ATOM     19  C   UNL     1       7.118   4.742  11.378  0.00  0.00    +0.000 C 
ATOM     20  C   UNL     1       6.569   3.485  12.063  0.00  0.00    +0.000 C 
ATOM     21  C   UNL     1       5.062   3.337  11.799  0.00  0.00    +0.000 C 
ATOM     22  C   UNL     1       7.291   2.272  11.457  0.00  0.00    +0.000 C 
ENDBRANCH  18  20
ENDBRANCH  17  18
ENDBRANCH   1  17
TORSDOF 4
ENDMDL
MODEL 6
REMARK VINA RESULT:      -6.8      0.746      1.575
REMARK  Name = 
REMARK  7 active torsions:
REMARK  status: ('A' for Active; 'I' for Inactive)
REMARK    1  A    between atoms: C_1  and  C_2
REMARK    2  A    between atoms: C_2  and  C_3
REMARK    3  A    between atoms: C_2  and  C_4
REMARK    4  A    between atoms: C_2  and  O_5
REMARK    5  A    between atoms: O_5  and  C_6
REMARK    6  A    between atoms: C_6  and  C_7
REMARK    7  A    between atoms: C_14  and  C_15
REMARK                            x       y       z     vdW  Elec       q    Type
REMARK                         _______ _______ _______ _____ _____    ______ ____
ROOT
ATOM      1  C   UNL     1       5.626   5.599  17.853  0.00  0.00    +0.000 C 
ATOM      2  C   UNL     1       5.492   5.327  19.351  0.00  0.00    +0.000 C 
ATOM      3  N   UNL     1       4.158   4.787  19.416  0.00  0.00    +0.000 N 
ATOM      4  C   UNL     1       4.005   3.405  19.368  0.00  0.00    +0.000 C 
ATOM      5  O   UNL     1       4.704   2.592  19.958  0.00  0.00    +0.000 OA
ATOM      6  C   UNL     1       2.981   3.048  18.324  0.00  0.00    +0.000 C 
ATOM      7  C   UNL     1       2.409   4.374  17.862  0.00  0.00    +0.000 C 
ATOM      8  C   UNL     1       3.347   5.436  18.431  0.00  0.00    +0.000 C 
ATOM      9  O   UNL     1       4.270   5.883  17.418  0.00  0.00    +0.000 OA
ENDROOT
BRANCH   8  10
ATOM     10  C   UNL     1       2.543   6.606  18.996  0.00  0.00    +0.000 A 
ATOM     11  C   UNL     1       2.349   7.784  18.246  0.00  0.00    +0.000 A 
ATOM     12  C   UNL     1       1.689   8.890  18.794  0.00  0.00    +0.000 A 
ATOM     13  C   UNL     1       1.218   8.834  20.101  0.00  0.00    +0.000 A 
ATOM     14 CL   UNL     1       0.425  10.199  20.786  0.00  0.00    +0.000 Cl
ATOM     15  C   UNL     1       1.397   7.683  20.863  0.00  0.00    +0.000 A 
ATOM     16  C   UNL     1       2.059   6.578  20.315  0.00  0.00    +0.000 A 
ENDBRANCH   8  10
BRANCH   1  17
ATOM     17  C   UNL     1       6.187   4.357  17.128  0.00  0.00    +0.000 C 
BRANCH  17  18
ATOM     18  O   UNL     1       5.492   4.035  15.919  0.00  0.00    +0.000 OA
BRANCH  18  20
ATOM     19  C   UNL     1       7.533   4.895  14.828  0.00  0.00    +0.000 C 
ATOM     20  C   UNL     1       6.020   4.670  14.726  0.00  0.00    +0.000 C 
ATOM     21  C   UNL     1       5.294   5.991  14.425  0.00  0.00    +0.000 C 
ATOM     22  C   UNL     1       5.772   3.702  13.559  0.00  0.00    +0.000 C 
ENDBRANCH  18  20
ENDBRANCH  17  18
ENDBRANCH   1  17
TORSDOF 4
ENDMDL
MODEL 7
REMARK VINA RESULT:      -6.8      2.087      3.849
REMARK  Name = 
REMARK  7 active torsions:
REMARK  status: ('A' for Active; 'I' for Inactive)
REMARK    1  A    between atoms: C_1  and  C_2
REMARK    2  A    between atoms: C_2  and  C_3
REMARK    3  A    between atoms: C_2  and  C_4
REMARK    4  A    between atoms: C_2  and  O_5
REMARK    5  A    between atoms: O_5  and  C_6
REMARK    6  A    between atoms: C_6  and  C_7
REMARK    7  A    between atoms: C_14  and  C_15
REMARK                            x       y       z     vdW  Elec       q    Type
REMARK                         _______ _______ _______ _____ _____    ______ ____
ROOT
ATOM      1  C   UNL     1       5.019   4.838  15.224  0.00  0.00    +0.000 C 
ATOM      2  C   UNL     1       5.309   6.318  15.470  0.00  0.00    +0.000 C 
ATOM      3  N   UNL     1       5.831   6.279  16.812  0.00  0.00    +0.000 N 
ATOM      4  C   UNL     1       7.210   6.201  16.979  0.00  0.00    +0.000 C 
ATOM      5  O   UNL     1       8.040   6.829  16.334  0.00  0.00    +0.000 OA
ATOM      6  C   UNL     1       7.540   5.081  17.928  0.00  0.00    +0.000 C 
ATOM      7  C   UNL     1       6.201   4.597  18.449  0.00  0.00    +0.000 C 
ATOM      8  C   UNL     1       5.159   5.247  17.542  0.00  0.00    +0.000 C 
ATOM      9  O   UNL     1       4.711   4.309  16.542  0.00  0.00    +0.000 OA
ENDROOT
BRANCH   8  10
ATOM     10  C   UNL     1       3.985   5.768  18.370  0.00  0.00    +0.000 A 
ATOM     11  C   UNL     1       3.388   7.013  18.083  0.00  0.00    +0.000 A 
ATOM     12  C   UNL     1       2.372   7.531  18.893  0.00  0.00    +0.000 A 
ATOM     13  C   UNL     1       1.942   6.814  20.005  0.00  0.00    +0.000 A 
ATOM     14 CL   UNL     1       0.707   7.458  21.015  0.00  0.00    +0.000 Cl
ATOM     15  C   UNL     1       2.515   5.582  20.310  0.00  0.00    +0.000 A 
ATOM     16  C   UNL     1       3.533   5.065  19.500  0.00  0.00    +0.000 A 
ENDBRANCH   8  10
BRANCH   1  17
ATOM     17  C   UNL     1       6.259   4.138  14.628  0.00  0.00    +0.000 C 
BRANCH  17  18
ATOM     18  O   UNL     1       5.940   3.045  13.760  0.00  0.00    +0.000 OA
BRANCH  18  20
ATOM     19  C   UNL     1       6.640   2.085  11.597  0.00  0.00    +0.000 C 
ATOM     20  C   UNL     1       6.120   3.317  12.347  0.00  0.00    +0.000 C 
ATOM     21  C   UNL     1       7.049   4.522  12.121  0.00  0.00    +0.000 C 
ATOM     22  C   UNL     1       4.735   3.657  11.778  0.00  0.00    +0.000 C 
ENDBRANCH  18  20
ENDBRANCH  17  18
ENDBRANCH   1  17
TORSDOF 4
ENDMDL
MODEL 8
REMARK VINA RESULT:      -6.6      3.097      4.681
REMARK  Name = 
REMARK  7 active torsions:
REMARK  status: ('A' for Active; 'I' for Inactive)
REMARK    1  A    between atoms: C_1  and  C_2
REMARK    2  A    between atoms: C_2  and  C_3
REMARK    3  A    between atoms: C_2  and  C_4
REMARK    4  A    between atoms: C_2  and  O_5
REMARK    5  A    between atoms: O_5  and  C_6
REMARK    6  A    between atoms: C_6  and  C_7
REMARK    7  A    between atoms: C_14  and  C_15
REMARK                            x       y       z     vdW  Elec       q    Type
REMARK                         _______ _______ _______ _____ _____    ______ ____
ROOT
ATOM      1  C   UNL     1       5.132   4.529  15.517  0.00  0.00    +0.000 C 
ATOM      2  C   UNL     1       4.646   5.848  16.117  0.00  0.00    +0.000 C 
ATOM      3  N   UNL     1       5.414   5.899  17.335  0.00  0.00    +0.000 N 
ATOM      4  C   UNL     1       6.620   6.594  17.323  0.00  0.00    +0.000 C 
ATOM      5  O   UNL     1       6.810   7.677  16.784  0.00  0.00    +0.000 OA
ATOM      6  C   UNL     1       7.707   5.726  17.898  0.00  0.00    +0.000 C 
ATOM      7  C   UNL     1       6.995   4.490  18.412  0.00  0.00    +0.000 C 
ATOM      8  C   UNL     1       5.585   4.567  17.830  0.00  0.00    +0.000 C 
ATOM      9  O   UNL     1       5.476   3.716  16.671  0.00  0.00    +0.000 OA
ENDROOT
BRANCH   8  10
ATOM     10  C   UNL     1       4.553   4.186  18.890  0.00  0.00    +0.000 A 
ATOM     11  C   UNL     1       4.293   2.835  19.200  0.00  0.00    +0.000 A 
ATOM     12  C   UNL     1       3.286   2.482  20.105  0.00  0.00    +0.000 A 
ATOM     13  C   UNL     1       2.522   3.475  20.710  0.00  0.00    +0.000 A 
ATOM     14 CL   UNL     1       1.270   3.043  21.808  0.00  0.00    +0.000 Cl
ATOM     15  C   UNL     1       2.759   4.816  20.421  0.00  0.00    +0.000 A 
ATOM     16  C   UNL     1       3.764   5.168  19.513  0.00  0.00    +0.000 A 
ENDBRANCH   8  10
BRANCH   1  17
ATOM     17  C   UNL     1       6.369   4.767  14.625  0.00  0.00    +0.000 C 
BRANCH  17  18
ATOM     18  O   UNL     1       6.747   3.623  13.852  0.00  0.00    +0.000 OA
BRANCH  18  20
ATOM     19  C   UNL     1       7.244   4.983  11.852  0.00  0.00    +0.000 C 
ATOM     20  C   UNL     1       6.528   3.753  12.424  0.00  0.00    +0.000 C 
ATOM     21  C   UNL     1       5.029   3.794  12.087  0.00  0.00    +0.000 C 
ATOM     22  C   UNL     1       7.141   2.510  11.763  0.00  0.00    +0.000 C 
ENDBRANCH  18  20
ENDBRANCH  17  18
ENDBRANCH   1  17
TORSDOF 4
ENDMDL
MODEL 9
REMARK VINA RESULT:      -6.6      3.101      4.662
REMARK  Name = 
REMARK  7 active torsions:
REMARK  status: ('A' for Active; 'I' for Inactive)
REMARK    1  A    between atoms: C_1  and  C_2
REMARK    2  A    between atoms: C_2  and  C_3
REMARK    3  A    between atoms: C_2  and  C_4
REMARK    4  A    between atoms: C_2  and  O_5
REMARK    5  A    between atoms: O_5  and  C_6
REMARK    6  A    between atoms: C_6  and  C_7
REMARK    7  A    between atoms: C_14  and  C_15
REMARK                            x       y       z     vdW  Elec       q    Type
REMARK                         _______ _______ _______ _____ _____    ______ ____
ROOT
ATOM      1  C   UNL     1       5.280   4.575  15.231  0.00  0.00    +0.000 C 
ATOM      2  C   UNL     1       4.806   5.905  15.815  0.00  0.00    +0.000 C 
ATOM      3  N   UNL     1       5.456   5.891  17.101  0.00  0.00    +0.000 N 
ATOM      4  C   UNL     1       6.691   6.522  17.220  0.00  0.00    +0.000 C 
ATOM      5  O   UNL     1       6.985   7.604  16.729  0.00  0.00    +0.000 OA
ATOM      6  C   UNL     1       7.674   5.587  17.872  0.00  0.00    +0.000 C 
ATOM      7  C   UNL     1       6.856   4.379  18.286  0.00  0.00    +0.000 C 
ATOM      8  C   UNL     1       5.513   4.542  17.577  0.00  0.00    +0.000 C 
ATOM      9  O   UNL     1       5.471   3.722  16.391  0.00  0.00    +0.000 OA
ENDROOT
BRANCH   8  10
ATOM     10  C   UNL     1       4.367   4.194  18.525  0.00  0.00    +0.000 A 
ATOM     11  C   UNL     1       3.863   5.143  19.437  0.00  0.00    +0.000 A 
ATOM     12  C   UNL     1       2.874   4.800  20.365  0.00  0.00    +0.000 A 
ATOM     13  C   UNL     1       2.378   3.501  20.397  0.00  0.00    +0.000 A 
ATOM     14 CL   UNL     1       1.176   3.070  21.551  0.00  0.00    +0.000 Cl
ATOM     15  C   UNL     1       2.857   2.545  19.506  0.00  0.00    +0.000 A 
ATOM     16  C   UNL     1       3.849   2.888  18.580  0.00  0.00    +0.000 A 
ENDBRANCH   8  10
BRANCH   1  17
ATOM     17  C   UNL     1       6.606   4.766  14.465  0.00  0.00    +0.000 C 
BRANCH  17  18
ATOM     18  O   UNL     1       6.998   3.621  13.701  0.00  0.00    +0.000 OA
BRANCH  18  20
ATOM     19  C   UNL     1       5.139   3.727  12.080  0.00  0.00    +0.000 C 
ATOM     20  C   UNL     1       6.657   3.682  12.293  0.00  0.00    +0.000 C 
ATOM     21  C   UNL     1       7.279   2.512  11.513  0.00  0.00    +0.000 C 
ATOM     22  C   UNL     1       7.241   4.994  11.749  0.00  0.00    +0.000 C 
ENDBRANCH  18  20
ENDBRANCH  17  18
ENDBRANCH   1  17
TORSDOF 4
ENDMDL
