MODEL 1
REMARK VINA RESULT:      -7.1      0.000      0.000
REMARK  Name = 
REMARK  8 active torsions:
REMARK  status: ('A' for Active; 'I' for Inactive)
REMARK    1  A    between atoms: C_1  and  C_2
REMARK    2  A    between atoms: C_6  and  C_7
REMARK    3  A    between atoms: N_9  and  C_10
REMARK    4  A    between atoms: N_9  and  C_18
REMARK    5  A    between atoms: C_10  and  C_11
REMARK    6  A    between atoms: C_18  and  C_19
REMARK    7  A    between atoms: C_18  and  C_20
REMARK    8  A    between atoms: C_30  and  N_31
REMARK                            x       y       z     vdW  Elec       q    Type
REMARK                         _______ _______ _______ _____ _____    ______ ____
ROOT
ATOM      1  C   UNL     1       0.284  10.424  18.885  0.00  0.00    +0.000 C 
ATOM      2  O   UNL     1      -0.732  10.199  18.216  0.00  0.00    +0.000 OA
ATOM      3  N   UNL     1       0.428  11.647  19.560  0.00  0.00    +0.000 N 
ENDROOT
BRANCH   1   9
ATOM      4  C   UNL     1       2.227   3.762  21.536  0.00  0.00    +0.000 C 
ATOM      5  C   UNL     1       2.396   4.876  20.550  0.00  0.00    +0.000 A 
ATOM      6  C   UNL     1       1.757   6.107  20.741  0.00  0.00    +0.000 A 
ATOM      7  C   UNL     1       1.905   7.131  19.796  0.00  0.00    +0.000 A 
ATOM      8  C   UNL     1       1.178   8.337  19.860  0.00  0.00    +0.000 A 
ATOM      9  C   UNL     1       1.300   9.325  18.865  0.00  0.00    +0.000 A 
ATOM     10  C   UNL     1       2.242   9.115  17.860  0.00  0.00    +0.000 A 
ATOM     11  C   UNL     1       2.981   7.924  17.815  0.00  0.00    +0.000 A 
ATOM     12  C   UNL     1       2.781   6.901  18.726  0.00  0.00    +0.000 A 
ATOM     13  N   UNL     1       3.386   5.720  18.524  0.00  0.00    +0.000 NA
ATOM     14  C   UNL     1       3.150   4.719  19.389  0.00  0.00    +0.000 A 
BRANCH  14  15
ATOM     15  N   UNL     1       3.625   3.473  18.991  0.00  0.00    +0.000 N 
ATOM     16  H   UNL     1       4.247   3.627  18.202  0.00  0.00    +0.000 HD
ATOM     17  H   UNL     1       4.059   2.951  19.739  0.00  0.00    +0.000 HD
ENDBRANCH  14  15
ENDBRANCH   1   9
BRANCH   3  18
ATOM     18  C   UNL     1      -0.807  12.488  19.608  0.00  0.00    +0.000 C 
ATOM     19  C   UNL     1      -0.779  13.713  18.690  0.00  0.00    +0.000 C 
BRANCH  18  20
ATOM     20  C   UNL     1      -1.180  12.893  21.039  0.00  0.00    +0.000 A 
ATOM     21  N   UNL     1      -0.972  14.175  21.410  0.00  0.00    +0.000 NA
ATOM     22  C   UNL     1      -1.351  14.509  22.658  0.00  0.00    +0.000 A 
ATOM     23  C   UNL     1      -1.899  13.620  23.554  0.00  0.00    +0.000 A 
ATOM     24  C   UNL     1      -2.043  12.334  23.100  0.00  0.00    +0.000 A 
ATOM     25  N   UNL     1      -1.691  11.947  21.860  0.00  0.00    +0.000 NA
ENDBRANCH  18  20
ENDBRANCH   3  18
BRANCH   3  26
ATOM     26  C   UNL     1       1.487  11.963  20.531  0.00  0.00    +0.000 C 
BRANCH  26  27
ATOM     27  C   UNL     1       2.438  13.076  20.122  0.00  0.00    +0.000 A 
ATOM     28  C   UNL     1       2.765  13.341  18.789  0.00  0.00    +0.000 A 
ATOM     29  C   UNL     1       3.596  14.418  18.487  0.00  0.00    +0.000 A 
ATOM     30  C   UNL     1       4.091  15.201  19.521  0.00  0.00    +0.000 A 
ATOM     31 BR   UNL     1       5.161  16.709  19.159  0.00  0.00    +0.000 Br
ATOM     32  C   UNL     1       3.760  14.857  20.819  0.00  0.00    +0.000 A 
ATOM     33  N   UNL     1       2.954  13.815  21.139  0.00  0.00    +0.000 NA
ENDBRANCH  26  27
ENDBRANCH   3  26
TORSDOF 6
ENDMDL
MODEL 2
REMARK VINA RESULT:      -7.0      2.985      4.900
REMARK  Name = 
REMARK  8 active torsions:
REMARK  status: ('A' for Active; 'I' for Inactive)
REMARK    1  A    between atoms: C_1  and  C_2
REMARK    2  A    between atoms: C_6  and  C_7
REMARK    3  A    between atoms: N_9  and  C_10
REMARK    4  A    between atoms: N_9  and  C_18
REMARK    5  A    between atoms: C_10  and  C_11
REMARK    6  A    between atoms: C_18  and  C_19
REMARK    7  A    between atoms: C_18  and  C_20
REMARK    8  A    between atoms: C_30  and  N_31
REMARK                            x       y       z     vdW  Elec       q    Type
REMARK                         _______ _______ _______ _____ _____    ______ ____
ROOT
ATOM      1  C   UNL     1       1.164   9.524  21.106  0.00  0.00    +0.000 C 
ATOM      2  O   UNL     1       1.481   9.577  22.299  0.00  0.00    +0.000 OA
ATOM      3  N   UNL     1       0.546  10.625  20.490  0.00  0.00    +0.000 N 
ENDROOT
BRANCH   1   9
ATOM      4  C   UNL     1       5.179   6.005  15.940  0.00  0.00    +0.000 C 
ATOM      5  C   UNL     1       4.268   5.980  17.129  0.00  0.00    +0.000 A 
ATOM      6  C   UNL     1       3.629   7.145  17.567  0.00  0.00    +0.000 A 
ATOM      7  C   UNL     1       2.800   7.111  18.697  0.00  0.00    +0.000 A 
ATOM      8  C   UNL     1       2.243   8.273  19.268  0.00  0.00    +0.000 A 
ATOM      9  C   UNL     1       1.462   8.218  20.438  0.00  0.00    +0.000 A 
ATOM     10  C   UNL     1       1.173   6.960  20.962  0.00  0.00    +0.000 A 
ATOM     11  C   UNL     1       1.709   5.805  20.374  0.00  0.00    +0.000 A 
ATOM     12  C   UNL     1       2.571   5.863  19.292  0.00  0.00    +0.000 A 
ATOM     13  N   UNL     1       3.191   4.742  18.890  0.00  0.00    +0.000 NA
ATOM     14  C   UNL     1       4.060   4.818  17.868  0.00  0.00    +0.000 A 
BRANCH  14  15
ATOM     15  N   UNL     1       4.826   3.675  17.662  0.00  0.00    +0.000 N 
ATOM     16  H   UNL     1       5.034   3.284  18.577  0.00  0.00    +0.000 HD
ATOM     17  H   UNL     1       4.392   3.009  17.038  0.00  0.00    +0.000 HD
ENDBRANCH  14  15
ENDBRANCH   1   9
BRANCH   3  18
ATOM     18  C   UNL     1       0.553  11.883  21.297  0.00  0.00    +0.000 C 
ATOM     19  C   UNL     1      -0.794  12.240  21.931  0.00  0.00    +0.000 C 
BRANCH  18  20
ATOM     20  C   UNL     1       1.115  13.075  20.513  0.00  0.00    +0.000 A 
ATOM     21  N   UNL     1       0.293  14.118  20.270  0.00  0.00    +0.000 NA
ATOM     22  C   UNL     1       0.828  15.168  19.619  0.00  0.00    +0.000 A 
ATOM     23  C   UNL     1       2.131  15.209  19.177  0.00  0.00    +0.000 A 
ATOM     24  C   UNL     1       2.881  14.091  19.441  0.00  0.00    +0.000 A 
ATOM     25  N   UNL     1       2.401  13.020  20.098  0.00  0.00    +0.000 NA
ENDBRANCH  18  20
ENDBRANCH   3  18
BRANCH   3  26
ATOM     26  C   UNL     1       0.293  10.762  19.047  0.00  0.00    +0.000 C 
BRANCH  26  27
ATOM     27  C   UNL     1      -1.171  10.810  18.642  0.00  0.00    +0.000 A 
ATOM     28  C   UNL     1      -1.799   9.776  17.944  0.00  0.00    +0.000 A 
ATOM     29  C   UNL     1      -3.161   9.865  17.662  0.00  0.00    +0.000 A 
ATOM     30  C   UNL     1      -3.864  10.988  18.074  0.00  0.00    +0.000 A 
ATOM     31 BR   UNL     1      -5.720  11.124  17.779  0.00  0.00    +0.000 Br
ATOM     32  C   UNL     1      -3.171  11.992  18.725  0.00  0.00    +0.000 A 
ATOM     33  N   UNL     1      -1.848  11.930  19.010  0.00  0.00    +0.000 NA
ENDBRANCH  26  27
ENDBRANCH   3  26
TORSDOF 6
ENDMDL
MODEL 3
REMARK VINA RESULT:      -7.0      4.380      9.759
REMARK  Name = 
REMARK  8 active torsions:
REMARK  status: ('A' for Active; 'I' for Inactive)
REMARK    1  A    between atoms: C_1  and  C_2
REMARK    2  A    between atoms: C_6  and  C_7
REMARK    3  A    between atoms: N_9  and  C_10
REMARK    4  A    between atoms: N_9  and  C_18
REMARK    5  A    between atoms: C_10  and  C_11
REMARK    6  A    between atoms: C_18  and  C_19
REMARK    7  A    between atoms: C_18  and  C_20
REMARK    8  A    between atoms: C_30  and  N_31
REMARK                            x       y       z     vdW  Elec       q    Type
REMARK                         _______ _______ _______ _____ _____    ______ ____
ROOT
ATOM      1  C   UNL     1       4.420   6.441  17.590  0.00  0.00    +0.000 C 
ATOM      2  O   UNL     1       5.494   7.035  17.731  0.00  0.00    +0.000 OA
ATOM      3  N   UNL     1       4.398   5.135  17.073  0.00  0.00    +0.000 N 
ENDROOT
BRANCH   1   9
ATOM      4  C   UNL     1       0.328   9.140  23.172  0.00  0.00    +0.000 C 
ATOM      5  C   UNL     1       0.690   9.095  21.720  0.00  0.00    +0.000 A 
ATOM      6  C   UNL     1       1.532   8.095  21.220  0.00  0.00    +0.000 A 
ATOM      7  C   UNL     1       1.882   8.082  19.863  0.00  0.00    +0.000 A 
ATOM      8  C   UNL     1       2.834   7.189  19.331  0.00  0.00    +0.000 A 
ATOM      9  C   UNL     1       3.211   7.236  17.975  0.00  0.00    +0.000 A 
ATOM     10  C   UNL     1       2.539   8.133  17.149  0.00  0.00    +0.000 A 
ATOM     11  C   UNL     1       1.574   9.002  17.679  0.00  0.00    +0.000 A 
ATOM     12  C   UNL     1       1.282   9.039  19.032  0.00  0.00    +0.000 A 
ATOM     13  N   UNL     1       0.486  10.011  19.503  0.00  0.00    +0.000 NA
ATOM     14  C   UNL     1       0.246  10.065  20.824  0.00  0.00    +0.000 A 
BRANCH  14  15
ATOM     15  N   UNL     1      -0.393  11.223  21.259  0.00  0.00    +0.000 N 
ATOM     16  H   UNL     1      -0.235  11.936  20.552  0.00  0.00    +0.000 HD
ATOM     17  H   UNL     1      -1.371  11.085  21.469  0.00  0.00    +0.000 HD
ENDBRANCH  14  15
ENDBRANCH   1   9
BRANCH   3  18
ATOM     18  C   UNL     1       5.736   4.478  16.968  0.00  0.00    +0.000 C 
ATOM     19  C   UNL     1       6.781   4.998  17.961  0.00  0.00    +0.000 C 
BRANCH  18  20
ATOM     20  C   UNL     1       6.289   4.504  15.539  0.00  0.00    +0.000 A 
ATOM     21  N   UNL     1       5.733   3.677  14.628  0.00  0.00    +0.000 NA
ATOM     22  C   UNL     1       6.210   3.756  13.372  0.00  0.00    +0.000 A 
ATOM     23  C   UNL     1       7.232   4.598  12.995  0.00  0.00    +0.000 A 
ATOM     24  C   UNL     1       7.757   5.377  13.994  0.00  0.00    +0.000 A 
ATOM     25  N   UNL     1       7.310   5.347  15.263  0.00  0.00    +0.000 NA
ENDBRANCH  18  20
ENDBRANCH   3  18
BRANCH   3  26
ATOM     26  C   UNL     1       3.219   4.255  17.032  0.00  0.00    +0.000 C 
BRANCH  26  27
ATOM     27  C   UNL     1       2.666   3.841  18.386  0.00  0.00    +0.000 A 
ATOM     28  C   UNL     1       1.318   3.982  18.728  0.00  0.00    +0.000 A 
ATOM     29  C   UNL     1       0.874   3.522  19.967  0.00  0.00    +0.000 A 
ATOM     30  C   UNL     1       1.783   2.941  20.838  0.00  0.00    +0.000 A 
ATOM     31 BR   UNL     1       1.217   2.240  22.494  0.00  0.00    +0.000 Br
ATOM     32  C   UNL     1       3.108   2.870  20.451  0.00  0.00    +0.000 A 
ATOM     33  N   UNL     1       3.567   3.311  19.254  0.00  0.00    +0.000 NA
ENDBRANCH  26  27
ENDBRANCH   3  26
TORSDOF 6
ENDMDL
MODEL 4
REMARK VINA RESULT:      -7.0      0.515      1.209
REMARK  Name = 
REMARK  8 active torsions:
REMARK  status: ('A' for Active; 'I' for Inactive)
REMARK    1  A    between atoms: C_1  and  C_2
REMARK    2  A    between atoms: C_6  and  C_7
REMARK    3  A    between atoms: N_9  and  C_10
REMARK    4  A    between atoms: N_9  and  C_18
REMARK    5  A    between atoms: C_10  and  C_11
REMARK    6  A    between atoms: C_18  and  C_19
REMARK    7  A    between atoms: C_18  and  C_20
REMARK    8  A    between atoms: C_30  and  N_31
REMARK                            x       y       z     vdW  Elec       q    Type
REMARK                         _______ _______ _______ _____ _____    ______ ____
ROOT
ATOM      1  C   UNL     1       0.351  10.368  18.830  0.00  0.00    +0.000 C 
ATOM      2  O   UNL     1      -0.670  10.137  18.173  0.00  0.00    +0.000 OA
ATOM      3  N   UNL     1       0.508  11.604  19.479  0.00  0.00    +0.000 N 
ENDROOT
BRANCH   1   9
ATOM      4  C   UNL     1       2.239   3.721  21.555  0.00  0.00    +0.000 C 
ATOM      5  C   UNL     1       2.420   4.824  20.558  0.00  0.00    +0.000 A 
ATOM      6  C   UNL     1       1.788   6.060  20.735  0.00  0.00    +0.000 A 
ATOM      7  C   UNL     1       1.947   7.074  19.780  0.00  0.00    +0.000 A 
ATOM      8  C   UNL     1       1.227   8.285  19.829  0.00  0.00    +0.000 A 
ATOM      9  C   UNL     1       1.361   9.263  18.825  0.00  0.00    +0.000 A 
ATOM     10  C   UNL     1       2.305   9.037  17.827  0.00  0.00    +0.000 A 
ATOM     11  C   UNL     1       3.037   7.841  17.797  0.00  0.00    +0.000 A 
ATOM     12  C   UNL     1       2.826   6.828  18.717  0.00  0.00    +0.000 A 
ATOM     13  N   UNL     1       3.424   5.642  18.529  0.00  0.00    +0.000 NA
ATOM     14  C   UNL     1       3.178   4.651  19.403  0.00  0.00    +0.000 A 
BRANCH  14  15
ATOM     15  N   UNL     1       3.646   3.397  19.019  0.00  0.00    +0.000 N 
ATOM     16  H   UNL     1       4.631   3.503  18.786  0.00  0.00    +0.000 HD
ATOM     17  H   UNL     1       3.479   2.679  19.708  0.00  0.00    +0.000 HD
ENDBRANCH  14  15
ENDBRANCH   1   9
BRANCH   3  18
ATOM     18  C   UNL     1      -0.721  12.454  19.519  0.00  0.00    +0.000 C 
ATOM     19  C   UNL     1      -0.680  13.677  18.598  0.00  0.00    +0.000 C 
BRANCH  18  20
ATOM     20  C   UNL     1      -1.100  12.864  20.946  0.00  0.00    +0.000 A 
ATOM     21  N   UNL     1      -1.551  11.906  21.784  0.00  0.00    +0.000 NA
ATOM     22  C   UNL     1      -1.833  12.290  23.043  0.00  0.00    +0.000 A 
ATOM     23  C   UNL     1      -1.714  13.586  23.490  0.00  0.00    +0.000 A 
ATOM     24  C   UNL     1      -1.281  14.497  22.561  0.00  0.00    +0.000 A 
ATOM     25  N   UNL     1      -0.974  14.166  21.293  0.00  0.00    +0.000 NA
ENDBRANCH  18  20
ENDBRANCH   3  18
BRANCH   3  26
ATOM     26  C   UNL     1       1.575  11.933  20.437  0.00  0.00    +0.000 C 
BRANCH  26  27
ATOM     27  C   UNL     1       2.402  13.162  20.096  0.00  0.00    +0.000 A 
ATOM     28  C   UNL     1       2.727  14.141  21.039  0.00  0.00    +0.000 A 
ATOM     29  C   UNL     1       3.543  15.209  20.665  0.00  0.00    +0.000 A 
ATOM     30  C   UNL     1       4.007  15.281  19.360  0.00  0.00    +0.000 A 
ATOM     31 BR   UNL     1       5.168  16.666  18.827  0.00  0.00    +0.000 Br
ATOM     32  C   UNL     1       3.613  14.299  18.470  0.00  0.00    +0.000 A 
ATOM     33  N   UNL     1       2.821  13.252  18.806  0.00  0.00    +0.000 NA
ENDBRANCH  26  27
ENDBRANCH   3  26
TORSDOF 6
ENDMDL
MODEL 5
REMARK VINA RESULT:      -6.8      3.171      4.732
REMARK  Name = 
REMARK  8 active torsions:
REMARK  status: ('A' for Active; 'I' for Inactive)
REMARK    1  A    between atoms: C_1  and  C_2
REMARK    2  A    between atoms: C_6  and  C_7
REMARK    3  A    between atoms: N_9  and  C_10
REMARK    4  A    between atoms: N_9  and  C_18
REMARK    5  A    between atoms: C_10  and  C_11
REMARK    6  A    between atoms: C_18  and  C_19
REMARK    7  A    between atoms: C_18  and  C_20
REMARK    8  A    between atoms: C_30  and  N_31
REMARK                            x       y       z     vdW  Elec       q    Type
REMARK                         _______ _______ _______ _____ _____    ______ ____
ROOT
ATOM      1  C   UNL     1       0.476  11.234  19.687  0.00  0.00    +0.000 C 
ATOM      2  O   UNL     1       1.417  12.036  19.712  0.00  0.00    +0.000 OA
ATOM      3  N   UNL     1      -0.849  11.700  19.679  0.00  0.00    +0.000 N 
ENDROOT
BRANCH   1   9
ATOM      4  C   UNL     1       4.729   5.984  16.599  0.00  0.00    +0.000 C 
ATOM      5  C   UNL     1       3.839   6.462  17.705  0.00  0.00    +0.000 A 
ATOM      6  C   UNL     1       3.102   7.645  17.572  0.00  0.00    +0.000 A 
ATOM      7  C   UNL     1       2.294   8.092  18.626  0.00  0.00    +0.000 A 
ATOM      8  C   UNL     1       1.641   9.341  18.607  0.00  0.00    +0.000 A 
ATOM      9  C   UNL     1       0.883   9.793  19.704  0.00  0.00    +0.000 A 
ATOM     10  C   UNL     1       0.716   8.920  20.776  0.00  0.00    +0.000 A 
ATOM     11  C   UNL     1       1.347   7.667  20.779  0.00  0.00    +0.000 A 
ATOM     12  C   UNL     1       2.186   7.266  19.754  0.00  0.00    +0.000 A 
ATOM     13  N   UNL     1       2.900   6.139  19.898  0.00  0.00    +0.000 NA
ATOM     14  C   UNL     1       3.746   5.782  18.916  0.00  0.00    +0.000 A 
BRANCH  14  15
ATOM     15  N   UNL     1       4.611   4.738  19.236  0.00  0.00    +0.000 N 
ATOM     16  H   UNL     1       4.108   4.113  19.861  0.00  0.00    +0.000 HD
ATOM     17  H   UNL     1       4.986   4.267  18.425  0.00  0.00    +0.000 HD
ENDBRANCH  14  15
ENDBRANCH   1   9
BRANCH   3  18
ATOM     18  C   UNL     1      -0.997  13.169  19.446  0.00  0.00    +0.000 C 
ATOM     19  C   UNL     1      -0.194  13.710  18.259  0.00  0.00    +0.000 C 
BRANCH  18  20
ATOM     20  C   UNL     1      -0.715  13.991  20.708  0.00  0.00    +0.000 A 
ATOM     21  N   UNL     1      -0.118  15.194  20.563  0.00  0.00    +0.000 NA
ATOM     22  C   UNL     1       0.075  15.910  21.686  0.00  0.00    +0.000 A 
ATOM     23  C   UNL     1      -0.273  15.469  22.942  0.00  0.00    +0.000 A 
ATOM     24  C   UNL     1      -0.844  14.224  22.996  0.00  0.00    +0.000 A 
ATOM     25  N   UNL     1      -1.071  13.470  21.905  0.00  0.00    +0.000 NA
ENDBRANCH  18  20
ENDBRANCH   3  18
BRANCH   3  26
ATOM     26  C   UNL     1      -2.043  10.868  19.462  0.00  0.00    +0.000 C 
BRANCH  26  27
ATOM     27  C   UNL     1      -2.446  10.670  18.010  0.00  0.00    +0.000 A 
ATOM     28  C   UNL     1      -1.757   9.820  17.142  0.00  0.00    +0.000 A 
ATOM     29  C   UNL     1      -2.225   9.642  15.840  0.00  0.00    +0.000 A 
ATOM     30  C   UNL     1      -3.362  10.323  15.432  0.00  0.00    +0.000 A 
ATOM     31 BR   UNL     1      -4.072  10.063  13.706  0.00  0.00    +0.000 Br
ATOM     32  C   UNL     1      -3.970  11.180  16.331  0.00  0.00    +0.000 A 
ATOM     33  N   UNL     1      -3.536  11.371  17.600  0.00  0.00    +0.000 NA
ENDBRANCH  26  27
ENDBRANCH   3  26
TORSDOF 6
ENDMDL
MODEL 6
REMARK VINA RESULT:      -6.8      3.356      5.534
REMARK  Name = 
REMARK  8 active torsions:
REMARK  status: ('A' for Active; 'I' for Inactive)
REMARK    1  A    between atoms: C_1  and  C_2
REMARK    2  A    between atoms: C_6  and  C_7
REMARK    3  A    between atoms: N_9  and  C_10
REMARK    4  A    between atoms: N_9  and  C_18
REMARK    5  A    between atoms: C_10  and  C_11
REMARK    6  A    between atoms: C_18  and  C_19
REMARK    7  A    between atoms: C_18  and  C_20
REMARK    8  A    between atoms: C_30  and  N_31
REMARK                            x       y       z     vdW  Elec       q    Type
REMARK                         _______ _______ _______ _____ _____    ______ ____
ROOT
ATOM      1  C   UNL     1       0.493  12.533  20.768  0.00  0.00    +0.000 C 
ATOM      2  O   UNL     1       1.083  13.048  21.724  0.00  0.00    +0.000 OA
ATOM      3  N   UNL     1      -0.137  13.341  19.808  0.00  0.00    +0.000 N 
ENDROOT
BRANCH   1   9
ATOM      4  C   UNL     1       3.326   6.359  17.761  0.00  0.00    +0.000 C 
ATOM      5  C   UNL     1       2.541   7.049  18.833  0.00  0.00    +0.000 A 
ATOM      6  C   UNL     1       2.160   8.388  18.694  0.00  0.00    +0.000 A 
ATOM      7  C   UNL     1       1.447   9.027  19.718  0.00  0.00    +0.000 A 
ATOM      8  C   UNL     1       1.159  10.407  19.699  0.00  0.00    +0.000 A 
ATOM      9  C   UNL     1       0.493  11.035  20.768  0.00  0.00    +0.000 A 
ATOM     10  C   UNL     1       0.037  10.229  21.808  0.00  0.00    +0.000 A 
ATOM     11  C   UNL     1       0.304   8.852  21.809  0.00  0.00    +0.000 A 
ATOM     12  C   UNL     1       1.058   8.249  20.817  0.00  0.00    +0.000 A 
ATOM     13  N   UNL     1       1.431   6.968  20.968  0.00  0.00    +0.000 NA
ATOM     14  C   UNL     1       2.201   6.406  20.021  0.00  0.00    +0.000 A 
BRANCH  14  15
ATOM     15  N   UNL     1       2.731   5.163  20.356  0.00  0.00    +0.000 N 
ATOM     16  H   UNL     1       3.513   5.330  20.984  0.00  0.00    +0.000 HD
ATOM     17  H   UNL     1       2.048   4.526  20.738  0.00  0.00    +0.000 HD
ENDBRANCH  14  15
ENDBRANCH   1   9
BRANCH   3  18
ATOM     18  C   UNL     1       0.186  14.798  19.903  0.00  0.00    +0.000 C 
ATOM     19  C   UNL     1      -1.008  15.731  19.678  0.00  0.00    +0.000 C 
BRANCH  18  20
ATOM     20  C   UNL     1       1.360  15.195  19.002  0.00  0.00    +0.000 A 
ATOM     21  N   UNL     1       1.355  16.432  18.460  0.00  0.00    +0.000 NA
ATOM     22  C   UNL     1       2.421  16.766  17.710  0.00  0.00    +0.000 A 
ATOM     23  C   UNL     1       3.472  15.914  17.454  0.00  0.00    +0.000 A 
ATOM     24  C   UNL     1       3.375  14.668  18.019  0.00  0.00    +0.000 A 
ATOM     25  N   UNL     1       2.339  14.286  18.787  0.00  0.00    +0.000 NA
ENDBRANCH  18  20
ENDBRANCH   3  18
BRANCH   3  26
ATOM     26  C   UNL     1      -0.704  12.868  18.536  0.00  0.00    +0.000 C 
BRANCH  26  27
ATOM     27  C   UNL     1      -2.138  12.368  18.605  0.00  0.00    +0.000 A 
ATOM     28  C   UNL     1      -2.986  12.647  19.681  0.00  0.00    +0.000 A 
ATOM     29  C   UNL     1      -4.308  12.206  19.645  0.00  0.00    +0.000 A 
ATOM     30  C   UNL     1      -4.752  11.492  18.543  0.00  0.00    +0.000 A 
ATOM     31 BR   UNL     1      -6.549  10.936  18.415  0.00  0.00    +0.000 Br
ATOM     32  C   UNL     1      -3.849  11.217  17.532  0.00  0.00    +0.000 A 
ATOM     33  N   UNL     1      -2.559  11.633  17.543  0.00  0.00    +0.000 NA
ENDBRANCH  26  27
ENDBRANCH   3  26
TORSDOF 6
ENDMDL
MODEL 7
REMARK VINA RESULT:      -6.8      2.994      4.415
REMARK  Name = 
REMARK  8 active torsions:
REMARK  status: ('A' for Active; 'I' for Inactive)
REMARK    1  A    between atoms: C_1  and  C_2
REMARK    2  A    between atoms: C_6  and  C_7
REMARK    3  A    between atoms: N_9  and  C_10
REMARK    4  A    between atoms: N_9  and  C_18
REMARK    5  A    between atoms: C_10  and  C_11
REMARK    6  A    between atoms: C_18  and  C_19
REMARK    7  A    between atoms: C_18  and  C_20
REMARK    8  A    between atoms: C_30  and  N_31
REMARK                            x       y       z     vdW  Elec       q    Type
REMARK                         _______ _______ _______ _____ _____    ______ ____
ROOT
ATOM      1  C   UNL     1       0.923   9.731  21.383  0.00  0.00    +0.000 C 
ATOM      2  O   UNL     1       1.119   9.551  22.590  0.00  0.00    +0.000 OA
ATOM      3  N   UNL     1       0.154  10.822  20.947  0.00  0.00    +0.000 N 
ENDROOT
BRANCH   1   9
ATOM      4  C   UNL     1       2.056   2.481  20.227  0.00  0.00    +0.000 C 
ATOM      5  C   UNL     1       2.075   3.899  19.747  0.00  0.00    +0.000 A 
ATOM      6  C   UNL     1       1.902   4.961  20.642  0.00  0.00    +0.000 A 
ATOM      7  C   UNL     1       1.897   6.282  20.173  0.00  0.00    +0.000 A 
ATOM      8  C   UNL     1       1.587   7.382  21.000  0.00  0.00    +0.000 A 
ATOM      9  C   UNL     1       1.531   8.693  20.491  0.00  0.00    +0.000 A 
ATOM     10  C   UNL     1       1.888   8.884  19.158  0.00  0.00    +0.000 A 
ATOM     11  C   UNL     1       2.220   7.789  18.347  0.00  0.00    +0.000 A 
ATOM     12  C   UNL     1       2.165   6.487  18.813  0.00  0.00    +0.000 A 
ATOM     13  N   UNL     1       2.317   5.475  17.944  0.00  0.00    +0.000 NA
ATOM     14  C   UNL     1       2.218   4.215  18.398  0.00  0.00    +0.000 A 
BRANCH  14  15
ATOM     15  N   UNL     1       2.157   3.236  17.410  0.00  0.00    +0.000 N 
ATOM     16  H   UNL     1       3.005   3.318  16.854  0.00  0.00    +0.000 HD
ATOM     17  H   UNL     1       2.015   2.306  17.776  0.00  0.00    +0.000 HD
ENDBRANCH  14  15
ENDBRANCH   1   9
BRANCH   3  18
ATOM     18  C   UNL     1      -0.159  11.833  22.003  0.00  0.00    +0.000 C 
ATOM     19  C   UNL     1      -1.625  11.857  22.448  0.00  0.00    +0.000 C 
BRANCH  18  20
ATOM     20  C   UNL     1       0.313  13.240  21.621  0.00  0.00    +0.000 A 
ATOM     21  N   UNL     1      -0.624  14.196  21.439  0.00  0.00    +0.000 NA
ATOM     22  C   UNL     1      -0.175  15.431  21.147  0.00  0.00    +0.000 A 
ATOM     23  C   UNL     1       1.157  15.745  21.002  0.00  0.00    +0.000 A 
ATOM     24  C   UNL     1       2.033  14.704  21.173  0.00  0.00    +0.000 A 
ATOM     25  N   UNL     1       1.641  13.453  21.476  0.00  0.00    +0.000 NA
ENDBRANCH  18  20
ENDBRANCH   3  18
BRANCH   3  26
ATOM     26  C   UNL     1       0.003  11.253  19.548  0.00  0.00    +0.000 C 
BRANCH  26  27
ATOM     27  C   UNL     1      -1.412  11.196  18.995  0.00  0.00    +0.000 A 
ATOM     28  C   UNL     1      -1.879  10.132  18.218  0.00  0.00    +0.000 A 
ATOM     29  C   UNL     1      -3.208  10.121  17.799  0.00  0.00    +0.000 A 
ATOM     30  C   UNL     1      -4.039  11.173  18.156  0.00  0.00    +0.000 A 
ATOM     31 BR   UNL     1      -5.860  11.168  17.673  0.00  0.00    +0.000 Br
ATOM     32  C   UNL     1      -3.500  12.212  18.892  0.00  0.00    +0.000 A 
ATOM     33  N   UNL     1      -2.211  12.248  19.311  0.00  0.00    +0.000 NA
ENDBRANCH  26  27
ENDBRANCH   3  26
TORSDOF 6
ENDMDL
MODEL 8
REMARK VINA RESULT:      -6.8      2.872      4.722
REMARK  Name = 
REMARK  8 active torsions:
REMARK  status: ('A' for Active; 'I' for Inactive)
REMARK    1  A    between atoms: C_1  and  C_2
REMARK    2  A    between atoms: C_6  and  C_7
REMARK    3  A    between atoms: N_9  and  C_10
REMARK    4  A    between atoms: N_9  and  C_18
REMARK    5  A    between atoms: C_10  and  C_11
REMARK    6  A    between atoms: C_18  and  C_19
REMARK    7  A    between atoms: C_18  and  C_20
REMARK    8  A    between atoms: C_30  and  N_31
REMARK                            x       y       z     vdW  Elec       q    Type
REMARK                         _______ _______ _______ _____ _____    ______ ____
ROOT
ATOM      1  C   UNL     1       0.926   9.204  21.305  0.00  0.00    +0.000 C 
ATOM      2  O   UNL     1       0.838   9.092  22.533  0.00  0.00    +0.000 OA
ATOM      3  N   UNL     1       0.589  10.416  20.681  0.00  0.00    +0.000 N 
ENDROOT
BRANCH   1   9
ATOM      4  C   UNL     1       5.218   6.352  15.954  0.00  0.00    +0.000 C 
ATOM      5  C   UNL     1       4.349   6.182  17.162  0.00  0.00    +0.000 A 
ATOM      6  C   UNL     1       3.579   7.246  17.647  0.00  0.00    +0.000 A 
ATOM      7  C   UNL     1       2.790   7.078  18.793  0.00  0.00    +0.000 A 
ATOM      8  C   UNL     1       2.106   8.146  19.409  0.00  0.00    +0.000 A 
ATOM      9  C   UNL     1       1.369   7.963  20.595  0.00  0.00    +0.000 A 
ATOM     10  C   UNL     1       1.255   6.666  21.089  0.00  0.00    +0.000 A 
ATOM     11  C   UNL     1       1.917   5.603  20.458  0.00  0.00    +0.000 A 
ATOM     12  C   UNL     1       2.736   5.797  19.359  0.00  0.00    +0.000 A 
ATOM     13  N   UNL     1       3.482   4.775  18.912  0.00  0.00    +0.000 NA
ATOM     14  C   UNL     1       4.308   4.985  17.873  0.00  0.00    +0.000 A 
BRANCH  14  15
ATOM     15  N   UNL     1       5.207   3.954  17.617  0.00  0.00    +0.000 N 
ATOM     16  H   UNL     1       4.957   3.555  16.716  0.00  0.00    +0.000 HD
ATOM     17  H   UNL     1       6.173   4.243  17.666  0.00  0.00    +0.000 HD
ENDBRANCH  14  15
ENDBRANCH   1   9
BRANCH   3  18
ATOM     18  C   UNL     1       0.386  11.568  21.612  0.00  0.00    +0.000 C 
ATOM     19  C   UNL     1      -1.071  11.814  22.014  0.00  0.00    +0.000 C 
BRANCH  18  20
ATOM     20  C   UNL     1       1.028  12.858  21.092  0.00  0.00    +0.000 A 
ATOM     21  N   UNL     1       2.376  12.944  21.096  0.00  0.00    +0.000 NA
ATOM     22  C   UNL     1       2.910  14.072  20.591  0.00  0.00    +0.000 A 
ATOM     23  C   UNL     1       2.162  15.124  20.113  0.00  0.00    +0.000 A 
ATOM     24  C   UNL     1       0.801  14.961  20.178  0.00  0.00    +0.000 A 
ATOM     25  N   UNL     1       0.215  13.851  20.662  0.00  0.00    +0.000 NA
ENDBRANCH  18  20
ENDBRANCH   3  18
BRANCH   3  26
ATOM     26  C   UNL     1       0.826  10.740  19.265  0.00  0.00    +0.000 C 
BRANCH  26  27
ATOM     27  C   UNL     1      -0.411  10.745  18.381  0.00  0.00    +0.000 A 
ATOM     28  C   UNL     1      -1.289  11.829  18.312  0.00  0.00    +0.000 A 
ATOM     29  C   UNL     1      -2.368  11.785  17.431  0.00  0.00    +0.000 A 
ATOM     30  C   UNL     1      -2.552  10.657  16.645  0.00  0.00    +0.000 A 
ATOM     31 BR   UNL     1      -3.954  10.577  15.388  0.00  0.00    +0.000 Br
ATOM     32  C   UNL     1      -1.668   9.604  16.793  0.00  0.00    +0.000 A 
ATOM     33  N   UNL     1      -0.612   9.622  17.642  0.00  0.00    +0.000 NA
ENDBRANCH  26  27
ENDBRANCH   3  26
TORSDOF 6
ENDMDL
MODEL 9
REMARK VINA RESULT:      -6.8      4.348      9.732
REMARK  Name = 
REMARK  8 active torsions:
REMARK  status: ('A' for Active; 'I' for Inactive)
REMARK    1  A    between atoms: C_1  and  C_2
REMARK    2  A    between atoms: C_6  and  C_7
REMARK    3  A    between atoms: N_9  and  C_10
REMARK    4  A    between atoms: N_9  and  C_18
REMARK    5  A    between atoms: C_10  and  C_11
REMARK    6  A    between atoms: C_18  and  C_19
REMARK    7  A    between atoms: C_18  and  C_20
REMARK    8  A    between atoms: C_30  and  N_31
REMARK                            x       y       z     vdW  Elec       q    Type
REMARK                         _______ _______ _______ _____ _____    ______ ____
ROOT
ATOM      1  C   UNL     1       4.284   6.495  17.645  0.00  0.00    +0.000 C 
ATOM      2  O   UNL     1       5.376   7.061  17.771  0.00  0.00    +0.000 OA
ATOM      3  N   UNL     1       4.221   5.186  17.141  0.00  0.00    +0.000 N 
ENDROOT
BRANCH   1   9
ATOM      4  C   UNL     1       0.213   9.215  23.231  0.00  0.00    +0.000 C 
ATOM      5  C   UNL     1       0.595   9.191  21.784  0.00  0.00    +0.000 A 
ATOM      6  C   UNL     1       1.406   8.172  21.272  0.00  0.00    +0.000 A 
ATOM      7  C   UNL     1       1.776   8.178  19.921  0.00  0.00    +0.000 A 
ATOM      8  C   UNL     1       2.701   7.262  19.380  0.00  0.00    +0.000 A 
ATOM      9  C   UNL     1       3.101   7.327  18.032  0.00  0.00    +0.000 A 
ATOM     10  C   UNL     1       2.476   8.270  17.219  0.00  0.00    +0.000 A 
ATOM     11  C   UNL     1       1.538   9.163  17.756  0.00  0.00    +0.000 A 
ATOM     12  C   UNL     1       1.227   9.177  19.105  0.00  0.00    +0.000 A 
ATOM     13  N   UNL     1       0.462  10.169  19.588  0.00  0.00    +0.000 NA
ATOM     14  C   UNL     1       0.203  10.199  20.906  0.00  0.00    +0.000 A 
BRANCH  14  15
ATOM     15  N   UNL     1      -0.398  11.370  21.361  0.00  0.00    +0.000 N 
ATOM     16  H   UNL     1       0.256  12.129  21.186  0.00  0.00    +0.000 HD
ATOM     17  H   UNL     1      -1.309  11.535  20.959  0.00  0.00    +0.000 HD
ENDBRANCH  14  15
ENDBRANCH   1   9
BRANCH   3  18
ATOM     18  C   UNL     1       5.540   4.490  17.032  0.00  0.00    +0.000 C 
ATOM     19  C   UNL     1       6.590   4.954  18.046  0.00  0.00    +0.000 C 
BRANCH  18  20
ATOM     20  C   UNL     1       6.107   4.535  15.609  0.00  0.00    +0.000 A 
ATOM     21  N   UNL     1       7.162   5.344  15.371  0.00  0.00    +0.000 NA
ATOM     22  C   UNL     1       7.664   5.327  14.122  0.00  0.00    +0.000 A 
ATOM     23  C   UNL     1       7.145   4.565  13.100  0.00  0.00    +0.000 A 
ATOM     24  C   UNL     1       6.055   3.799  13.427  0.00  0.00    +0.000 A 
ATOM     25  N   UNL     1       5.519   3.769  14.661  0.00  0.00    +0.000 NA
ENDBRANCH  18  20
ENDBRANCH   3  18
BRANCH   3  26
ATOM     26  C   UNL     1       3.019   4.338  17.118  0.00  0.00    +0.000 C 
BRANCH  26  27
ATOM     27  C   UNL     1       2.615   3.741  18.457  0.00  0.00    +0.000 A 
ATOM     28  C   UNL     1       3.545   3.271  19.388  0.00  0.00    +0.000 A 
ATOM     29  C   UNL     1       3.100   2.794  20.620  0.00  0.00    +0.000 A 
ATOM     30  C   UNL     1       1.740   2.788  20.892  0.00  0.00    +0.000 A 
ATOM     31 BR   UNL     1       1.097   2.219  22.570  0.00  0.00    +0.000 Br
ATOM     32  C   UNL     1       0.874   3.230  19.910  0.00  0.00    +0.000 A 
ATOM     33  N   UNL     1       1.279   3.698  18.704  0.00  0.00    +0.000 NA
ENDBRANCH  26  27
ENDBRANCH   3  26
TORSDOF 6
ENDMDL
