MODEL 1
REMARK VINA RESULT:      -7.8      0.000      0.000
REMARK  Name = 
REMARK  4 active torsions:
REMARK  status: ('A' for Active; 'I' for Inactive)
REMARK    1  A    between atoms: C_1  and  C_2
REMARK    2  A    between atoms: C_4  and  O_5
REMARK    3  A    between atoms: C_8  and  N_9
REMARK    4  A    between atoms: N_12  and  C_13
REMARK                            x       y       z     vdW  Elec       q    Type
REMARK                         _______ _______ _______ _____ _____    ______ ____
ROOT
ATOM      1  N   UNL     1       2.763   7.199  19.699  0.00  0.00    +0.000 NA
ATOM      2  C   UNL     1       2.566   5.925  19.637  0.00  0.00    +0.000 C 
ATOM      3  N   UNL     1       1.428   5.258  19.957  0.00  0.00    +0.000 N 
ATOM      4  N   UNL     1       3.454   4.999  19.154  0.00  0.00    +0.000 N 
ATOM      5  H   UNL     1       0.609   5.847  19.867  0.00  0.00    +0.000 HD
ATOM      6  H   UNL     1       1.318   4.384  19.463  0.00  0.00    +0.000 HD
ATOM      7  H   UNL     1       3.495   4.145  19.693  0.00  0.00    +0.000 HD
ENDROOT
BRANCH   4   8
ATOM      8  C   UNL     1       4.595   5.228  18.263  0.00  0.00    +0.000 C 
ATOM      9  C   UNL     1       5.906   5.435  19.047  0.00  0.00    +0.000 C 
ATOM     10  C   UNL     1       7.077   5.681  18.074  0.00  0.00    +0.000 C 
ATOM     11  C   UNL     1       7.260   4.448  17.172  0.00  0.00    +0.000 C 
ATOM     12  C   UNL     1       5.972   4.193  16.374  0.00  0.00    +0.000 C 
ATOM     13  C   UNL     1       5.700   5.418  15.489  0.00  0.00    +0.000 C 
ATOM     14  C   UNL     1       5.495   6.660  16.369  0.00  0.00    +0.000 C 
ATOM     15  C   UNL     1       6.762   6.911  17.203  0.00  0.00    +0.000 C 
ATOM     16  C   UNL     1       4.309   6.423  17.324  0.00  0.00    +0.000 C 
ATOM     17  C   UNL     1       4.792   3.981  17.348  0.00  0.00    +0.000 C 
ENDBRANCH   4   8
BRANCH   1  24
ATOM     18  C   UNL     1       1.385   9.281  17.781  0.00  0.00    +0.000 C 
ATOM     19  C   UNL     1       1.165   9.133  19.260  0.00  0.00    +0.000 A 
ATOM     20  C   UNL     1       0.206  10.007  19.832  0.00  0.00    +0.000 A 
ATOM     21  C   UNL     1      -0.154   9.904  21.172  0.00  0.00    +0.000 A 
ATOM     22  C   UNL     1       0.436   8.945  21.972  0.00  0.00    +0.000 A 
ATOM     23  C   UNL     1       1.407   8.099  21.425  0.00  0.00    +0.000 A 
ATOM     24  C   UNL     1       1.813   8.178  20.076  0.00  0.00    +0.000 A 
BRANCH  21  25
ATOM     25  O   UNL     1      -1.097  10.719  21.725  0.00  0.00    +0.000 OA
ATOM     26  H   UNL     1      -0.698  11.192  22.472  0.00  0.00    +0.000 HD
ENDBRANCH  21  25
ENDBRANCH   1  24
TORSDOF 3
ENDMDL
MODEL 2
REMARK VINA RESULT:      -7.8      0.054      1.610
REMARK  Name = 
REMARK  4 active torsions:
REMARK  status: ('A' for Active; 'I' for Inactive)
REMARK    1  A    between atoms: C_1  and  C_2
REMARK    2  A    between atoms: C_4  and  O_5
REMARK    3  A    between atoms: C_8  and  N_9
REMARK    4  A    between atoms: N_12  and  C_13
REMARK                            x       y       z     vdW  Elec       q    Type
REMARK                         _______ _______ _______ _____ _____    ______ ____
ROOT
ATOM      1  N   UNL     1       2.757   7.169  19.689  0.00  0.00    +0.000 NA
ATOM      2  C   UNL     1       2.557   5.894  19.668  0.00  0.00    +0.000 C 
ATOM      3  N   UNL     1       1.427   5.238  20.037  0.00  0.00    +0.000 N 
ATOM      4  N   UNL     1       3.430   4.954  19.186  0.00  0.00    +0.000 N 
ATOM      5  H   UNL     1       0.607   5.826  19.954  0.00  0.00    +0.000 HD
ATOM      6  H   UNL     1       1.303   4.351  19.571  0.00  0.00    +0.000 HD
ATOM      7  H   UNL     1       3.485   4.115  19.747  0.00  0.00    +0.000 HD
ENDROOT
BRANCH   4   8
ATOM      8  C   UNL     1       4.547   5.156  18.259  0.00  0.00    +0.000 C 
ATOM      9  C   UNL     1       4.733   3.957  17.309  0.00  0.00    +0.000 C 
ATOM     10  C   UNL     1       5.922   4.207  16.358  0.00  0.00    +0.000 C 
ATOM     11  C   UNL     1       5.633   5.448  15.495  0.00  0.00    +0.000 C 
ATOM     12  C   UNL     1       5.429   6.674  16.399  0.00  0.00    +0.000 C 
ATOM     13  C   UNL     1       6.723   6.911  17.192  0.00  0.00    +0.000 C 
ATOM     14  C   UNL     1       7.023   5.692  18.076  0.00  0.00    +0.000 C 
ATOM     15  C   UNL     1       7.194   4.446  17.191  0.00  0.00    +0.000 C 
ATOM     16  C   UNL     1       5.846   5.457  19.043  0.00  0.00    +0.000 C 
ATOM     17  C   UNL     1       4.261   6.409  17.376  0.00  0.00    +0.000 C 
ENDBRANCH   4   8
BRANCH   1  24
ATOM     18  C   UNL     1       1.409   9.270  17.770  0.00  0.00    +0.000 C 
ATOM     19  C   UNL     1       1.184   9.123  19.249  0.00  0.00    +0.000 A 
ATOM     20  C   UNL     1       0.234  10.009  19.820  0.00  0.00    +0.000 A 
ATOM     21  C   UNL     1      -0.130   9.910  21.158  0.00  0.00    +0.000 A 
ATOM     22  C   UNL     1       0.447   8.943  21.959  0.00  0.00    +0.000 A 
ATOM     23  C   UNL     1       1.408   8.085  21.414  0.00  0.00    +0.000 A 
ATOM     24  C   UNL     1       1.818   8.160  20.065  0.00  0.00    +0.000 A 
BRANCH  21  25
ATOM     25  O   UNL     1      -1.064  10.736  21.710  0.00  0.00    +0.000 OA
ATOM     26  H   UNL     1      -0.613  11.515  22.072  0.00  0.00    +0.000 HD
ENDBRANCH  21  25
ENDBRANCH   1  24
TORSDOF 3
ENDMDL
MODEL 3
REMARK VINA RESULT:      -7.7      0.082      1.605
REMARK  Name = 
REMARK  4 active torsions:
REMARK  status: ('A' for Active; 'I' for Inactive)
REMARK    1  A    between atoms: C_1  and  C_2
REMARK    2  A    between atoms: C_4  and  O_5
REMARK    3  A    between atoms: C_8  and  N_9
REMARK    4  A    between atoms: N_12  and  C_13
REMARK                            x       y       z     vdW  Elec       q    Type
REMARK                         _______ _______ _______ _____ _____    ______ ____
ROOT
ATOM      1  N   UNL     1       2.721   7.236  19.717  0.00  0.00    +0.000 NA
ATOM      2  C   UNL     1       2.528   5.961  19.687  0.00  0.00    +0.000 C 
ATOM      3  N   UNL     1       1.407   5.295  20.063  0.00  0.00    +0.000 N 
ATOM      4  N   UNL     1       3.401   5.030  19.186  0.00  0.00    +0.000 N 
ATOM      5  H   UNL     1       0.582   5.878  19.995  0.00  0.00    +0.000 HD
ATOM      6  H   UNL     1       1.282   4.412  19.590  0.00  0.00    +0.000 HD
ATOM      7  H   UNL     1       3.468   4.186  19.738  0.00  0.00    +0.000 HD
ENDROOT
BRANCH   4   8
ATOM      8  C   UNL     1       4.505   5.248  18.247  0.00  0.00    +0.000 C 
ATOM      9  C   UNL     1       4.280   6.494  17.369  0.00  0.00    +0.000 C 
ATOM     10  C   UNL     1       5.458   6.681  16.392  0.00  0.00    +0.000 C 
ATOM     11  C   UNL     1       6.754   6.899  17.190  0.00  0.00    +0.000 C 
ATOM     12  C   UNL     1       7.020   5.683  18.092  0.00  0.00    +0.000 C 
ATOM     13  C   UNL     1       7.191   4.446  17.198  0.00  0.00    +0.000 C 
ATOM     14  C   UNL     1       5.900   4.197  16.403  0.00  0.00    +0.000 C 
ATOM     15  C   UNL     1       5.598   5.420  15.521  0.00  0.00    +0.000 C 
ATOM     16  C   UNL     1       4.728   3.986  17.381  0.00  0.00    +0.000 C 
ATOM     17  C   UNL     1       5.824   5.475  19.047  0.00  0.00    +0.000 C 
ENDBRANCH   4   8
BRANCH   1  24
ATOM     18  C   UNL     1       1.294   9.309  17.824  0.00  0.00    +0.000 C 
ATOM     19  C   UNL     1       1.112   9.169  19.310  0.00  0.00    +0.000 A 
ATOM     20  C   UNL     1       0.168  10.047  19.902  0.00  0.00    +0.000 A 
ATOM     21  C   UNL     1      -0.158   9.951  21.250  0.00  0.00    +0.000 A 
ATOM     22  C   UNL     1       0.453   8.996  22.040  0.00  0.00    +0.000 A 
ATOM     23  C   UNL     1       1.409   8.147  21.473  0.00  0.00    +0.000 A 
ATOM     24  C   UNL     1       1.780   8.218  20.113  0.00  0.00    +0.000 A 
BRANCH  21  25
ATOM     25  O   UNL     1      -1.086  10.769  21.823  0.00  0.00    +0.000 OA
ATOM     26  H   UNL     1      -1.884  10.249  22.010  0.00  0.00    +0.000 HD
ENDBRANCH  21  25
ENDBRANCH   1  24
TORSDOF 3
ENDMDL
MODEL 4
REMARK VINA RESULT:      -7.6      0.858      1.708
REMARK  Name = 
REMARK  4 active torsions:
REMARK  status: ('A' for Active; 'I' for Inactive)
REMARK    1  A    between atoms: C_1  and  C_2
REMARK    2  A    between atoms: C_4  and  O_5
REMARK    3  A    between atoms: C_8  and  N_9
REMARK    4  A    between atoms: N_12  and  C_13
REMARK                            x       y       z     vdW  Elec       q    Type
REMARK                         _______ _______ _______ _____ _____    ______ ____
ROOT
ATOM      1  N   UNL     1       2.763   7.466  19.249  0.00  0.00    +0.000 NA
ATOM      2  C   UNL     1       2.713   6.205  19.514  0.00  0.00    +0.000 C 
ATOM      3  N   UNL     1       1.636   5.503  19.951  0.00  0.00    +0.000 N 
ATOM      4  N   UNL     1       3.731   5.305  19.325  0.00  0.00    +0.000 N 
ATOM      5  H   UNL     1       0.766   5.942  19.678  0.00  0.00    +0.000 HD
ATOM      6  H   UNL     1       1.660   4.526  19.698  0.00  0.00    +0.000 HD
ATOM      7  H   UNL     1       3.828   4.628  20.069  0.00  0.00    +0.000 HD
ENDROOT
BRANCH   4   8
ATOM      8  C   UNL     1       4.900   5.442  18.452  0.00  0.00    +0.000 C 
ATOM      9  C   UNL     1       6.205   5.596  19.255  0.00  0.00    +0.000 C 
ATOM     10  C   UNL     1       7.407   5.746  18.300  0.00  0.00    +0.000 C 
ATOM     11  C   UNL     1       7.535   4.479  17.437  0.00  0.00    +0.000 C 
ATOM     12  C   UNL     1       6.249   4.275  16.620  0.00  0.00    +0.000 C 
ATOM     13  C   UNL     1       6.066   5.487  15.696  0.00  0.00    +0.000 C 
ATOM     14  C   UNL     1       5.917   6.764  16.536  0.00  0.00    +0.000 C 
ATOM     15  C   UNL     1       7.180   6.966  17.389  0.00  0.00    +0.000 C 
ATOM     16  C   UNL     1       4.701   6.623  17.473  0.00  0.00    +0.000 C 
ATOM     17  C   UNL     1       5.041   4.160  17.576  0.00  0.00    +0.000 C 
ENDBRANCH   4   8
BRANCH   1  24
ATOM     18  C   UNL     1       1.445   8.580  21.883  0.00  0.00    +0.000 C 
ATOM     19  C   UNL     1       1.058   8.913  20.469  0.00  0.00    +0.000 A 
ATOM     20  C   UNL     1       0.010   9.857  20.322  0.00  0.00    +0.000 A 
ATOM     21  C   UNL     1      -0.375  10.317  19.067  0.00  0.00    +0.000 A 
ATOM     22  C   UNL     1       0.260   9.843  17.935  0.00  0.00    +0.000 A 
ATOM     23  C   UNL     1       1.273   8.887  18.068  0.00  0.00    +0.000 A 
ATOM     24  C   UNL     1       1.685   8.382  19.320  0.00  0.00    +0.000 A 
BRANCH  21  25
ATOM     25  O   UNL     1      -1.360  11.247  18.916  0.00  0.00    +0.000 OA
ATOM     26  H   UNL     1      -1.287  11.895  19.635  0.00  0.00    +0.000 HD
ENDBRANCH  21  25
ENDBRANCH   1  24
TORSDOF 3
ENDMDL
MODEL 5
REMARK VINA RESULT:      -7.6      4.115      7.228
REMARK  Name = 
REMARK  4 active torsions:
REMARK  status: ('A' for Active; 'I' for Inactive)
REMARK    1  A    between atoms: C_1  and  C_2
REMARK    2  A    between atoms: C_4  and  O_5
REMARK    3  A    between atoms: C_8  and  N_9
REMARK    4  A    between atoms: N_12  and  C_13
REMARK                            x       y       z     vdW  Elec       q    Type
REMARK                         _______ _______ _______ _____ _____    ______ ____
ROOT
ATOM      1  N   UNL     1       4.849   4.925  17.107  0.00  0.00    +0.000 NA
ATOM      2  C   UNL     1       4.173   5.911  17.592  0.00  0.00    +0.000 C 
ATOM      3  N   UNL     1       4.085   7.168  17.088  0.00  0.00    +0.000 N 
ATOM      4  N   UNL     1       3.337   5.852  18.678  0.00  0.00    +0.000 N 
ATOM      5  H   UNL     1       4.258   7.186  16.091  0.00  0.00    +0.000 HD
ATOM      6  H   UNL     1       3.226   7.642  17.328  0.00  0.00    +0.000 HD
ATOM      7  H   UNL     1       3.397   6.654  19.289  0.00  0.00    +0.000 HD
ENDROOT
BRANCH   4   8
ATOM      8  C   UNL     1       2.714   4.665  19.269  0.00  0.00    +0.000 C 
ATOM      9  C   UNL     1       1.820   5.020  20.472  0.00  0.00    +0.000 C 
ATOM     10  C   UNL     1       1.193   3.744  21.068  0.00  0.00    +0.000 C 
ATOM     11  C   UNL     1       0.306   3.067  20.009  0.00  0.00    +0.000 C 
ATOM     12  C   UNL     1       1.152   2.700  18.780  0.00  0.00    +0.000 C 
ATOM     13  C   UNL     1       2.240   1.710  19.220  0.00  0.00    +0.000 C 
ATOM     14  C   UNL     1       3.152   2.370  20.266  0.00  0.00    +0.000 C 
ATOM     15  C   UNL     1       2.314   2.778  21.490  0.00  0.00    +0.000 C 
ATOM     16  C   UNL     1       3.797   3.632  19.661  0.00  0.00    +0.000 C 
ATOM     17  C   UNL     1       1.809   3.974  18.204  0.00  0.00    +0.000 C 
ENDBRANCH   4   8
BRANCH   1  24
ATOM     18  C   UNL     1       7.626   6.353  16.703  0.00  0.00    +0.000 C 
ATOM     19  C   UNL     1       6.862   5.559  15.681  0.00  0.00    +0.000 A 
ATOM     20  C   UNL     1       7.487   5.418  14.415  0.00  0.00    +0.000 A 
ATOM     21  C   UNL     1       6.924   4.629  13.418  0.00  0.00    +0.000 A 
ATOM     22  C   UNL     1       5.729   3.976  13.648  0.00  0.00    +0.000 A 
ATOM     23  C   UNL     1       5.088   4.135  14.881  0.00  0.00    +0.000 A 
ATOM     24  C   UNL     1       5.615   4.938  15.916  0.00  0.00    +0.000 A 
BRANCH  21  25
ATOM     25  O   UNL     1       7.532   4.461  12.209  0.00  0.00    +0.000 OA
ATOM     26  H   UNL     1       8.492   4.518  12.334  0.00  0.00    +0.000 HD
ENDBRANCH  21  25
ENDBRANCH   1  24
TORSDOF 3
ENDMDL
MODEL 6
REMARK VINA RESULT:      -7.6      4.173      7.332
REMARK  Name = 
REMARK  4 active torsions:
REMARK  status: ('A' for Active; 'I' for Inactive)
REMARK    1  A    between atoms: C_1  and  C_2
REMARK    2  A    between atoms: C_4  and  O_5
REMARK    3  A    between atoms: C_8  and  N_9
REMARK    4  A    between atoms: N_12  and  C_13
REMARK                            x       y       z     vdW  Elec       q    Type
REMARK                         _______ _______ _______ _____ _____    ______ ____
ROOT
ATOM      1  N   UNL     1       4.866   4.776  16.882  0.00  0.00    +0.000 NA
ATOM      2  C   UNL     1       4.256   5.789  17.399  0.00  0.00    +0.000 C 
ATOM      3  N   UNL     1       4.215   7.055  16.911  0.00  0.00    +0.000 N 
ATOM      4  N   UNL     1       3.454   5.759  18.511  0.00  0.00    +0.000 N 
ATOM      5  H   UNL     1       4.357   7.076  15.909  0.00  0.00    +0.000 HD
ATOM      6  H   UNL     1       3.390   7.568  17.185  0.00  0.00    +0.000 HD
ATOM      7  H   UNL     1       3.575   6.550  19.129  0.00  0.00    +0.000 HD
ENDROOT
BRANCH   4   8
ATOM      8  C   UNL     1       2.792   4.597  19.110  0.00  0.00    +0.000 C 
ATOM      9  C   UNL     1       3.805   3.576  19.662  0.00  0.00    +0.000 C 
ATOM     10  C   UNL     1       3.068   2.368  20.274  0.00  0.00    +0.000 C 
ATOM     11  C   UNL     1       2.195   2.843  21.448  0.00  0.00    +0.000 C 
ATOM     12  C   UNL     1       1.170   3.873  20.950  0.00  0.00    +0.000 C 
ATOM     13  C   UNL     1       0.270   3.196  19.906  0.00  0.00    +0.000 C 
ATOM     14  C   UNL     1       1.118   2.728  18.713  0.00  0.00    +0.000 C 
ATOM     15  C   UNL     1       2.175   1.722  19.199  0.00  0.00    +0.000 C 
ATOM     16  C   UNL     1       1.836   3.940  18.088  0.00  0.00    +0.000 C 
ATOM     17  C   UNL     1       1.908   5.068  20.305  0.00  0.00    +0.000 C 
ENDBRANCH   4   8
BRANCH   1  24
ATOM     18  C   UNL     1       7.668   6.123  16.383  0.00  0.00    +0.000 C 
ATOM     19  C   UNL     1       6.848   5.350  15.389  0.00  0.00    +0.000 A 
ATOM     20  C   UNL     1       7.427   5.189  14.104  0.00  0.00    +0.000 A 
ATOM     21  C   UNL     1       6.809   4.414  13.127  0.00  0.00    +0.000 A 
ATOM     22  C   UNL     1       5.604   3.797  13.398  0.00  0.00    +0.000 A 
ATOM     23  C   UNL     1       5.008   3.977  14.652  0.00  0.00    +0.000 A 
ATOM     24  C   UNL     1       5.592   4.765  15.666  0.00  0.00    +0.000 A 
BRANCH  21  25
ATOM     25  O   UNL     1       7.372   4.227  11.899  0.00  0.00    +0.000 OA
ATOM     26  H   UNL     1       7.616   5.093  11.536  0.00  0.00    +0.000 HD
ENDBRANCH  21  25
ENDBRANCH   1  24
TORSDOF 3
ENDMDL
MODEL 7
REMARK VINA RESULT:      -7.6      4.166      7.344
REMARK  Name = 
REMARK  4 active torsions:
REMARK  status: ('A' for Active; 'I' for Inactive)
REMARK    1  A    between atoms: C_1  and  C_2
REMARK    2  A    between atoms: C_4  and  O_5
REMARK    3  A    between atoms: C_8  and  N_9
REMARK    4  A    between atoms: N_12  and  C_13
REMARK                            x       y       z     vdW  Elec       q    Type
REMARK                         _______ _______ _______ _____ _____    ______ ____
ROOT
ATOM      1  N   UNL     1       4.823   4.787  16.893  0.00  0.00    +0.000 NA
ATOM      2  C   UNL     1       4.227   5.807  17.410  0.00  0.00    +0.000 C 
ATOM      3  N   UNL     1       4.210   7.076  16.926  0.00  0.00    +0.000 N 
ATOM      4  N   UNL     1       3.418   5.787  18.517  0.00  0.00    +0.000 N 
ATOM      5  H   UNL     1       4.359   7.098  15.925  0.00  0.00    +0.000 HD
ATOM      6  H   UNL     1       3.392   7.602  17.197  0.00  0.00    +0.000 HD
ATOM      7  H   UNL     1       3.548   6.574  19.138  0.00  0.00    +0.000 HD
ENDROOT
BRANCH   4   8
ATOM      8  C   UNL     1       2.732   4.635  19.108  0.00  0.00    +0.000 C 
ATOM      9  C   UNL     1       1.832   3.913  18.088  0.00  0.00    +0.000 C 
ATOM     10  C   UNL     1       1.124   2.715  18.752  0.00  0.00    +0.000 C 
ATOM     11  C   UNL     1       2.177   1.707  19.243  0.00  0.00    +0.000 C 
ATOM     12  C   UNL     1       3.110   2.383  20.260  0.00  0.00    +0.000 C 
ATOM     13  C   UNL     1       2.267   2.842  21.459  0.00  0.00    +0.000 C 
ATOM     14  C   UNL     1       1.218   3.865  20.997  0.00  0.00    +0.000 C 
ATOM     15  C   UNL     1       0.297   3.216  19.950  0.00  0.00    +0.000 C 
ATOM     16  C   UNL     1       1.928   5.073  20.355  0.00  0.00    +0.000 C 
ATOM     17  C   UNL     1       3.792   3.605  19.604  0.00  0.00    +0.000 C 
ENDBRANCH   4   8
BRANCH   1  24
ATOM     18  C   UNL     1       7.641   6.104  16.410  0.00  0.00    +0.000 C 
ATOM     19  C   UNL     1       6.819   5.339  15.411  0.00  0.00    +0.000 A 
ATOM     20  C   UNL     1       7.405   5.171  14.130  0.00  0.00    +0.000 A 
ATOM     21  C   UNL     1       6.785   4.402  13.151  0.00  0.00    +0.000 A 
ATOM     22  C   UNL     1       5.571   3.797  13.415  0.00  0.00    +0.000 A 
ATOM     23  C   UNL     1       4.970   3.983  14.665  0.00  0.00    +0.000 A 
ATOM     24  C   UNL     1       5.556   4.767  15.682  0.00  0.00    +0.000 A 
BRANCH  21  25
ATOM     25  O   UNL     1       7.353   4.208  11.927  0.00  0.00    +0.000 OA
ATOM     26  H   UNL     1       6.682   3.840  11.329  0.00  0.00    +0.000 HD
ENDBRANCH  21  25
ENDBRANCH   1  24
TORSDOF 3
ENDMDL
MODEL 8
REMARK VINA RESULT:      -7.6      0.861      2.321
REMARK  Name = 
REMARK  4 active torsions:
REMARK  status: ('A' for Active; 'I' for Inactive)
REMARK    1  A    between atoms: C_1  and  C_2
REMARK    2  A    between atoms: C_4  and  O_5
REMARK    3  A    between atoms: C_8  and  N_9
REMARK    4  A    between atoms: N_12  and  C_13
REMARK                            x       y       z     vdW  Elec       q    Type
REMARK                         _______ _______ _______ _____ _____    ______ ____
ROOT
ATOM      1  N   UNL     1       2.708   7.508  19.249  0.00  0.00    +0.000 NA
ATOM      2  C   UNL     1       2.680   6.255  19.557  0.00  0.00    +0.000 C 
ATOM      3  N   UNL     1       1.629   5.562  20.065  0.00  0.00    +0.000 N 
ATOM      4  N   UNL     1       3.695   5.356  19.350  0.00  0.00    +0.000 N 
ATOM      5  H   UNL     1       0.744   5.987  19.818  0.00  0.00    +0.000 HD
ATOM      6  H   UNL     1       1.648   4.577  19.842  0.00  0.00    +0.000 HD
ATOM      7  H   UNL     1       3.831   4.704  20.110  0.00  0.00    +0.000 HD
ENDROOT
BRANCH   4   8
ATOM      8  C   UNL     1       4.821   5.472  18.420  0.00  0.00    +0.000 C 
ATOM      9  C   UNL     1       4.704   6.719  17.523  0.00  0.00    +0.000 C 
ATOM     10  C   UNL     1       5.903   6.797  16.556  0.00  0.00    +0.000 C 
ATOM     11  C   UNL     1       7.205   6.923  17.366  0.00  0.00    +0.000 C 
ATOM     12  C   UNL     1       7.364   5.703  18.286  0.00  0.00    +0.000 C 
ATOM     13  C   UNL     1       7.445   4.444  17.411  0.00  0.00    +0.000 C 
ATOM     14  C   UNL     1       6.146   4.286  16.606  0.00  0.00    +0.000 C 
ATOM     15  C   UNL     1       5.951   5.516  15.704  0.00  0.00    +0.000 C 
ATOM     16  C   UNL     1       4.951   4.184  17.574  0.00  0.00    +0.000 C 
ATOM     17  C   UNL     1       6.146   5.605  19.231  0.00  0.00    +0.000 C 
ENDBRANCH   4   8
BRANCH   1  24
ATOM     18  C   UNL     1       1.442   8.625  21.907  0.00  0.00    +0.000 C 
ATOM     19  C   UNL     1       1.023   8.951  20.500  0.00  0.00    +0.000 A 
ATOM     20  C   UNL     1      -0.033   9.890  20.373  0.00  0.00    +0.000 A 
ATOM     21  C   UNL     1      -0.446  10.344  19.125  0.00  0.00    +0.000 A 
ATOM     22  C   UNL     1       0.167   9.868  17.981  0.00  0.00    +0.000 A 
ATOM     23  C   UNL     1       1.187   8.918  18.095  0.00  0.00    +0.000 A 
ATOM     24  C   UNL     1       1.628   8.419  19.340  0.00  0.00    +0.000 A 
BRANCH  21  25
ATOM     25  O   UNL     1      -1.438  11.269  18.991  0.00  0.00    +0.000 OA
ATOM     26  H   UNL     1      -2.043  10.976  18.292  0.00  0.00    +0.000 HD
ENDBRANCH  21  25
ENDBRANCH   1  24
TORSDOF 3
ENDMDL
MODEL 9
REMARK VINA RESULT:      -7.5      0.841      2.343
REMARK  Name = 
REMARK  4 active torsions:
REMARK  status: ('A' for Active; 'I' for Inactive)
REMARK    1  A    between atoms: C_1  and  C_2
REMARK    2  A    between atoms: C_4  and  O_5
REMARK    3  A    between atoms: C_8  and  N_9
REMARK    4  A    between atoms: N_12  and  C_13
REMARK                            x       y       z     vdW  Elec       q    Type
REMARK                         _______ _______ _______ _____ _____    ______ ____
ROOT
ATOM      1  N   UNL     1       2.767   7.424  19.232  0.00  0.00    +0.000 NA
ATOM      2  C   UNL     1       2.709   6.168  19.520  0.00  0.00    +0.000 C 
ATOM      3  N   UNL     1       1.633   5.486  19.991  0.00  0.00    +0.000 N 
ATOM      4  N   UNL     1       3.711   5.253  19.323  0.00  0.00    +0.000 N 
ATOM      5  H   UNL     1       0.762   5.931  19.729  0.00  0.00    +0.000 HD
ATOM      6  H   UNL     1       1.640   4.505  19.754  0.00  0.00    +0.000 HD
ATOM      7  H   UNL     1       3.817   4.587  20.076  0.00  0.00    +0.000 HD
ENDROOT
BRANCH   4   8
ATOM      8  C   UNL     1       4.863   5.362  18.424  0.00  0.00    +0.000 C 
ATOM      9  C   UNL     1       5.006   4.124  17.517  0.00  0.00    +0.000 C 
ATOM     10  C   UNL     1       6.232   4.276  16.594  0.00  0.00    +0.000 C 
ATOM     11  C   UNL     1       6.040   5.502  15.686  0.00  0.00    +0.000 C 
ATOM     12  C   UNL     1       5.883   6.766  16.546  0.00  0.00    +0.000 C 
ATOM     13  C   UNL     1       7.166   6.955  17.368  0.00  0.00    +0.000 C 
ATOM     14  C   UNL     1       7.370   5.749  18.298  0.00  0.00    +0.000 C 
ATOM     15  C   UNL     1       7.493   4.468  17.456  0.00  0.00    +0.000 C 
ATOM     16  C   UNL     1       6.155   5.613  19.236  0.00  0.00    +0.000 C 
ATOM     17  C   UNL     1       4.675   6.600  17.495  0.00  0.00    +0.000 C 
ENDBRANCH   4   8
BRANCH   1  24
ATOM     18  C   UNL     1       1.487   8.560  21.875  0.00  0.00    +0.000 C 
ATOM     19  C   UNL     1       1.092   8.895  20.465  0.00  0.00    +0.000 A 
ATOM     20  C   UNL     1       0.054   9.852  20.325  0.00  0.00    +0.000 A 
ATOM     21  C   UNL     1      -0.336  10.314  19.072  0.00  0.00    +0.000 A 
ATOM     22  C   UNL     1       0.283   9.830  17.936  0.00  0.00    +0.000 A 
ATOM     23  C   UNL     1       1.285   8.861  18.061  0.00  0.00    +0.000 A 
ATOM     24  C   UNL     1       1.702   8.353  19.311  0.00  0.00    +0.000 A 
BRANCH  21  25
ATOM     25  O   UNL     1      -1.310  11.256  18.928  0.00  0.00    +0.000 OA
ATOM     26  H   UNL     1      -1.857  11.021  18.162  0.00  0.00    +0.000 HD
ENDBRANCH  21  25
ENDBRANCH   1  24
TORSDOF 3
ENDMDL
