MODEL 1
REMARK VINA RESULT:      -7.7      0.000      0.000
REMARK  Name = 
REMARK  7 active torsions:
REMARK  status: ('A' for Active; 'I' for Inactive)
REMARK    1  A    between atoms: C_1  and  C_2
REMARK    2  A    between atoms: C_2  and  N_3
REMARK    3  A    between atoms: N_3  and  C_4
REMARK    4  A    between atoms: C_4  and  C_5
REMARK    5  A    between atoms: C_6  and  C_8
REMARK    6  A    between atoms: N_12  and  C_13
REMARK    7  A    between atoms: C_19  and  C_20
REMARK                            x       y       z     vdW  Elec       q    Type
REMARK                         _______ _______ _______ _____ _____    ______ ____
ROOT
ATOM      1  C   UNL     1       1.477   4.079  18.420  0.00  0.00    +0.000 C 
ATOM      2  C   UNL     1       1.169   2.642  18.885  0.00  0.00    +0.000 C 
ATOM      3  C   UNL     1       2.395   1.872  19.385  0.00  0.00    +0.000 C 
ATOM      4  C   UNL     1       3.657   2.035  18.531  0.00  0.00    +0.000 C 
ATOM      5  N   UNL     1       3.809   3.418  18.089  0.00  0.00    +0.000 N 
ATOM      6  C   UNL     1       2.645   4.022  17.439  0.00  0.00    +0.000 C 
ENDROOT
BRANCH   5   7
ATOM      7  C   UNL     1       5.035   4.054  17.981  0.00  0.00    +0.000 A 
ATOM      8  N   UNL     1       5.606   4.551  19.125  0.00  0.00    +0.000 NA
ATOM      9  C   UNL     1       6.818   5.133  19.101  0.00  0.00    +0.000 A 
ATOM     10  N   UNL     1       7.614   5.314  18.048  0.00  0.00    +0.000 NA
ATOM     11  C   UNL     1       7.032   4.846  16.938  0.00  0.00    +0.000 A 
ATOM     12  O   UNL     1       7.599   4.932  15.701  0.00  0.00    +0.000 OA
ATOM     13  C   UNL     1       6.667   4.387  14.868  0.00  0.00    +0.000 A 
ATOM     14  C   UNL     1       6.973   4.443  13.425  0.00  0.00    +0.000 C 
ATOM     15  N   UNL     1       5.580   3.940  15.462  0.00  0.00    +0.000 NA
ATOM     16  C   UNL     1       5.797   4.233  16.799  0.00  0.00    +0.000 A 
ENDBRANCH   5   7
BRANCH   1  18
ATOM     17  N   UNL     1       2.123   6.353  19.362  0.00  0.00    +0.000 N 
ATOM     18  C   UNL     1       1.725   5.034  19.597  0.00  0.00    +0.000 C 
ATOM     19  O   UNL     1       1.517   4.653  20.754  0.00  0.00    +0.000 OA
BRANCH  17  21
ATOM     20  C   UNL     1       1.224   8.397  20.500  0.00  0.00    +0.000 C 
ATOM     21  C   UNL     1       2.209   7.239  20.532  0.00  0.00    +0.000 C 
ENDBRANCH  17  21
BRANCH  17  22
ATOM     22  C   UNL     1       2.280   6.996  18.052  0.00  0.00    +0.000 C 
ATOM     23  C   UNL     1       3.702   7.458  17.761  0.00  0.00    +0.000 C 
ENDBRANCH  17  22
ENDBRANCH   1  18
TORSDOF 4
ENDMDL
MODEL 2
REMARK VINA RESULT:      -7.4      2.075      6.254
REMARK  Name = 
REMARK  7 active torsions:
REMARK  status: ('A' for Active; 'I' for Inactive)
REMARK    1  A    between atoms: C_1  and  C_2
REMARK    2  A    between atoms: C_2  and  N_3
REMARK    3  A    between atoms: N_3  and  C_4
REMARK    4  A    between atoms: C_4  and  C_5
REMARK    5  A    between atoms: C_6  and  C_8
REMARK    6  A    between atoms: N_12  and  C_13
REMARK    7  A    between atoms: C_19  and  C_20
REMARK                            x       y       z     vdW  Elec       q    Type
REMARK                         _______ _______ _______ _____ _____    ______ ____
ROOT
ATOM      1  C   UNL     1       4.623   3.955  18.929  0.00  0.00    +0.000 C 
ATOM      2  C   UNL     1       3.759   2.813  19.499  0.00  0.00    +0.000 C 
ATOM      3  C   UNL     1       2.269   3.152  19.606  0.00  0.00    +0.000 C 
ATOM      4  C   UNL     1       1.958   4.552  20.147  0.00  0.00    +0.000 C 
ATOM      5  N   UNL     1       2.881   5.538  19.594  0.00  0.00    +0.000 N 
ATOM      6  C   UNL     1       4.306   5.228  19.710  0.00  0.00    +0.000 C 
ENDROOT
BRANCH   5   7
ATOM      7  C   UNL     1       2.506   6.830  19.262  0.00  0.00    +0.000 A 
ATOM      8  N   UNL     1       2.843   7.298  18.017  0.00  0.00    +0.000 NA
ATOM      9  C   UNL     1       2.467   8.522  17.609  0.00  0.00    +0.000 A 
ATOM     10  N   UNL     1       1.756   9.424  18.286  0.00  0.00    +0.000 NA
ATOM     11  C   UNL     1       1.457   8.961  19.505  0.00  0.00    +0.000 A 
ATOM     12  O   UNL     1       0.771   9.686  20.434  0.00  0.00    +0.000 OA
ATOM     13  C   UNL     1       0.729   8.873  21.528  0.00  0.00    +0.000 A 
ATOM     14  C   UNL     1       0.125   9.450  22.745  0.00  0.00    +0.000 C 
ATOM     15  N   UNL     1       1.296   7.695  21.370  0.00  0.00    +0.000 NA
ATOM     16  C   UNL     1       1.777   7.737  20.070  0.00  0.00    +0.000 A 
ENDBRANCH   5   7
BRANCH   1  18
ATOM     17  N   UNL     1       5.511   4.566  16.623  0.00  0.00    +0.000 N 
ATOM     18  C   UNL     1       4.446   4.120  17.412  0.00  0.00    +0.000 C 
ATOM     19  O   UNL     1       3.378   3.804  16.878  0.00  0.00    +0.000 OA
BRANCH  17  21
ATOM     20  C   UNL     1       6.467   3.988  14.379  0.00  0.00    +0.000 C 
ATOM     21  C   UNL     1       5.303   4.568  15.167  0.00  0.00    +0.000 C 
ENDBRANCH  17  21
BRANCH  17  22
ATOM     22  C   UNL     1       6.876   4.850  17.081  0.00  0.00    +0.000 C 
ATOM     23  C   UNL     1       7.158   6.332  17.290  0.00  0.00    +0.000 C 
ENDBRANCH  17  22
ENDBRANCH   1  18
TORSDOF 4
ENDMDL
MODEL 3
REMARK VINA RESULT:      -6.8      1.621      3.653
REMARK  Name = 
REMARK  7 active torsions:
REMARK  status: ('A' for Active; 'I' for Inactive)
REMARK    1  A    between atoms: C_1  and  C_2
REMARK    2  A    between atoms: C_2  and  N_3
REMARK    3  A    between atoms: N_3  and  C_4
REMARK    4  A    between atoms: C_4  and  C_5
REMARK    5  A    between atoms: C_6  and  C_8
REMARK    6  A    between atoms: N_12  and  C_13
REMARK    7  A    between atoms: C_19  and  C_20
REMARK                            x       y       z     vdW  Elec       q    Type
REMARK                         _______ _______ _______ _____ _____    ______ ____
ROOT
ATOM      1  C   UNL     1       2.529   6.075  19.497  0.00  0.00    +0.000 C 
ATOM      2  C   UNL     1       1.861   7.314  18.868  0.00  0.00    +0.000 C 
ATOM      3  C   UNL     1       2.455   7.723  17.516  0.00  0.00    +0.000 C 
ATOM      4  C   UNL     1       3.985   7.683  17.439  0.00  0.00    +0.000 C 
ATOM      5  N   UNL     1       4.509   6.507  18.127  0.00  0.00    +0.000 N 
ATOM      6  C   UNL     1       4.039   6.295  19.497  0.00  0.00    +0.000 C 
ENDROOT
BRANCH   5   7
ATOM      7  C   UNL     1       5.608   5.790  17.683  0.00  0.00    +0.000 A 
ATOM      8  N   UNL     1       6.687   5.681  18.522  0.00  0.00    +0.000 NA
ATOM      9  C   UNL     1       7.766   4.957  18.176  0.00  0.00    +0.000 A 
ATOM     10  N   UNL     1       7.961   4.272  17.050  0.00  0.00    +0.000 NA
ATOM     11  C   UNL     1       6.910   4.409  16.233  0.00  0.00    +0.000 A 
ATOM     12  O   UNL     1       6.847   3.850  14.992  0.00  0.00    +0.000 OA
ATOM     13  C   UNL     1       5.649   4.272  14.495  0.00  0.00    +0.000 A 
ATOM     14  C   UNL     1       5.356   3.897  13.098  0.00  0.00    +0.000 C 
ATOM     15  N   UNL     1       4.937   5.017  15.315  0.00  0.00    +0.000 NA
ATOM     16  C   UNL     1       5.739   5.121  16.440  0.00  0.00    +0.000 A 
ENDBRANCH   5   7
BRANCH   1  18
ATOM     17  N   UNL     1       2.159   3.557  19.495  0.00  0.00    +0.000 N 
ATOM     18  C   UNL     1       2.110   4.770  18.803  0.00  0.00    +0.000 C 
ATOM     19  O   UNL     1       1.675   4.799  17.646  0.00  0.00    +0.000 OA
BRANCH  17  21
ATOM     20  C   UNL     1       2.669   1.538  18.101  0.00  0.00    +0.000 C 
ATOM     21  C   UNL     1       1.616   2.377  18.806  0.00  0.00    +0.000 C 
ENDBRANCH  17  21
BRANCH  17  22
ATOM     22  C   UNL     1       2.519   3.372  20.906  0.00  0.00    +0.000 C 
ATOM     23  C   UNL     1       1.525   2.524  21.688  0.00  0.00    +0.000 C 
ENDBRANCH  17  22
ENDBRANCH   1  18
TORSDOF 4
ENDMDL
MODEL 4
REMARK VINA RESULT:      -6.6      1.028      2.387
REMARK  Name = 
REMARK  7 active torsions:
REMARK  status: ('A' for Active; 'I' for Inactive)
REMARK    1  A    between atoms: C_1  and  C_2
REMARK    2  A    between atoms: C_2  and  N_3
REMARK    3  A    between atoms: N_3  and  C_4
REMARK    4  A    between atoms: C_4  and  C_5
REMARK    5  A    between atoms: C_6  and  C_8
REMARK    6  A    between atoms: N_12  and  C_13
REMARK    7  A    between atoms: C_19  and  C_20
REMARK                            x       y       z     vdW  Elec       q    Type
REMARK                         _______ _______ _______ _____ _____    ______ ____
ROOT
ATOM      1  C   UNL     1       1.467   3.778  18.545  0.00  0.00    +0.000 C 
ATOM      2  C   UNL     1       1.496   2.326  19.062  0.00  0.00    +0.000 C 
ATOM      3  C   UNL     1       2.899   1.714  19.125  0.00  0.00    +0.000 C 
ATOM      4  C   UNL     1       3.790   2.004  17.911  0.00  0.00    +0.000 C 
ATOM      5  N   UNL     1       3.628   3.385  17.467  0.00  0.00    +0.000 N 
ATOM      6  C   UNL     1       2.254   3.835  17.238  0.00  0.00    +0.000 C 
ENDROOT
BRANCH   5   7
ATOM      7  C   UNL     1       4.670   4.156  16.979  0.00  0.00    +0.000 A 
ATOM      8  N   UNL     1       4.686   4.441  15.638  0.00  0.00    +0.000 NA
ATOM      9  C   UNL     1       5.639   5.227  15.105  0.00  0.00    +0.000 A 
ATOM     10  N   UNL     1       6.652   5.820  15.736  0.00  0.00    +0.000 NA
ATOM     11  C   UNL     1       6.636   5.511  17.037  0.00  0.00    +0.000 A 
ATOM     12  O   UNL     1       7.577   5.945  17.922  0.00  0.00    +0.000 OA
ATOM     13  C   UNL     1       7.215   5.370  19.105  0.00  0.00    +0.000 A 
ATOM     14  C   UNL     1       8.132   5.585  20.241  0.00  0.00    +0.000 C 
ATOM     15  N   UNL     1       6.119   4.641  19.058  0.00  0.00    +0.000 NA
ATOM     16  C   UNL     1       5.735   4.717  17.728  0.00  0.00    +0.000 A 
ENDBRANCH   5   7
BRANCH   1  18
ATOM     17  N   UNL     1       2.279   6.092  19.223  0.00  0.00    +0.000 N 
ATOM     18  C   UNL     1       1.970   4.781  19.595  0.00  0.00    +0.000 C 
ATOM     19  O   UNL     1       2.045   4.445  20.782  0.00  0.00    +0.000 OA
BRANCH  17  21
ATOM     20  C   UNL     1       1.482   7.946  20.710  0.00  0.00    +0.000 C 
ATOM     21  C   UNL     1       2.623   7.025  20.307  0.00  0.00    +0.000 C 
ENDBRANCH  17  21
BRANCH  17  22
ATOM     22  C   UNL     1       2.114   6.684  17.891  0.00  0.00    +0.000 C 
ATOM     23  C   UNL     1       3.276   7.571  17.463  0.00  0.00    +0.000 C 
ENDBRANCH  17  22
ENDBRANCH   1  18
TORSDOF 4
ENDMDL
MODEL 5
REMARK VINA RESULT:      -6.5      2.073      5.547
REMARK  Name = 
REMARK  7 active torsions:
REMARK  status: ('A' for Active; 'I' for Inactive)
REMARK    1  A    between atoms: C_1  and  C_2
REMARK    2  A    between atoms: C_2  and  N_3
REMARK    3  A    between atoms: N_3  and  C_4
REMARK    4  A    between atoms: C_4  and  C_5
REMARK    5  A    between atoms: C_6  and  C_8
REMARK    6  A    between atoms: N_12  and  C_13
REMARK    7  A    between atoms: C_19  and  C_20
REMARK                            x       y       z     vdW  Elec       q    Type
REMARK                         _______ _______ _______ _____ _____    ______ ____
ROOT
ATOM      1  C   UNL     1       6.882   4.790  16.928  0.00  0.00    +0.000 C 
ATOM      2  C   UNL     1       6.572   4.145  15.563  0.00  0.00    +0.000 C 
ATOM      3  C   UNL     1       5.084   4.143  15.198  0.00  0.00    +0.000 C 
ATOM      4  C   UNL     1       4.135   3.765  16.341  0.00  0.00    +0.000 C 
ATOM      5  N   UNL     1       4.566   4.375  17.595  0.00  0.00    +0.000 N 
ATOM      6  C   UNL     1       5.963   4.161  17.973  0.00  0.00    +0.000 C 
ENDROOT
BRANCH   5   7
ATOM      7  C   UNL     1       3.686   4.857  18.550  0.00  0.00    +0.000 A 
ATOM      8  N   UNL     1       3.323   4.020  19.574  0.00  0.00    +0.000 NA
ATOM      9  C   UNL     1       2.515   4.439  20.563  0.00  0.00    +0.000 A 
ATOM     10  N   UNL     1       1.968   5.645  20.712  0.00  0.00    +0.000 NA
ATOM     11  C   UNL     1       2.311   6.442  19.693  0.00  0.00    +0.000 A 
ATOM     12  O   UNL     1       1.865   7.723  19.560  0.00  0.00    +0.000 OA
ATOM     13  C   UNL     1       2.408   8.145  18.382  0.00  0.00    +0.000 A 
ATOM     14  C   UNL     1       2.002   9.488  17.923  0.00  0.00    +0.000 C 
ATOM     15  N   UNL     1       3.177   7.265  17.775  0.00  0.00    +0.000 NA
ATOM     16  C   UNL     1       3.121   6.156  18.605  0.00  0.00    +0.000 A 
ENDBRANCH   5   7
BRANCH   1  18
ATOM     17  N   UNL     1       7.498   7.099  17.803  0.00  0.00    +0.000 N 
ATOM     18  C   UNL     1       6.785   6.323  16.885  0.00  0.00    +0.000 C 
ATOM     19  O   UNL     1       6.121   6.873  16.001  0.00  0.00    +0.000 OA
BRANCH  17  21
ATOM     20  C   UNL     1       8.529   9.308  18.388  0.00  0.00    +0.000 C 
ATOM     21  C   UNL     1       7.459   8.556  17.611  0.00  0.00    +0.000 C 
ENDBRANCH  17  21
BRANCH  17  22
ATOM     22  C   UNL     1       8.433   6.607  18.822  0.00  0.00    +0.000 C 
ATOM     23  C   UNL     1       7.763   5.825  19.944  0.00  0.00    +0.000 C 
ENDBRANCH  17  22
ENDBRANCH   1  18
TORSDOF 4
ENDMDL
MODEL 6
REMARK VINA RESULT:      -6.5      1.467      2.996
REMARK  Name = 
REMARK  7 active torsions:
REMARK  status: ('A' for Active; 'I' for Inactive)
REMARK    1  A    between atoms: C_1  and  C_2
REMARK    2  A    between atoms: C_2  and  N_3
REMARK    3  A    between atoms: N_3  and  C_4
REMARK    4  A    between atoms: C_4  and  C_5
REMARK    5  A    between atoms: C_6  and  C_8
REMARK    6  A    between atoms: N_12  and  C_13
REMARK    7  A    between atoms: C_19  and  C_20
REMARK                            x       y       z     vdW  Elec       q    Type
REMARK                         _______ _______ _______ _____ _____    ______ ____
ROOT
ATOM      1  C   UNL     1       1.772   3.682  17.715  0.00  0.00    +0.000 C 
ATOM      2  C   UNL     1       1.750   2.316  18.428  0.00  0.00    +0.000 C 
ATOM      3  C   UNL     1       3.140   1.752  18.739  0.00  0.00    +0.000 C 
ATOM      4  C   UNL     1       4.166   1.893  17.610  0.00  0.00    +0.000 C 
ATOM      5  N   UNL     1       4.048   3.196  16.962  0.00  0.00    +0.000 N 
ATOM      6  C   UNL     1       2.708   3.578  16.514  0.00  0.00    +0.000 C 
ENDROOT
BRANCH   5   7
ATOM      7  C   UNL     1       5.135   3.916  16.496  0.00  0.00    +0.000 A 
ATOM      8  N   UNL     1       5.297   4.034  15.139  0.00  0.00    +0.000 NA
ATOM      9  C   UNL     1       6.300   4.762  14.618  0.00  0.00    +0.000 A 
ATOM     10  N   UNL     1       7.237   5.444  15.275  0.00  0.00    +0.000 NA
ATOM     11  C   UNL     1       7.080   5.300  16.596  0.00  0.00    +0.000 A 
ATOM     12  O   UNL     1       7.919   5.855  17.515  0.00  0.00    +0.000 OA
ATOM     13  C   UNL     1       7.431   5.426  18.715  0.00  0.00    +0.000 A 
ATOM     14  C   UNL     1       8.219   5.794  19.907  0.00  0.00    +0.000 C 
ATOM     15  N   UNL     1       6.349   4.679  18.642  0.00  0.00    +0.000 NA
ATOM     16  C   UNL     1       6.111   4.583  17.279  0.00  0.00    +0.000 A 
ENDBRANCH   5   7
BRANCH   1  18
ATOM     17  N   UNL     1       1.682   4.825  19.987  0.00  0.00    +0.000 N 
ATOM     18  C   UNL     1       2.139   4.832  18.666  0.00  0.00    +0.000 C 
ATOM     19  O   UNL     1       2.887   5.736  18.280  0.00  0.00    +0.000 OA
BRANCH  17  21
ATOM     20  C   UNL     1       1.308   7.129  20.901  0.00  0.00    +0.000 C 
ATOM     21  C   UNL     1       2.187   5.888  20.869  0.00  0.00    +0.000 C 
ENDBRANCH  17  21
BRANCH  17  22
ATOM     22  C   UNL     1       0.905   3.763  20.636  0.00  0.00    +0.000 C 
ATOM     23  C   UNL     1       1.634   3.082  21.786  0.00  0.00    +0.000 C 
ENDBRANCH  17  22
ENDBRANCH   1  18
TORSDOF 4
ENDMDL
MODEL 7
REMARK VINA RESULT:      -6.5      1.522      2.164
REMARK  Name = 
REMARK  7 active torsions:
REMARK  status: ('A' for Active; 'I' for Inactive)
REMARK    1  A    between atoms: C_1  and  C_2
REMARK    2  A    between atoms: C_2  and  N_3
REMARK    3  A    between atoms: N_3  and  C_4
REMARK    4  A    between atoms: C_4  and  C_5
REMARK    5  A    between atoms: C_6  and  C_8
REMARK    6  A    between atoms: N_12  and  C_13
REMARK    7  A    between atoms: C_19  and  C_20
REMARK                            x       y       z     vdW  Elec       q    Type
REMARK                         _______ _______ _______ _____ _____    ______ ____
ROOT
ATOM      1  C   UNL     1       1.876   3.738  17.716  0.00  0.00    +0.000 C 
ATOM      2  C   UNL     1       1.903   2.319  18.318  0.00  0.00    +0.000 C 
ATOM      3  C   UNL     1       3.304   1.828  18.695  0.00  0.00    +0.000 C 
ATOM      4  C   UNL     1       4.399   2.133  17.666  0.00  0.00    +0.000 C 
ATOM      5  N   UNL     1       4.232   3.474  17.113  0.00  0.00    +0.000 N 
ATOM      6  C   UNL     1       2.904   3.798  16.589  0.00  0.00    +0.000 C 
ENDROOT
BRANCH   5   7
ATOM      7  C   UNL     1       5.293   4.304  16.793  0.00  0.00    +0.000 A 
ATOM      8  N   UNL     1       5.776   5.139  17.769  0.00  0.00    +0.000 NA
ATOM      9  C   UNL     1       6.836   5.933  17.543  0.00  0.00    +0.000 A 
ATOM     10  N   UNL     1       7.550   6.040  16.423  0.00  0.00    +0.000 NA
ATOM     11  C   UNL     1       7.052   5.238  15.475  0.00  0.00    +0.000 A 
ATOM     12  O   UNL     1       7.557   5.169  14.210  0.00  0.00    +0.000 OA
ATOM     13  C   UNL     1       6.740   4.283  13.572  0.00  0.00    +0.000 A 
ATOM     14  C   UNL     1       6.991   4.089  12.130  0.00  0.00    +0.000 C 
ATOM     15  N   UNL     1       5.787   3.765  14.319  0.00  0.00    +0.000 NA
ATOM     16  C   UNL     1       5.971   4.375  15.550  0.00  0.00    +0.000 A 
ENDBRANCH   5   7
BRANCH   1  18
ATOM     17  N   UNL     1       1.568   4.661  20.068  0.00  0.00    +0.000 N 
ATOM     18  C   UNL     1       2.083   4.827  18.779  0.00  0.00    +0.000 C 
ATOM     19  O   UNL     1       2.756   5.829  18.512  0.00  0.00    +0.000 OA
BRANCH  17  21
ATOM     20  C   UNL     1       1.184   7.000  20.881  0.00  0.00    +0.000 C 
ATOM     21  C   UNL     1       1.924   5.684  21.062  0.00  0.00    +0.000 C 
ENDBRANCH  17  21
BRANCH  17  22
ATOM     22  C   UNL     1       0.868   3.477  20.581  0.00  0.00    +0.000 C 
ATOM     23  C   UNL     1       1.551   2.831  21.779  0.00  0.00    +0.000 C 
ENDBRANCH  17  22
ENDBRANCH   1  18
TORSDOF 4
ENDMDL
MODEL 8
REMARK VINA RESULT:      -6.3      2.346      6.449
REMARK  Name = 
REMARK  7 active torsions:
REMARK  status: ('A' for Active; 'I' for Inactive)
REMARK    1  A    between atoms: C_1  and  C_2
REMARK    2  A    between atoms: C_2  and  N_3
REMARK    3  A    between atoms: N_3  and  C_4
REMARK    4  A    between atoms: C_4  and  C_5
REMARK    5  A    between atoms: C_6  and  C_8
REMARK    6  A    between atoms: N_12  and  C_13
REMARK    7  A    between atoms: C_19  and  C_20
REMARK                            x       y       z     vdW  Elec       q    Type
REMARK                         _______ _______ _______ _____ _____    ______ ____
ROOT
ATOM      1  C   UNL     1       4.473   4.692  18.982  0.00  0.00    +0.000 C 
ATOM      2  C   UNL     1       3.680   3.528  18.356  0.00  0.00    +0.000 C 
ATOM      3  C   UNL     1       2.446   3.969  17.563  0.00  0.00    +0.000 C 
ATOM      4  C   UNL     1       1.603   5.064  18.229  0.00  0.00    +0.000 C 
ATOM      5  N   UNL     1       2.458   6.072  18.847  0.00  0.00    +0.000 N 
ATOM      6  C   UNL     1       3.495   5.575  19.753  0.00  0.00    +0.000 C 
ENDROOT
BRANCH   5   7
ATOM      7  C   UNL     1       2.155   7.423  18.862  0.00  0.00    +0.000 A 
ATOM      8  N   UNL     1       2.443   8.161  17.743  0.00  0.00    +0.000 NA
ATOM      9  C   UNL     1       2.128   9.466  17.669  0.00  0.00    +0.000 A 
ATOM     10  N   UNL     1       1.527  10.212  18.595  0.00  0.00    +0.000 NA
ATOM     11  C   UNL     1       1.275   9.484  19.688  0.00  0.00    +0.000 A 
ATOM     12  O   UNL     1       0.701   9.997  20.814  0.00  0.00    +0.000 OA
ATOM     13  C   UNL     1       0.672   8.946  21.682  0.00  0.00    +0.000 A 
ATOM     14  C   UNL     1       0.188   9.241  23.045  0.00  0.00    +0.000 C 
ATOM     15  N   UNL     1       1.144   7.813  21.204  0.00  0.00    +0.000 NA
ATOM     16  C   UNL     1       1.544   8.145  19.919  0.00  0.00    +0.000 A 
ENDBRANCH   5   7
BRANCH   1  18
ATOM     17  N   UNL     1       6.536   6.007  18.282  0.00  0.00    +0.000 N 
ATOM     18  C   UNL     1       5.293   5.467  17.940  0.00  0.00    +0.000 C 
ATOM     19  O   UNL     1       4.879   5.566  16.780  0.00  0.00    +0.000 OA
BRANCH  17  21
ATOM     20  C   UNL     1       7.745   8.048  17.473  0.00  0.00    +0.000 C 
ATOM     21  C   UNL     1       7.317   6.616  17.195  0.00  0.00    +0.000 C 
ENDBRANCH  17  21
BRANCH  17  22
ATOM     22  C   UNL     1       7.226   5.861  19.569  0.00  0.00    +0.000 C 
ATOM     23  C   UNL     1       8.558   5.128  19.473  0.00  0.00    +0.000 C 
ENDBRANCH  17  22
ENDBRANCH   1  18
TORSDOF 4
ENDMDL
MODEL 9
REMARK VINA RESULT:      -6.1      1.994      5.911
REMARK  Name = 
REMARK  7 active torsions:
REMARK  status: ('A' for Active; 'I' for Inactive)
REMARK    1  A    between atoms: C_1  and  C_2
REMARK    2  A    between atoms: C_2  and  N_3
REMARK    3  A    between atoms: N_3  and  C_4
REMARK    4  A    between atoms: C_4  and  C_5
REMARK    5  A    between atoms: C_6  and  C_8
REMARK    6  A    between atoms: N_12  and  C_13
REMARK    7  A    between atoms: C_19  and  C_20
REMARK                            x       y       z     vdW  Elec       q    Type
REMARK                         _______ _______ _______ _____ _____    ______ ____
ROOT
ATOM      1  C   UNL     1       6.918   4.851  17.075  0.00  0.00    +0.000 C 
ATOM      2  C   UNL     1       6.645   4.159  15.725  0.00  0.00    +0.000 C 
ATOM      3  C   UNL     1       5.187   4.247  15.263  0.00  0.00    +0.000 C 
ATOM      4  C   UNL     1       4.142   4.000  16.357  0.00  0.00    +0.000 C 
ATOM      5  N   UNL     1       4.539   4.642  17.606  0.00  0.00    +0.000 N 
ATOM      6  C   UNL     1       5.890   4.347  18.085  0.00  0.00    +0.000 C 
ENDROOT
BRANCH   5   7
ATOM      7  C   UNL     1       3.641   5.236  18.477  0.00  0.00    +0.000 A 
ATOM      8  N   UNL     1       3.409   6.582  18.344  0.00  0.00    +0.000 NA
ATOM      9  C   UNL     1       2.512   7.214  19.120  0.00  0.00    +0.000 A 
ATOM     10  N   UNL     1       1.749   6.687  20.077  0.00  0.00    +0.000 NA
ATOM     11  C   UNL     1       2.004   5.380  20.211  0.00  0.00    +0.000 A 
ATOM     12  O   UNL     1       1.400   4.590  21.142  0.00  0.00    +0.000 OA
ATOM     13  C   UNL     1       1.975   3.366  20.966  0.00  0.00    +0.000 A 
ATOM     14  C   UNL     1       1.580   2.317  21.926  0.00  0.00    +0.000 C 
ATOM     15  N   UNL     1       2.861   3.301  19.994  0.00  0.00    +0.000 NA
ATOM     16  C   UNL     1       2.897   4.595  19.499  0.00  0.00    +0.000 A 
ENDBRANCH   5   7
BRANCH   1  18
ATOM     17  N   UNL     1       7.653   7.152  17.877  0.00  0.00    +0.000 N 
ATOM     18  C   UNL     1       6.941   6.382  16.953  0.00  0.00    +0.000 C 
ATOM     19  O   UNL     1       6.376   6.933  16.001  0.00  0.00    +0.000 OA
BRANCH  17  21
ATOM     20  C   UNL     1       8.692   9.336  18.538  0.00  0.00    +0.000 C 
ATOM     21  C   UNL     1       7.737   8.596  17.613  0.00  0.00    +0.000 C 
ENDBRANCH  17  21
BRANCH  17  22
ATOM     22  C   UNL     1       8.484   6.647  18.976  0.00  0.00    +0.000 C 
ATOM     23  C   UNL     1       7.719   5.803  19.987  0.00  0.00    +0.000 C 
ENDBRANCH  17  22
ENDBRANCH   1  18
TORSDOF 4
ENDMDL
