MODEL 1
REMARK VINA RESULT:      -7.5      0.000      0.000
REMARK  Name = 
REMARK  7 active torsions:
REMARK  status: ('A' for Active; 'I' for Inactive)
REMARK    1  A    between atoms: C_1  and  C_2
REMARK    2  A    between atoms: C_2  and  S_3
REMARK    3  A    between atoms: S_3  and  C_6
REMARK    4  A    between atoms: C_11  and  C_12
REMARK    5  A    between atoms: N_17  and  C_18
REMARK    6  A    between atoms: C_21  and  O_22
REMARK    7  A    between atoms: O_22  and  C_23
REMARK                            x       y       z     vdW  Elec       q    Type
REMARK                         _______ _______ _______ _____ _____    ______ ____
ROOT
ATOM      1  C   UNL     1       0.345   9.499  20.445  0.00  0.00    +0.000 C 
ATOM      2  O   UNL     1      -0.070   9.109  21.537  0.00  0.00    +0.000 OA
ATOM      3  N   UNL     1       1.418   8.872  19.812  0.00  0.00    +0.000 N 
ATOM      4  C   UNL     1       2.003   7.674  20.434  0.00  0.00    +0.000 C 
ATOM      5  C   UNL     1       2.170   6.530  19.411  0.00  0.00    +0.000 C 
ATOM      6  N   UNL     1       2.952   7.026  18.267  0.00  0.00    +0.000 N 
ATOM      7  C   UNL     1       2.367   8.209  17.598  0.00  0.00    +0.000 C 
ATOM      8  C   UNL     1       2.170   9.339  18.630  0.00  0.00    +0.000 C 
ENDROOT
BRANCH   1  14
ATOM      9  C   UNL     1      -2.262  11.286  18.644  0.00  0.00    +0.000 A 
ATOM     10  N   UNL     1      -1.948  12.593  18.659  0.00  0.00    +0.000 NA
ATOM     11  C   UNL     1      -0.776  12.878  19.270  0.00  0.00    +0.000 A 
ATOM     12  C   UNL     1       0.070  11.934  19.828  0.00  0.00    +0.000 A 
ATOM     13 CL   UNL     1       1.591  12.452  20.433  0.00  0.00    +0.000 Cl
ATOM     14  C   UNL     1      -0.392  10.625  19.780  0.00  0.00    +0.000 A 
ATOM     15  N   UNL     1      -1.572  10.281  19.205  0.00  0.00    +0.000 NA
BRANCH   9  16
ATOM     16  S   UNL     1      -3.493  10.793  17.439  0.00  0.00    +0.000 S 
ATOM     17  O   UNL     1      -4.637  11.688  17.565  0.00  0.00    +0.000 OA
ATOM     18  O   UNL     1      -3.683   9.357  17.565  0.00  0.00    +0.000 OA
BRANCH  16  20
ATOM     19  C   UNL     1      -2.908   9.982  14.909  0.00  0.00    +0.000 C 
ATOM     20  C   UNL     1      -2.719  11.136  15.877  0.00  0.00    +0.000 C 
ENDBRANCH  16  20
ENDBRANCH   9  16
ENDBRANCH   1  14
BRANCH   6  21
ATOM     21  C   UNL     1       3.804   6.200  17.557  0.00  0.00    +0.000 A 
ATOM     22  C   UNL     1       4.871   6.670  16.782  0.00  0.00    +0.000 A 
ATOM     23  C   UNL     1       5.666   5.793  16.028  0.00  0.00    +0.000 A 
ATOM     24  C   UNL     1       5.416   4.422  16.036  0.00  0.00    +0.000 A 
ATOM     25  C   UNL     1       4.351   3.937  16.784  0.00  0.00    +0.000 A 
ATOM     26  C   UNL     1       3.564   4.818  17.532  0.00  0.00    +0.000 A 
BRANCH  24  27
ATOM     27  O   UNL     1       6.238   3.660  15.251  0.00  0.00    +0.000 OA
ATOM     28  C   UNL     1       6.119   3.884  13.849  0.00  0.00    +0.000 C 
ENDBRANCH  24  27
ENDBRANCH   6  21
TORSDOF 5
ENDMDL
MODEL 2
REMARK VINA RESULT:      -7.5      4.070      9.057
REMARK  Name = 
REMARK  7 active torsions:
REMARK  status: ('A' for Active; 'I' for Inactive)
REMARK    1  A    between atoms: C_1  and  C_2
REMARK    2  A    between atoms: C_2  and  S_3
REMARK    3  A    between atoms: S_3  and  C_6
REMARK    4  A    between atoms: C_11  and  C_12
REMARK    5  A    between atoms: N_17  and  C_18
REMARK    6  A    between atoms: C_21  and  O_22
REMARK    7  A    between atoms: O_22  and  C_23
REMARK                            x       y       z     vdW  Elec       q    Type
REMARK                         _______ _______ _______ _____ _____    ______ ____
ROOT
ATOM      1  C   UNL     1       2.638   5.679  19.898  0.00  0.00    +0.000 C 
ATOM      2  O   UNL     1       2.564   5.167  21.015  0.00  0.00    +0.000 OA
ATOM      3  N   UNL     1       1.970   6.866  19.599  0.00  0.00    +0.000 N 
ATOM      4  C   UNL     1       1.231   7.550  20.671  0.00  0.00    +0.000 C 
ATOM      5  C   UNL     1       1.571   9.055  20.721  0.00  0.00    +0.000 C 
ATOM      6  N   UNL     1       1.332   9.641  19.392  0.00  0.00    +0.000 N 
ATOM      7  C   UNL     1       2.093   8.996  18.298  0.00  0.00    +0.000 C 
ATOM      8  C   UNL     1       1.776   7.487  18.273  0.00  0.00    +0.000 C 
ENDROOT
BRANCH   1  14
ATOM      9  C   UNL     1       5.681   4.596  18.224  0.00  0.00    +0.000 A 
ATOM     10  N   UNL     1       5.327   3.762  17.230  0.00  0.00    +0.000 NA
ATOM     11  C   UNL     1       3.993   3.593  17.092  0.00  0.00    +0.000 A 
ATOM     12  C   UNL     1       3.037   4.221  17.873  0.00  0.00    +0.000 A 
ATOM     13 CL   UNL     1       1.381   4.010  17.467  0.00  0.00    +0.000 Cl
ATOM     14  C   UNL     1       3.537   5.025  18.889  0.00  0.00    +0.000 A 
ATOM     15  N   UNL     1       4.866   5.211  19.093  0.00  0.00    +0.000 NA
BRANCH   9  16
ATOM     16  S   UNL     1       7.345   5.255  18.135  0.00  0.00    +0.000 S 
ATOM     17  O   UNL     1       8.113   4.427  17.212  0.00  0.00    +0.000 OA
ATOM     18  O   UNL     1       7.817   5.446  19.496  0.00  0.00    +0.000 OA
BRANCH  16  20
ATOM     19  C   UNL     1       8.028   7.885  18.017  0.00  0.00    +0.000 C 
ATOM     20  C   UNL     1       7.131   6.845  17.371  0.00  0.00    +0.000 C 
ENDBRANCH  16  20
ENDBRANCH   9  16
ENDBRANCH   1  14
BRANCH   6  21
ATOM     21  C   UNL     1       0.906  10.947  19.240  0.00  0.00    +0.000 A 
ATOM     22  C   UNL     1       1.697  11.961  18.688  0.00  0.00    +0.000 A 
ATOM     23  C   UNL     1       1.239  13.286  18.616  0.00  0.00    +0.000 A 
ATOM     24  C   UNL     1      -0.026  13.628  19.090  0.00  0.00    +0.000 A 
ATOM     25  C   UNL     1      -0.820  12.641  19.658  0.00  0.00    +0.000 A 
ATOM     26  C   UNL     1      -0.356  11.323  19.726  0.00  0.00    +0.000 A 
BRANCH  24  27
ATOM     27  O   UNL     1      -0.364  14.949  18.990  0.00  0.00    +0.000 OA
ATOM     28  C   UNL     1       0.725  15.843  18.779  0.00  0.00    +0.000 C 
ENDBRANCH  24  27
ENDBRANCH   6  21
TORSDOF 5
ENDMDL
MODEL 3
REMARK VINA RESULT:      -7.4      0.982      1.227
REMARK  Name = 
REMARK  7 active torsions:
REMARK  status: ('A' for Active; 'I' for Inactive)
REMARK    1  A    between atoms: C_1  and  C_2
REMARK    2  A    between atoms: C_2  and  S_3
REMARK    3  A    between atoms: S_3  and  C_6
REMARK    4  A    between atoms: C_11  and  C_12
REMARK    5  A    between atoms: N_17  and  C_18
REMARK    6  A    between atoms: C_21  and  O_22
REMARK    7  A    between atoms: O_22  and  C_23
REMARK                            x       y       z     vdW  Elec       q    Type
REMARK                         _______ _______ _______ _____ _____    ______ ____
ROOT
ATOM      1  C   UNL     1       0.250   9.560  20.457  0.00  0.00    +0.000 C 
ATOM      2  O   UNL     1      -0.144   9.217  21.572  0.00  0.00    +0.000 OA
ATOM      3  N   UNL     1       1.313   8.907  19.832  0.00  0.00    +0.000 N 
ATOM      4  C   UNL     1       1.912   7.739  20.495  0.00  0.00    +0.000 C 
ATOM      5  C   UNL     1       2.064   6.551  19.520  0.00  0.00    +0.000 C 
ATOM      6  N   UNL     1       2.823   6.998  18.342  0.00  0.00    +0.000 N 
ATOM      7  C   UNL     1       2.222   8.149  17.632  0.00  0.00    +0.000 C 
ATOM      8  C   UNL     1       2.042   9.323  18.617  0.00  0.00    +0.000 C 
ENDROOT
BRANCH   1  14
ATOM      9  C   UNL     1      -2.240  11.207  18.378  0.00  0.00    +0.000 A 
ATOM     10  N   UNL     1      -2.087  12.534  18.530  0.00  0.00    +0.000 NA
ATOM     11  C   UNL     1      -1.064  12.889  19.340  0.00  0.00    +0.000 A 
ATOM     12  C   UNL     1      -0.210  11.995  19.964  0.00  0.00    +0.000 A 
ATOM     13 CL   UNL     1       1.129  12.618  20.841  0.00  0.00    +0.000 Cl
ATOM     14  C   UNL     1      -0.503  10.653  19.756  0.00  0.00    +0.000 A 
ATOM     15  N   UNL     1      -1.532  10.237  18.976  0.00  0.00    +0.000 NA
BRANCH   9  16
ATOM     16  S   UNL     1      -3.205  10.690  16.959  0.00  0.00    +0.000 S 
ATOM     17  O   UNL     1      -3.508   9.272  17.109  0.00  0.00    +0.000 OA
ATOM     18  O   UNL     1      -2.520  11.159  15.766  0.00  0.00    +0.000 OA
BRANCH  16  20
ATOM     19  C   UNL     1      -5.578  10.996  18.251  0.00  0.00    +0.000 C 
ATOM     20  C   UNL     1      -4.731  11.582  17.136  0.00  0.00    +0.000 C 
ENDBRANCH  16  20
ENDBRANCH   9  16
ENDBRANCH   1  14
BRANCH   6  21
ATOM     21  C   UNL     1       3.664   6.143  17.653  0.00  0.00    +0.000 A 
ATOM     22  C   UNL     1       4.725   6.580  16.850  0.00  0.00    +0.000 A 
ATOM     23  C   UNL     1       5.508   5.673  16.120  0.00  0.00    +0.000 A 
ATOM     24  C   UNL     1       5.253   4.304  16.180  0.00  0.00    +0.000 A 
ATOM     25  C   UNL     1       4.195   3.851  16.957  0.00  0.00    +0.000 A 
ATOM     26  C   UNL     1       3.419   4.762  17.680  0.00  0.00    +0.000 A 
BRANCH  24  27
ATOM     27  O   UNL     1       6.063   3.511  15.415  0.00  0.00    +0.000 OA
ATOM     28  C   UNL     1       6.463   4.073  14.168  0.00  0.00    +0.000 C 
ENDBRANCH  24  27
ENDBRANCH   6  21
TORSDOF 5
ENDMDL
MODEL 4
REMARK VINA RESULT:      -7.4      4.139      9.158
REMARK  Name = 
REMARK  7 active torsions:
REMARK  status: ('A' for Active; 'I' for Inactive)
REMARK    1  A    between atoms: C_1  and  C_2
REMARK    2  A    between atoms: C_2  and  S_3
REMARK    3  A    between atoms: S_3  and  C_6
REMARK    4  A    between atoms: C_11  and  C_12
REMARK    5  A    between atoms: N_17  and  C_18
REMARK    6  A    between atoms: C_21  and  O_22
REMARK    7  A    between atoms: O_22  and  C_23
REMARK                            x       y       z     vdW  Elec       q    Type
REMARK                         _______ _______ _______ _____ _____    ______ ____
ROOT
ATOM      1  C   UNL     1       2.612   5.566  20.018  0.00  0.00    +0.000 C 
ATOM      2  O   UNL     1       2.535   4.981  21.099  0.00  0.00    +0.000 OA
ATOM      3  N   UNL     1       1.945   6.770  19.797  0.00  0.00    +0.000 N 
ATOM      4  C   UNL     1       1.203   7.382  20.910  0.00  0.00    +0.000 C 
ATOM      5  C   UNL     1       1.543   8.880  21.062  0.00  0.00    +0.000 C 
ATOM      6  N   UNL     1       1.308   9.553  19.775  0.00  0.00    +0.000 N 
ATOM      7  C   UNL     1       2.071   8.982  18.642  0.00  0.00    +0.000 C 
ATOM      8  C   UNL     1       1.755   7.478  18.515  0.00  0.00    +0.000 C 
ENDROOT
BRANCH   1  14
ATOM      9  C   UNL     1       5.660   4.604  18.280  0.00  0.00    +0.000 A 
ATOM     10  N   UNL     1       5.310   3.832  17.237  0.00  0.00    +0.000 NA
ATOM     11  C   UNL     1       3.976   3.665  17.089  0.00  0.00    +0.000 A 
ATOM     12  C   UNL     1       3.017   4.238  17.907  0.00  0.00    +0.000 A 
ATOM     13 CL   UNL     1       1.363   4.044  17.490  0.00  0.00    +0.000 Cl
ATOM     14  C   UNL     1       3.514   4.980  18.971  0.00  0.00    +0.000 A 
ATOM     15  N   UNL     1       4.842   5.160  19.186  0.00  0.00    +0.000 NA
BRANCH   9  16
ATOM     16  S   UNL     1       7.321   5.277  18.232  0.00  0.00    +0.000 S 
ATOM     17  O   UNL     1       8.135   4.414  17.384  0.00  0.00    +0.000 OA
ATOM     18  O   UNL     1       7.731   5.538  19.601  0.00  0.00    +0.000 OA
BRANCH  16  20
ATOM     19  C   UNL     1       8.042   7.886  17.968  0.00  0.00    +0.000 C 
ATOM     20  C   UNL     1       7.126   6.826  17.383  0.00  0.00    +0.000 C 
ENDBRANCH  16  20
ENDBRANCH   9  16
ENDBRANCH   1  14
BRANCH   6  21
ATOM     21  C   UNL     1       0.882  10.867  19.709  0.00  0.00    +0.000 A 
ATOM     22  C   UNL     1      -0.133  11.394  20.516  0.00  0.00    +0.000 A 
ATOM     23  C   UNL     1      -0.573  12.718  20.364  0.00  0.00    +0.000 A 
ATOM     24  C   UNL     1      -0.002  13.550  19.404  0.00  0.00    +0.000 A 
ATOM     25  C   UNL     1       0.994  13.042  18.580  0.00  0.00    +0.000 A 
ATOM     26  C   UNL     1       1.425  11.721  18.738  0.00  0.00    +0.000 A 
BRANCH  24  27
ATOM     27  O   UNL     1      -0.518  14.815  19.326  0.00  0.00    +0.000 OA
ATOM     28  C   UNL     1      -1.401  15.178  20.384  0.00  0.00    +0.000 C 
ENDBRANCH  24  27
ENDBRANCH   6  21
TORSDOF 5
ENDMDL
MODEL 5
REMARK VINA RESULT:      -7.2      3.984      8.940
REMARK  Name = 
REMARK  7 active torsions:
REMARK  status: ('A' for Active; 'I' for Inactive)
REMARK    1  A    between atoms: C_1  and  C_2
REMARK    2  A    between atoms: C_2  and  S_3
REMARK    3  A    between atoms: S_3  and  C_6
REMARK    4  A    between atoms: C_11  and  C_12
REMARK    5  A    between atoms: N_17  and  C_18
REMARK    6  A    between atoms: C_21  and  O_22
REMARK    7  A    between atoms: O_22  and  C_23
REMARK                            x       y       z     vdW  Elec       q    Type
REMARK                         _______ _______ _______ _____ _____    ______ ____
ROOT
ATOM      1  C   UNL     1       2.663   5.554  19.761  0.00  0.00    +0.000 C 
ATOM      2  O   UNL     1       2.654   5.055  20.887  0.00  0.00    +0.000 OA
ATOM      3  N   UNL     1       1.993   6.747  19.492  0.00  0.00    +0.000 N 
ATOM      4  C   UNL     1       1.334   7.453  20.601  0.00  0.00    +0.000 C 
ATOM      5  C   UNL     1       1.696   8.953  20.612  0.00  0.00    +0.000 C 
ATOM      6  N   UNL     1       1.380   9.528  19.294  0.00  0.00    +0.000 N 
ATOM      7  C   UNL     1       2.060   8.861  18.161  0.00  0.00    +0.000 C 
ATOM      8  C   UNL     1       1.723   7.356  18.174  0.00  0.00    +0.000 C 
ENDROOT
BRANCH   1  14
ATOM      9  C   UNL     1       5.439   4.851  17.517  0.00  0.00    +0.000 A 
ATOM     10  N   UNL     1       5.190   3.677  16.913  0.00  0.00    +0.000 NA
ATOM     11  C   UNL     1       4.006   3.117  17.248  0.00  0.00    +0.000 A 
ATOM     12  C   UNL     1       3.089   3.681  18.119  0.00  0.00    +0.000 A 
ATOM     13 CL   UNL     1       1.568   2.909  18.320  0.00  0.00    +0.000 Cl
ATOM     14  C   UNL     1       3.487   4.876  18.705  0.00  0.00    +0.000 A 
ATOM     15  N   UNL     1       4.674   5.471  18.428  0.00  0.00    +0.000 NA
BRANCH   9  16
ATOM     16  S   UNL     1       6.700   5.870  16.754  0.00  0.00    +0.000 S 
ATOM     17  O   UNL     1       6.036   6.920  15.991  0.00  0.00    +0.000 OA
ATOM     18  O   UNL     1       7.642   4.983  16.092  0.00  0.00    +0.000 OA
BRANCH  16  20
ATOM     19  C   UNL     1       7.901   8.074  17.801  0.00  0.00    +0.000 C 
ATOM     20  C   UNL     1       7.510   6.645  18.132  0.00  0.00    +0.000 C 
ENDBRANCH  16  20
ENDBRANCH   9  16
ENDBRANCH   1  14
BRANCH   6  21
ATOM     21  C   UNL     1       0.963  10.838  19.155  0.00  0.00    +0.000 A 
ATOM     22  C   UNL     1      -0.340  11.270  19.432  0.00  0.00    +0.000 A 
ATOM     23  C   UNL     1      -0.730  12.600  19.212  0.00  0.00    +0.000 A 
ATOM     24  C   UNL     1       0.177  13.534  18.713  0.00  0.00    +0.000 A 
ATOM     25  C   UNL     1       1.469  13.122  18.414  0.00  0.00    +0.000 A 
ATOM     26  C   UNL     1       1.849  11.795  18.637  0.00  0.00    +0.000 A 
BRANCH  24  27
ATOM     27  O   UNL     1      -0.312  14.796  18.516  0.00  0.00    +0.000 OA
ATOM     28  C   UNL     1      -0.544  15.550  19.703  0.00  0.00    +0.000 C 
ENDBRANCH  24  27
ENDBRANCH   6  21
TORSDOF 5
ENDMDL
MODEL 6
REMARK VINA RESULT:      -6.9      3.214      4.459
REMARK  Name = 
REMARK  7 active torsions:
REMARK  status: ('A' for Active; 'I' for Inactive)
REMARK    1  A    between atoms: C_1  and  C_2
REMARK    2  A    between atoms: C_2  and  S_3
REMARK    3  A    between atoms: S_3  and  C_6
REMARK    4  A    between atoms: C_11  and  C_12
REMARK    5  A    between atoms: N_17  and  C_18
REMARK    6  A    between atoms: C_21  and  O_22
REMARK    7  A    between atoms: O_22  and  C_23
REMARK                            x       y       z     vdW  Elec       q    Type
REMARK                         _______ _______ _______ _____ _____    ______ ____
ROOT
ATOM      1  C   UNL     1      -1.264  11.869  19.667  0.00  0.00    +0.000 C 
ATOM      2  O   UNL     1      -1.640  12.514  18.687  0.00  0.00    +0.000 OA
ATOM      3  N   UNL     1      -0.612  10.645  19.521  0.00  0.00    +0.000 N 
ATOM      4  C   UNL     1      -0.305  10.164  18.165  0.00  0.00    +0.000 C 
ATOM      5  C   UNL     1       1.162   9.697  18.049  0.00  0.00    +0.000 C 
ATOM      6  N   UNL     1       1.423   8.690  19.090  0.00  0.00    +0.000 N 
ATOM      7  C   UNL     1       1.159   9.158  20.469  0.00  0.00    +0.000 C 
ATOM      8  C   UNL     1      -0.298   9.655  20.572  0.00  0.00    +0.000 C 
ENDROOT
BRANCH   1  14
ATOM      9  C   UNL     1      -2.808  12.699  22.854  0.00  0.00    +0.000 A 
ATOM     10  N   UNL     1      -1.911  13.393  23.575  0.00  0.00    +0.000 NA
ATOM     11  C   UNL     1      -0.743  13.629  22.936  0.00  0.00    +0.000 A 
ATOM     12  C   UNL     1      -0.462  13.226  21.641  0.00  0.00    +0.000 A 
ATOM     13 CL   UNL     1       1.015  13.738  20.928  0.00  0.00    +0.000 Cl
ATOM     14  C   UNL     1      -1.459  12.483  21.022  0.00  0.00    +0.000 A 
ATOM     15  N   UNL     1      -2.640  12.192  21.624  0.00  0.00    +0.000 NA
BRANCH   9  16
ATOM     16  S   UNL     1      -4.507  12.798  23.416  0.00  0.00    +0.000 S 
ATOM     17  O   UNL     1      -4.609  12.080  24.681  0.00  0.00    +0.000 OA
ATOM     18  O   UNL     1      -5.363  12.423  22.303  0.00  0.00    +0.000 OA
BRANCH  16  20
ATOM     19  C   UNL     1      -4.749  15.342  22.485  0.00  0.00    +0.000 C 
ATOM     20  C   UNL     1      -4.738  14.525  23.765  0.00  0.00    +0.000 C 
ENDBRANCH  16  20
ENDBRANCH   9  16
ENDBRANCH   1  14
BRANCH   6  21
ATOM     21  C   UNL     1       2.312   7.651  18.888  0.00  0.00    +0.000 A 
ATOM     22  C   UNL     1       2.467   6.579  19.776  0.00  0.00    +0.000 A 
ATOM     23  C   UNL     1       3.431   5.583  19.557  0.00  0.00    +0.000 A 
ATOM     24  C   UNL     1       4.261   5.631  18.438  0.00  0.00    +0.000 A 
ATOM     25  C   UNL     1       4.136   6.695  17.554  0.00  0.00    +0.000 A 
ATOM     26  C   UNL     1       3.174   7.683  17.781  0.00  0.00    +0.000 A 
BRANCH  24  27
ATOM     27  O   UNL     1       5.178   4.622  18.331  0.00  0.00    +0.000 OA
ATOM     28  C   UNL     1       5.769   4.471  17.043  0.00  0.00    +0.000 C 
ENDBRANCH  24  27
ENDBRANCH   6  21
TORSDOF 5
ENDMDL
MODEL 7
REMARK VINA RESULT:      -6.9      4.134      9.002
REMARK  Name = 
REMARK  7 active torsions:
REMARK  status: ('A' for Active; 'I' for Inactive)
REMARK    1  A    between atoms: C_1  and  C_2
REMARK    2  A    between atoms: C_2  and  S_3
REMARK    3  A    between atoms: S_3  and  C_6
REMARK    4  A    between atoms: C_11  and  C_12
REMARK    5  A    between atoms: N_17  and  C_18
REMARK    6  A    between atoms: C_21  and  O_22
REMARK    7  A    between atoms: O_22  and  C_23
REMARK                            x       y       z     vdW  Elec       q    Type
REMARK                         _______ _______ _______ _____ _____    ______ ____
ROOT
ATOM      1  C   UNL     1       2.764   5.121  19.710  0.00  0.00    +0.000 C 
ATOM      2  O   UNL     1       2.765   4.508  20.778  0.00  0.00    +0.000 OA
ATOM      3  N   UNL     1       2.056   6.313  19.560  0.00  0.00    +0.000 N 
ATOM      4  C   UNL     1       1.368   6.878  20.730  0.00  0.00    +0.000 C 
ATOM      5  C   UNL     1       1.680   8.381  20.900  0.00  0.00    +0.000 C 
ATOM      6  N   UNL     1       1.352   9.078  19.647  0.00  0.00    +0.000 N 
ATOM      7  C   UNL     1       2.060   8.556  18.457  0.00  0.00    +0.000 C 
ATOM      8  C   UNL     1       1.772   7.047  18.310  0.00  0.00    +0.000 C 
ENDROOT
BRANCH   1  14
ATOM      9  C   UNL     1       5.543   4.788  17.386  0.00  0.00    +0.000 A 
ATOM     10  N   UNL     1       5.368   3.647  16.699  0.00  0.00    +0.000 NA
ATOM     11  C   UNL     1       4.233   2.979  17.006  0.00  0.00    +0.000 A 
ATOM     12  C   UNL     1       3.293   3.410  17.928  0.00  0.00    +0.000 A 
ATOM     13 CL   UNL     1       1.835   2.517  18.089  0.00  0.00    +0.000 Cl
ATOM     14  C   UNL     1       3.615   4.584  18.596  0.00  0.00    +0.000 A 
ATOM     15  N   UNL     1       4.752   5.283  18.350  0.00  0.00    +0.000 NA
BRANCH   9  16
ATOM     16  S   UNL     1       6.715   5.949  16.685  0.00  0.00    +0.000 S 
ATOM     17  O   UNL     1       5.964   7.019  16.041  0.00  0.00    +0.000 OA
ATOM     18  O   UNL     1       7.686   5.187  15.918  0.00  0.00    +0.000 OA
BRANCH  16  20
ATOM     19  C   UNL     1       7.936   8.084  17.847  0.00  0.00    +0.000 C 
ATOM     20  C   UNL     1       7.522   6.647  18.106  0.00  0.00    +0.000 C 
ENDBRANCH  16  20
ENDBRANCH   9  16
ENDBRANCH   1  14
BRANCH   6  21
ATOM     21  C   UNL     1       0.892  10.382  19.640  0.00  0.00    +0.000 A 
ATOM     22  C   UNL     1       1.203  11.309  18.638  0.00  0.00    +0.000 A 
ATOM     23  C   UNL     1       0.763  12.640  18.713  0.00  0.00    +0.000 A 
ATOM     24  C   UNL     1      -0.006  13.074  19.791  0.00  0.00    +0.000 A 
ATOM     25  C   UNL     1      -0.312  12.176  20.804  0.00  0.00    +0.000 A 
ATOM     26  C   UNL     1       0.132  10.852  20.722  0.00  0.00    +0.000 A 
BRANCH  24  27
ATOM     27  O   UNL     1      -0.365  14.394  19.775  0.00  0.00    +0.000 OA
ATOM     28  C   UNL     1      -1.473  14.734  20.605  0.00  0.00    +0.000 C 
ENDBRANCH  24  27
ENDBRANCH   6  21
TORSDOF 5
ENDMDL
MODEL 8
REMARK VINA RESULT:      -6.8      3.862      8.868
REMARK  Name = 
REMARK  7 active torsions:
REMARK  status: ('A' for Active; 'I' for Inactive)
REMARK    1  A    between atoms: C_1  and  C_2
REMARK    2  A    between atoms: C_2  and  S_3
REMARK    3  A    between atoms: S_3  and  C_6
REMARK    4  A    between atoms: C_11  and  C_12
REMARK    5  A    between atoms: N_17  and  C_18
REMARK    6  A    between atoms: C_21  and  O_22
REMARK    7  A    between atoms: O_22  and  C_23
REMARK                            x       y       z     vdW  Elec       q    Type
REMARK                         _______ _______ _______ _____ _____    ______ ____
ROOT
ATOM      1  C   UNL     1       3.193   7.316  17.541  0.00  0.00    +0.000 C 
ATOM      2  O   UNL     1       3.394   7.752  16.407  0.00  0.00    +0.000 OA
ATOM      3  N   UNL     1       2.600   8.106  18.526  0.00  0.00    +0.000 N 
ATOM      4  C   UNL     1       2.139   9.456  18.166  0.00  0.00    +0.000 C 
ATOM      5  C   UNL     1       0.700   9.713  18.662  0.00  0.00    +0.000 C 
ATOM      6  N   UNL     1       0.642   9.451  20.109  0.00  0.00    +0.000 N 
ATOM      7  C   UNL     1       1.064   8.087  20.497  0.00  0.00    +0.000 C 
ATOM      8  C   UNL     1       2.490   7.821  19.971  0.00  0.00    +0.000 C 
ENDROOT
BRANCH   1  14
ATOM      9  C   UNL     1       2.762   3.772  18.237  0.00  0.00    +0.000 A 
ATOM     10  N   UNL     1       3.970   3.188  18.153  0.00  0.00    +0.000 NA
ATOM     11  C   UNL     1       4.985   4.042  17.891  0.00  0.00    +0.000 A 
ATOM     12  C   UNL     1       4.840   5.411  17.736  0.00  0.00    +0.000 A 
ATOM     13 CL   UNL     1       6.254   6.368  17.554  0.00  0.00    +0.000 Cl
ATOM     14  C   UNL     1       3.535   5.879  17.807  0.00  0.00    +0.000 A 
ATOM     15  N   UNL     1       2.473   5.067  18.041  0.00  0.00    +0.000 NA
BRANCH   9  16
ATOM     16  S   UNL     1       1.492   2.820  19.070  0.00  0.00    +0.000 S 
ATOM     17  O   UNL     1       2.106   1.611  19.603  0.00  0.00    +0.000 OA
ATOM     18  O   UNL     1       0.357   2.716  18.168  0.00  0.00    +0.000 OA
BRANCH  16  20
ATOM     19  C   UNL     1       2.140   3.865  21.496  0.00  0.00    +0.000 C 
ATOM     20  C   UNL     1       1.038   3.839  20.453  0.00  0.00    +0.000 C 
ENDBRANCH  16  20
ENDBRANCH   9  16
ENDBRANCH   1  14
BRANCH   6  21
ATOM     21  C   UNL     1      -0.205  10.159  20.942  0.00  0.00    +0.000 A 
ATOM     22  C   UNL     1      -0.940  11.277  20.531  0.00  0.00    +0.000 A 
ATOM     23  C   UNL     1      -1.736  11.999  21.434  0.00  0.00    +0.000 A 
ATOM     24  C   UNL     1      -1.821  11.615  22.770  0.00  0.00    +0.000 A 
ATOM     25  C   UNL     1      -1.086  10.519  23.203  0.00  0.00    +0.000 A 
ATOM     26  C   UNL     1      -0.296   9.806  22.297  0.00  0.00    +0.000 A 
BRANCH  24  27
ATOM     27  O   UNL     1      -2.608  12.399  23.569  0.00  0.00    +0.000 OA
ATOM     28  C   UNL     1      -3.730  12.994  22.922  0.00  0.00    +0.000 C 
ENDBRANCH  24  27
ENDBRANCH   6  21
TORSDOF 5
ENDMDL
MODEL 9
REMARK VINA RESULT:      -6.7      3.158      4.370
REMARK  Name = 
REMARK  7 active torsions:
REMARK  status: ('A' for Active; 'I' for Inactive)
REMARK    1  A    between atoms: C_1  and  C_2
REMARK    2  A    between atoms: C_2  and  S_3
REMARK    3  A    between atoms: S_3  and  C_6
REMARK    4  A    between atoms: C_11  and  C_12
REMARK    5  A    between atoms: N_17  and  C_18
REMARK    6  A    between atoms: C_21  and  O_22
REMARK    7  A    between atoms: O_22  and  C_23
REMARK                            x       y       z     vdW  Elec       q    Type
REMARK                         _______ _______ _______ _____ _____    ______ ____
ROOT
ATOM      1  C   UNL     1      -0.818  11.823  19.282  0.00  0.00    +0.000 C 
ATOM      2  O   UNL     1      -0.936  12.493  18.256  0.00  0.00    +0.000 OA
ATOM      3  N   UNL     1      -0.273  10.540  19.250  0.00  0.00    +0.000 N 
ATOM      4  C   UNL     1       0.241  10.022  17.973  0.00  0.00    +0.000 C 
ATOM      5  C   UNL     1       1.650   9.414  18.134  0.00  0.00    +0.000 C 
ATOM      6  N   UNL     1       1.609   8.394  19.194  0.00  0.00    +0.000 N 
ATOM      7  C   UNL     1       1.132   8.896  20.502  0.00  0.00    +0.000 C 
ATOM      8  C   UNL     1      -0.262   9.533  20.330  0.00  0.00    +0.000 C 
ENDROOT
BRANCH   1  14
ATOM      9  C   UNL     1      -2.875  12.885  22.088  0.00  0.00    +0.000 A 
ATOM     10  N   UNL     1      -2.063  13.437  23.005  0.00  0.00    +0.000 NA
ATOM     11  C   UNL     1      -0.763  13.492  22.639  0.00  0.00    +0.000 A 
ATOM     12  C   UNL     1      -0.270  13.048  21.423  0.00  0.00    +0.000 A 
ATOM     13 CL   UNL     1       1.384  13.328  21.058  0.00  0.00    +0.000 Cl
ATOM     14  C   UNL     1      -1.209  12.462  20.582  0.00  0.00    +0.000 A 
ATOM     15  N   UNL     1      -2.522  12.355  20.908  0.00  0.00    +0.000 NA
BRANCH   9  16
ATOM     16  S   UNL     1      -4.622  13.242  22.276  0.00  0.00    +0.000 S 
ATOM     17  O   UNL     1      -5.374  12.225  21.550  0.00  0.00    +0.000 OA
ATOM     18  O   UNL     1      -4.821  14.647  21.963  0.00  0.00    +0.000 OA
BRANCH  16  20
ATOM     19  C   UNL     1      -6.372  12.618  24.263  0.00  0.00    +0.000 C 
ATOM     20  C   UNL     1      -4.922  12.989  24.009  0.00  0.00    +0.000 C 
ENDBRANCH  16  20
ENDBRANCH   9  16
ENDBRANCH   1  14
BRANCH   6  21
ATOM     21  C   UNL     1       2.416   7.272  19.154  0.00  0.00    +0.000 A 
ATOM     22  C   UNL     1       3.364   7.034  18.151  0.00  0.00    +0.000 A 
ATOM     23  C   UNL     1       4.112   5.847  18.122  0.00  0.00    +0.000 A 
ATOM     24  C   UNL     1       3.936   4.871  19.100  0.00  0.00    +0.000 A 
ATOM     25  C   UNL     1       2.989   5.079  20.094  0.00  0.00    +0.000 A 
ATOM     26  C   UNL     1       2.247   6.264  20.115  0.00  0.00    +0.000 A 
BRANCH  24  27
ATOM     27  O   UNL     1       4.701   3.745  18.966  0.00  0.00    +0.000 OA
ATOM     28  C   UNL     1       4.205   2.589  19.635  0.00  0.00    +0.000 C 
ENDBRANCH  24  27
ENDBRANCH   6  21
TORSDOF 5
ENDMDL
