MODEL 1
REMARK VINA RESULT:      -7.2      0.000      0.000
REMARK  Name = 
REMARK  10 active torsions:
REMARK  status: ('A' for Active; 'I' for Inactive)
REMARK    1  A    between atoms: C_1  and  C_2
REMARK    2  A    between atoms: C_5  and  C_6
REMARK    3  A    between atoms: C_8  and  C_9
REMARK    4  A    between atoms: N_11  and  C_12
REMARK    5  A    between atoms: C_12  and  C_13
REMARK    6  A    between atoms: C_13  and  C_14
REMARK    7  A    between atoms: C_14  and  C_15
REMARK    8  A    between atoms: C_15  and  C_16
REMARK    9  A    between atoms: N_18  and  O_19
REMARK   10  A    between atoms: C_20  and  C_21
REMARK                            x       y       z     vdW  Elec       q    Type
REMARK                         _______ _______ _______ _____ _____    ______ ____
ROOT
ATOM      1  C   UNL     1       1.887   6.953  19.357  0.00  0.00    +0.000 A 
ATOM      2  N   UNL     1       2.379   6.370  18.281  0.00  0.00    +0.000 NA
ATOM      3  C   UNL     1       2.483   4.978  18.482  0.00  0.00    +0.000 A 
ATOM      4  C   UNL     1       2.050   4.556  19.733  0.00  0.00    +0.000 A 
ATOM      5  S   UNL     1       1.519   5.896  20.654  0.00  0.00    +0.000 S 
ENDROOT
BRANCH   1  10
ATOM      6  C   UNL     1       1.408  12.161  18.658  0.00  0.00    +0.000 C 
ATOM      7  C   UNL     1       1.431  10.768  19.173  0.00  0.00    +0.000 A 
ATOM      8  C   UNL     1       1.008  10.282  20.392  0.00  0.00    +0.000 A 
ATOM      9  N   UNL     1       1.127   8.919  20.562  0.00  0.00    +0.000 NA
ATOM     10  C   UNL     1       1.662   8.372  19.486  0.00  0.00    +0.000 A 
ATOM     11  S   UNL     1       2.044   9.478  18.224  0.00  0.00    +0.000 S 
ENDBRANCH   1  10
BRANCH   3  12
ATOM     12  C   UNL     1       3.060   4.138  17.419  0.00  0.00    +0.000 C 
ATOM     13  O   UNL     1       2.497   3.163  16.932  0.00  0.00    +0.000 OA
ATOM     14  N   UNL     1       4.326   4.538  17.049  0.00  0.00    +0.000 N 
ATOM     15  H   UNL     1       4.698   5.351  17.533  0.00  0.00    +0.000 HD
BRANCH  14  16
ATOM     16  C   UNL     1       5.102   3.898  16.007  0.00  0.00    +0.000 C 
BRANCH  16  17
ATOM     17  C   UNL     1       6.391   4.652  15.669  0.00  0.00    +0.000 C 
BRANCH  17  18
ATOM     18  C   UNL     1       7.406   4.759  16.811  0.00  0.00    +0.000 C 
BRANCH  18  19
ATOM     19  C   UNL     1       7.231   6.009  17.668  0.00  0.00    +0.000 C 
BRANCH  19  20
ATOM     20  C   UNL     1       7.096   5.632  19.123  0.00  0.00    +0.000 C 
ATOM     21  O   UNL     1       6.009   5.501  19.688  0.00  0.00    +0.000 OA
ATOM     22  N   UNL     1       8.287   5.396  19.758  0.00  0.00    +0.000 N 
ATOM     23  H   UNL     1       9.153   5.816  19.434  0.00  0.00    +0.000 HD
BRANCH  22  24
ATOM     24  O   UNL     1       8.187   5.140  21.149  0.00  0.00    +0.000 OA
ATOM     25  H   UNL     1       9.129   5.142  21.431  0.00  0.00    +0.000 HD
ENDBRANCH  22  24
ENDBRANCH  19  20
ENDBRANCH  18  19
ENDBRANCH  17  18
ENDBRANCH  16  17
ENDBRANCH  14  16
ENDBRANCH   3  12
BRANCH   4  26
ATOM     26  C   UNL     1       2.074   3.113  20.259  0.00  0.00    +0.000 C 
ATOM     27  C   UNL     1       2.105   2.848  21.750  0.00  0.00    +0.000 C 
ATOM     28  C   UNL     1       3.335   2.617  20.942  0.00  0.00    +0.000 C 
ENDBRANCH   4  26
TORSDOF 9
ENDMDL
MODEL 2
REMARK VINA RESULT:      -6.9      1.045      1.158
REMARK  Name = 
REMARK  10 active torsions:
REMARK  status: ('A' for Active; 'I' for Inactive)
REMARK    1  A    between atoms: C_1  and  C_2
REMARK    2  A    between atoms: C_5  and  C_6
REMARK    3  A    between atoms: C_8  and  C_9
REMARK    4  A    between atoms: N_11  and  C_12
REMARK    5  A    between atoms: C_12  and  C_13
REMARK    6  A    between atoms: C_13  and  C_14
REMARK    7  A    between atoms: C_14  and  C_15
REMARK    8  A    between atoms: C_15  and  C_16
REMARK    9  A    between atoms: N_18  and  O_19
REMARK   10  A    between atoms: C_20  and  C_21
REMARK                            x       y       z     vdW  Elec       q    Type
REMARK                         _______ _______ _______ _____ _____    ______ ____
ROOT
ATOM      1  C   UNL     1       1.941   6.847  19.505  0.00  0.00    +0.000 A 
ATOM      2  N   UNL     1       2.822   6.343  18.663  0.00  0.00    +0.000 NA
ATOM      3  C   UNL     1       2.942   4.951  18.853  0.00  0.00    +0.000 A 
ATOM      4  C   UNL     1       2.122   4.447  19.855  0.00  0.00    +0.000 A 
ATOM      5  S   UNL     1       1.208   5.711  20.557  0.00  0.00    +0.000 S 
ENDROOT
BRANCH   1  10
ATOM      6  C   UNL     1       0.551  11.720  20.972  0.00  0.00    +0.000 C 
ATOM      7  C   UNL     1       0.958  10.491  20.245  0.00  0.00    +0.000 A 
ATOM      8  C   UNL     1       1.302  10.336  18.919  0.00  0.00    +0.000 A 
ATOM      9  N   UNL     1       1.674   9.061  18.547  0.00  0.00    +0.000 NA
ATOM     10  C   UNL     1       1.590   8.244  19.580  0.00  0.00    +0.000 A 
ATOM     11  S   UNL     1       1.058   8.977  21.044  0.00  0.00    +0.000 S 
ENDBRANCH   1  10
BRANCH   3  12
ATOM     12  C   UNL     1       3.915   4.194  18.047  0.00  0.00    +0.000 C 
ATOM     13  O   UNL     1       4.486   3.179  18.433  0.00  0.00    +0.000 OA
ATOM     14  N   UNL     1       4.150   4.767  16.816  0.00  0.00    +0.000 N 
ATOM     15  H   UNL     1       3.630   5.616  16.611  0.00  0.00    +0.000 HD
BRANCH  14  16
ATOM     16  C   UNL     1       5.041   4.207  15.822  0.00  0.00    +0.000 C 
BRANCH  16  17
ATOM     17  C   UNL     1       6.372   4.957  15.717  0.00  0.00    +0.000 C 
BRANCH  17  18
ATOM     18  C   UNL     1       7.338   4.744  16.887  0.00  0.00    +0.000 C 
BRANCH  18  19
ATOM     19  C   UNL     1       7.539   5.988  17.747  0.00  0.00    +0.000 C 
BRANCH  19  20
ATOM     20  C   UNL     1       7.342   5.653  19.206  0.00  0.00    +0.000 C 
ATOM     21  O   UNL     1       6.235   5.602  19.743  0.00  0.00    +0.000 OA
ATOM     22  N   UNL     1       8.500   5.361  19.878  0.00  0.00    +0.000 N 
ATOM     23  H   UNL     1       9.398   5.720  19.570  0.00  0.00    +0.000 HD
BRANCH  22  24
ATOM     24  O   UNL     1       8.347   5.144  21.271  0.00  0.00    +0.000 OA
ATOM     25  H   UNL     1       8.150   6.049  21.603  0.00  0.00    +0.000 HD
ENDBRANCH  22  24
ENDBRANCH  19  20
ENDBRANCH  18  19
ENDBRANCH  17  18
ENDBRANCH  16  17
ENDBRANCH  14  16
ENDBRANCH   3  12
BRANCH   4  26
ATOM     26  C   UNL     1       2.054   2.985  20.319  0.00  0.00    +0.000 C 
ATOM     27  C   UNL     1       1.434   2.639  21.658  0.00  0.00    +0.000 C 
ATOM     28  C   UNL     1       2.914   2.563  21.496  0.00  0.00    +0.000 C 
ENDBRANCH   4  26
TORSDOF 9
ENDMDL
MODEL 3
REMARK VINA RESULT:      -6.6      2.791      4.054
REMARK  Name = 
REMARK  10 active torsions:
REMARK  status: ('A' for Active; 'I' for Inactive)
REMARK    1  A    between atoms: C_1  and  C_2
REMARK    2  A    between atoms: C_5  and  C_6
REMARK    3  A    between atoms: C_8  and  C_9
REMARK    4  A    between atoms: N_11  and  C_12
REMARK    5  A    between atoms: C_12  and  C_13
REMARK    6  A    between atoms: C_13  and  C_14
REMARK    7  A    between atoms: C_14  and  C_15
REMARK    8  A    between atoms: C_15  and  C_16
REMARK    9  A    between atoms: N_18  and  O_19
REMARK   10  A    between atoms: C_20  and  C_21
REMARK                            x       y       z     vdW  Elec       q    Type
REMARK                         _______ _______ _______ _____ _____    ______ ____
ROOT
ATOM      1  C   UNL     1       2.610   6.584  19.427  0.00  0.00    +0.000 A 
ATOM      2  N   UNL     1       3.871   6.479  19.057  0.00  0.00    +0.000 NA
ATOM      3  C   UNL     1       4.252   5.122  18.991  0.00  0.00    +0.000 A 
ATOM      4  C   UNL     1       3.234   4.235  19.319  0.00  0.00    +0.000 A 
ATOM      5  S   UNL     1       1.808   5.096  19.711  0.00  0.00    +0.000 S 
ENDROOT
BRANCH   1  10
ATOM      6  C   UNL     1       0.193  11.238  18.852  0.00  0.00    +0.000 C 
ATOM      7  C   UNL     1       0.791   9.972  19.347  0.00  0.00    +0.000 A 
ATOM      8  C   UNL     1       0.756   9.427  20.612  0.00  0.00    +0.000 A 
ATOM      9  N   UNL     1       1.381   8.205  20.751  0.00  0.00    +0.000 NA
ATOM     10  C   UNL     1       1.911   7.834  19.601  0.00  0.00    +0.000 A 
ATOM     11  S   UNL     1       1.680   8.941  18.303  0.00  0.00    +0.000 S 
ENDBRANCH   1  10
BRANCH   3  12
ATOM     12  C   UNL     1       5.642   4.779  18.645  0.00  0.00    +0.000 C 
ATOM     13  O   UNL     1       6.492   4.444  19.465  0.00  0.00    +0.000 OA
ATOM     14  N   UNL     1       5.906   4.911  17.299  0.00  0.00    +0.000 N 
ATOM     15  H   UNL     1       5.128   5.210  16.717  0.00  0.00    +0.000 HD
BRANCH  14  16
ATOM     16  C   UNL     1       7.186   4.609  16.695  0.00  0.00    +0.000 C 
BRANCH  16  17
ATOM     17  C   UNL     1       7.090   4.324  15.194  0.00  0.00    +0.000 C 
BRANCH  17  18
ATOM     18  C   UNL     1       5.850   4.893  14.497  0.00  0.00    +0.000 C 
BRANCH  18  19
ATOM     19  C   UNL     1       5.282   3.976  13.418  0.00  0.00    +0.000 C 
BRANCH  19  20
ATOM     20  C   UNL     1       6.372   3.548  12.466  0.00  0.00    +0.000 C 
ATOM     21  O   UNL     1       7.259   4.307  12.071  0.00  0.00    +0.000 OA
ATOM     22  N   UNL     1       6.325   2.225  12.112  0.00  0.00    +0.000 N 
ATOM     23  H   UNL     1       5.456   1.700  12.137  0.00  0.00    +0.000 HD
BRANCH  22  24
ATOM     24  O   UNL     1       7.278   1.829  11.139  0.00  0.00    +0.000 OA
ATOM     25  H   UNL     1       8.032   1.530  11.695  0.00  0.00    +0.000 HD
ENDBRANCH  22  24
ENDBRANCH  19  20
ENDBRANCH  18  19
ENDBRANCH  17  18
ENDBRANCH  16  17
ENDBRANCH  14  16
ENDBRANCH   3  12
BRANCH   4  26
ATOM     26  C   UNL     1       3.350   2.705  19.375  0.00  0.00    +0.000 C 
ATOM     27  C   UNL     1       3.530   1.908  18.099  0.00  0.00    +0.000 C 
ATOM     28  C   UNL     1       2.216   1.875  18.802  0.00  0.00    +0.000 C 
ENDBRANCH   4  26
TORSDOF 9
ENDMDL
MODEL 4
REMARK VINA RESULT:      -6.5      2.648      3.974
REMARK  Name = 
REMARK  10 active torsions:
REMARK  status: ('A' for Active; 'I' for Inactive)
REMARK    1  A    between atoms: C_1  and  C_2
REMARK    2  A    between atoms: C_5  and  C_6
REMARK    3  A    between atoms: C_8  and  C_9
REMARK    4  A    between atoms: N_11  and  C_12
REMARK    5  A    between atoms: C_12  and  C_13
REMARK    6  A    between atoms: C_13  and  C_14
REMARK    7  A    between atoms: C_14  and  C_15
REMARK    8  A    between atoms: C_15  and  C_16
REMARK    9  A    between atoms: N_18  and  O_19
REMARK   10  A    between atoms: C_20  and  C_21
REMARK                            x       y       z     vdW  Elec       q    Type
REMARK                         _______ _______ _______ _____ _____    ______ ____
ROOT
ATOM      1  C   UNL     1       2.018   7.207  19.159  0.00  0.00    +0.000 A 
ATOM      2  N   UNL     1       2.417   6.518  18.107  0.00  0.00    +0.000 NA
ATOM      3  C   UNL     1       2.680   5.180  18.469  0.00  0.00    +0.000 A 
ATOM      4  C   UNL     1       2.458   4.906  19.813  0.00  0.00    +0.000 A 
ATOM      5  S   UNL     1       1.927   6.318  20.620  0.00  0.00    +0.000 S 
ENDROOT
BRANCH   1  10
ATOM      6  C   UNL     1       0.442  12.127  20.228  0.00  0.00    +0.000 C 
ATOM      7  C   UNL     1       0.962  10.877  19.618  0.00  0.00    +0.000 A 
ATOM      8  C   UNL     1       1.547  10.686  18.385  0.00  0.00    +0.000 A 
ATOM      9  N   UNL     1       1.965   9.399  18.118  0.00  0.00    +0.000 NA
ATOM     10  C   UNL     1       1.678   8.609  19.135  0.00  0.00    +0.000 A 
ATOM     11  S   UNL     1       0.890   9.382  20.456  0.00  0.00    +0.000 S 
ENDBRANCH   1  10
BRANCH   3  12
ATOM     12  C   UNL     1       3.189   4.245  17.452  0.00  0.00    +0.000 C 
ATOM     13  O   UNL     1       2.528   3.335  16.962  0.00  0.00    +0.000 OA
ATOM     14  N   UNL     1       4.509   4.474  17.128  0.00  0.00    +0.000 N 
ATOM     15  H   UNL     1       4.960   5.247  17.609  0.00  0.00    +0.000 HD
BRANCH  14  16
ATOM     16  C   UNL     1       5.240   3.714  16.137  0.00  0.00    +0.000 C 
BRANCH  16  17
ATOM     17  C   UNL     1       6.322   4.533  15.429  0.00  0.00    +0.000 C 
BRANCH  17  18
ATOM     18  C   UNL     1       6.583   4.151  13.968  0.00  0.00    +0.000 C 
BRANCH  18  19
ATOM     19  C   UNL     1       5.317   4.077  13.120  0.00  0.00    +0.000 C 
BRANCH  19  20
ATOM     20  C   UNL     1       5.447   2.993  12.078  0.00  0.00    +0.000 C 
ATOM     21  O   UNL     1       4.532   2.676  11.316  0.00  0.00    +0.000 OA
ATOM     22  N   UNL     1       6.689   2.419  12.014  0.00  0.00    +0.000 N 
ATOM     23  H   UNL     1       7.313   2.412  12.815  0.00  0.00    +0.000 HD
BRANCH  22  24
ATOM     24  O   UNL     1       6.802   1.330  11.113  0.00  0.00    +0.000 OA
ATOM     25  H   UNL     1       7.572   0.837  11.476  0.00  0.00    +0.000 HD
ENDBRANCH  22  24
ENDBRANCH  19  20
ENDBRANCH  18  19
ENDBRANCH  17  18
ENDBRANCH  16  17
ENDBRANCH  14  16
ENDBRANCH   3  12
BRANCH   4  26
ATOM     26  C   UNL     1       2.689   3.559  20.512  0.00  0.00    +0.000 C 
ATOM     27  C   UNL     1       1.777   2.384  20.222  0.00  0.00    +0.000 C 
ATOM     28  C   UNL     1       1.664   3.090  21.529  0.00  0.00    +0.000 C 
ENDBRANCH   4  26
TORSDOF 9
ENDMDL
MODEL 5
REMARK VINA RESULT:      -6.5      2.041      5.020
REMARK  Name = 
REMARK  10 active torsions:
REMARK  status: ('A' for Active; 'I' for Inactive)
REMARK    1  A    between atoms: C_1  and  C_2
REMARK    2  A    between atoms: C_5  and  C_6
REMARK    3  A    between atoms: C_8  and  C_9
REMARK    4  A    between atoms: N_11  and  C_12
REMARK    5  A    between atoms: C_12  and  C_13
REMARK    6  A    between atoms: C_13  and  C_14
REMARK    7  A    between atoms: C_14  and  C_15
REMARK    8  A    between atoms: C_15  and  C_16
REMARK    9  A    between atoms: N_18  and  O_19
REMARK   10  A    between atoms: C_20  and  C_21
REMARK                            x       y       z     vdW  Elec       q    Type
REMARK                         _______ _______ _______ _____ _____    ______ ____
ROOT
ATOM      1  C   UNL     1       3.248   7.355  18.134  0.00  0.00    +0.000 A 
ATOM      2  N   UNL     1       3.586   6.403  18.981  0.00  0.00    +0.000 NA
ATOM      3  C   UNL     1       4.619   5.609  18.441  0.00  0.00    +0.000 A 
ATOM      4  C   UNL     1       5.033   6.009  17.176  0.00  0.00    +0.000 A 
ATOM      5  S   UNL     1       4.129   7.368  16.664  0.00  0.00    +0.000 S 
ENDROOT
BRANCH   1  10
ATOM      6  C   UNL     1      -0.426  10.549  20.169  0.00  0.00    +0.000 C 
ATOM      7  C   UNL     1       0.530   9.813  19.302  0.00  0.00    +0.000 A 
ATOM      8  C   UNL     1       0.830  10.010  17.971  0.00  0.00    +0.000 A 
ATOM      9  N   UNL     1       1.799   9.179  17.450  0.00  0.00    +0.000 NA
ATOM     10  C   UNL     1       2.216   8.334  18.375  0.00  0.00    +0.000 A 
ATOM     11  S   UNL     1       1.458   8.506  19.911  0.00  0.00    +0.000 S 
ENDBRANCH   1  10
BRANCH   3  12
ATOM     12  C   UNL     1       5.114   4.452  19.205  0.00  0.00    +0.000 C 
ATOM     13  O   UNL     1       6.233   4.385  19.704  0.00  0.00    +0.000 OA
ATOM     14  N   UNL     1       4.198   3.424  19.272  0.00  0.00    +0.000 N 
ATOM     15  H   UNL     1       3.308   3.586  18.808  0.00  0.00    +0.000 HD
BRANCH  14  16
ATOM     16  C   UNL     1       4.426   2.186  19.987  0.00  0.00    +0.000 C 
BRANCH  16  17
ATOM     17  C   UNL     1       3.479   1.995  21.174  0.00  0.00    +0.000 C 
BRANCH  17  18
ATOM     18  C   UNL     1       2.520   3.159  21.442  0.00  0.00    +0.000 C 
BRANCH  18  19
ATOM     19  C   UNL     1       1.084   2.880  21.011  0.00  0.00    +0.000 C 
BRANCH  19  20
ATOM     20  C   UNL     1       0.946   3.035  19.516  0.00  0.00    +0.000 C 
ATOM     21  O   UNL     1       0.434   2.179  18.793  0.00  0.00    +0.000 OA
ATOM     22  N   UNL     1       1.396   4.235  19.030  0.00  0.00    +0.000 N 
ATOM     23  H   UNL     1       2.102   4.775  19.521  0.00  0.00    +0.000 HD
BRANCH  22  24
ATOM     24  O   UNL     1       1.370   4.359  17.618  0.00  0.00    +0.000 OA
ATOM     25  H   UNL     1       2.236   3.973  17.358  0.00  0.00    +0.000 HD
ENDBRANCH  22  24
ENDBRANCH  19  20
ENDBRANCH  18  19
ENDBRANCH  17  18
ENDBRANCH  16  17
ENDBRANCH  14  16
ENDBRANCH   3  12
BRANCH   4  26
ATOM     26  C   UNL     1       6.107   5.325  16.317  0.00  0.00    +0.000 C 
ATOM     27  C   UNL     1       5.912   5.188  14.821  0.00  0.00    +0.000 C 
ATOM     28  C   UNL     1       5.779   3.984  15.688  0.00  0.00    +0.000 C 
ENDBRANCH   4  26
TORSDOF 9
ENDMDL
MODEL 6
REMARK VINA RESULT:      -6.5      1.184      1.314
REMARK  Name = 
REMARK  10 active torsions:
REMARK  status: ('A' for Active; 'I' for Inactive)
REMARK    1  A    between atoms: C_1  and  C_2
REMARK    2  A    between atoms: C_5  and  C_6
REMARK    3  A    between atoms: C_8  and  C_9
REMARK    4  A    between atoms: N_11  and  C_12
REMARK    5  A    between atoms: C_12  and  C_13
REMARK    6  A    between atoms: C_13  and  C_14
REMARK    7  A    between atoms: C_14  and  C_15
REMARK    8  A    between atoms: C_15  and  C_16
REMARK    9  A    between atoms: N_18  and  O_19
REMARK   10  A    between atoms: C_20  and  C_21
REMARK                            x       y       z     vdW  Elec       q    Type
REMARK                         _______ _______ _______ _____ _____    ______ ____
ROOT
ATOM      1  C   UNL     1       1.943   6.975  19.942  0.00  0.00    +0.000 A 
ATOM      2  N   UNL     1       2.975   6.541  19.244  0.00  0.00    +0.000 NA
ATOM      3  C   UNL     1       3.073   5.137  19.337  0.00  0.00    +0.000 A 
ATOM      4  C   UNL     1       2.082   4.554  20.117  0.00  0.00    +0.000 A 
ATOM      5  S   UNL     1       1.036   5.758  20.735  0.00  0.00    +0.000 S 
ENDROOT
BRANCH   1  10
ATOM      6  C   UNL     1       0.575  12.012  19.172  0.00  0.00    +0.000 C 
ATOM      7  C   UNL     1       0.930  10.679  19.723  0.00  0.00    +0.000 A 
ATOM      8  C   UNL     1       0.927  10.247  21.031  0.00  0.00    +0.000 A 
ATOM      9  N   UNL     1       1.275   8.926  21.223  0.00  0.00    +0.000 NA
ATOM     10  C   UNL     1       1.567   8.363  20.065  0.00  0.00    +0.000 A 
ATOM     11  S   UNL     1       1.435   9.400  18.698  0.00  0.00    +0.000 S 
ENDBRANCH   1  10
BRANCH   3  12
ATOM     12  C   UNL     1       4.190   4.447  18.671  0.00  0.00    +0.000 C 
ATOM     13  O   UNL     1       5.166   3.992  19.260  0.00  0.00    +0.000 OA
ATOM     14  N   UNL     1       4.047   4.395  17.301  0.00  0.00    +0.000 N 
ATOM     15  H   UNL     1       3.204   4.818  16.923  0.00  0.00    +0.000 HD
BRANCH  14  16
ATOM     16  C   UNL     1       4.991   3.748  16.415  0.00  0.00    +0.000 C 
BRANCH  16  17
ATOM     17  C   UNL     1       5.842   4.738  15.617  0.00  0.00    +0.000 C 
BRANCH  17  18
ATOM     18  C   UNL     1       6.175   6.047  16.339  0.00  0.00    +0.000 C 
BRANCH  18  19
ATOM     19  C   UNL     1       7.654   6.198  16.680  0.00  0.00    +0.000 C 
BRANCH  19  20
ATOM     20  C   UNL     1       7.829   6.426  18.162  0.00  0.00    +0.000 C 
ATOM     21  O   UNL     1       8.111   7.522  18.648  0.00  0.00    +0.000 OA
ATOM     22  N   UNL     1       7.599   5.317  18.934  0.00  0.00    +0.000 N 
ATOM     23  H   UNL     1       7.709   4.379  18.562  0.00  0.00    +0.000 HD
BRANCH  22  24
ATOM     24  O   UNL     1       7.858   5.485  20.318  0.00  0.00    +0.000 OA
ATOM     25  H   UNL     1       7.297   6.260  20.544  0.00  0.00    +0.000 HD
ENDBRANCH  22  24
ENDBRANCH  19  20
ENDBRANCH  18  19
ENDBRANCH  17  18
ENDBRANCH  16  17
ENDBRANCH  14  16
ENDBRANCH   3  12
BRANCH   4  26
ATOM     26  C   UNL     1       1.944   3.057  20.435  0.00  0.00    +0.000 C 
ATOM     27  C   UNL     1       1.309   2.611  21.736  0.00  0.00    +0.000 C 
ATOM     28  C   UNL     1       2.783   2.481  21.561  0.00  0.00    +0.000 C 
ENDBRANCH   4  26
TORSDOF 9
ENDMDL
MODEL 7
REMARK VINA RESULT:      -6.4      4.363      6.867
REMARK  Name = 
REMARK  10 active torsions:
REMARK  status: ('A' for Active; 'I' for Inactive)
REMARK    1  A    between atoms: C_1  and  C_2
REMARK    2  A    between atoms: C_5  and  C_6
REMARK    3  A    between atoms: C_8  and  C_9
REMARK    4  A    between atoms: N_11  and  C_12
REMARK    5  A    between atoms: C_12  and  C_13
REMARK    6  A    between atoms: C_13  and  C_14
REMARK    7  A    between atoms: C_14  and  C_15
REMARK    8  A    between atoms: C_15  and  C_16
REMARK    9  A    between atoms: N_18  and  O_19
REMARK   10  A    between atoms: C_20  and  C_21
REMARK                            x       y       z     vdW  Elec       q    Type
REMARK                         _______ _______ _______ _____ _____    ______ ____
ROOT
ATOM      1  C   UNL     1       4.723   4.250  18.195  0.00  0.00    +0.000 A 
ATOM      2  N   UNL     1       5.590   5.240  18.280  0.00  0.00    +0.000 NA
ATOM      3  C   UNL     1       6.020   5.627  16.994  0.00  0.00    +0.000 A 
ATOM      4  C   UNL     1       5.441   4.897  15.963  0.00  0.00    +0.000 A 
ATOM      5  S   UNL     1       4.366   3.729  16.602  0.00  0.00    +0.000 S 
ENDROOT
BRANCH   1  10
ATOM      6  C   UNL     1       1.474   2.609  22.014  0.00  0.00    +0.000 C 
ATOM      7  C   UNL     1       2.607   2.846  21.084  0.00  0.00    +0.000 A 
ATOM      8  C   UNL     1       3.824   2.204  21.011  0.00  0.00    +0.000 A 
ATOM      9  N   UNL     1       4.663   2.632  20.004  0.00  0.00    +0.000 NA
ATOM     10  C   UNL     1       4.096   3.614  19.328  0.00  0.00    +0.000 A 
ATOM     11  S   UNL     1       2.528   4.063  19.878  0.00  0.00    +0.000 S 
ENDBRANCH   1  10
BRANCH   3  12
ATOM     12  C   UNL     1       7.034   6.686  16.861  0.00  0.00    +0.000 C 
ATOM     13  O   UNL     1       8.041   6.591  16.167  0.00  0.00    +0.000 OA
ATOM     14  N   UNL     1       6.754   7.794  17.633  0.00  0.00    +0.000 N 
ATOM     15  H   UNL     1       5.898   7.754  18.179  0.00  0.00    +0.000 HD
BRANCH  14  16
ATOM     16  C   UNL     1       7.576   8.985  17.662  0.00  0.00    +0.000 C 
BRANCH  16  17
ATOM     17  C   UNL     1       8.682   8.926  18.719  0.00  0.00    +0.000 C 
BRANCH  17  18
ATOM     18  C   UNL     1       9.269  10.280  19.130  0.00  0.00    +0.000 C 
BRANCH  18  19
ATOM     19  C   UNL     1       9.685  11.150  17.948  0.00  0.00    +0.000 C 
BRANCH  19  20
ATOM     20  C   UNL     1       9.530  12.612  18.292  0.00  0.00    +0.000 C 
ATOM     21  O   UNL     1       9.319  13.016  19.436  0.00  0.00    +0.000 OA
ATOM     22  N   UNL     1       9.693  13.462  17.230  0.00  0.00    +0.000 N 
ATOM     23  H   UNL     1       9.523  13.158  16.276  0.00  0.00    +0.000 HD
BRANCH  22  24
ATOM     24  O   UNL     1       9.450  14.830  17.513  0.00  0.00    +0.000 OA
ATOM     25  H   UNL     1       8.504  14.930  17.263  0.00  0.00    +0.000 HD
ENDBRANCH  22  24
ENDBRANCH  19  20
ENDBRANCH  18  19
ENDBRANCH  17  18
ENDBRANCH  16  17
ENDBRANCH  14  16
ENDBRANCH   3  12
BRANCH   4  26
ATOM     26  C   UNL     1       5.734   5.058  14.464  0.00  0.00    +0.000 C 
ATOM     27  C   UNL     1       5.490   3.904  13.513  0.00  0.00    +0.000 C 
ATOM     28  C   UNL     1       6.889   4.273  13.869  0.00  0.00    +0.000 C 
ENDBRANCH   4  26
TORSDOF 9
ENDMDL
MODEL 8
REMARK VINA RESULT:      -6.4      2.574      3.996
REMARK  Name = 
REMARK  10 active torsions:
REMARK  status: ('A' for Active; 'I' for Inactive)
REMARK    1  A    between atoms: C_1  and  C_2
REMARK    2  A    between atoms: C_5  and  C_6
REMARK    3  A    between atoms: C_8  and  C_9
REMARK    4  A    between atoms: N_11  and  C_12
REMARK    5  A    between atoms: C_12  and  C_13
REMARK    6  A    between atoms: C_13  and  C_14
REMARK    7  A    between atoms: C_14  and  C_15
REMARK    8  A    between atoms: C_15  and  C_16
REMARK    9  A    between atoms: N_18  and  O_19
REMARK   10  A    between atoms: C_20  and  C_21
REMARK                            x       y       z     vdW  Elec       q    Type
REMARK                         _______ _______ _______ _____ _____    ______ ____
ROOT
ATOM      1  C   UNL     1       2.380   6.979  19.647  0.00  0.00    +0.000 A 
ATOM      2  N   UNL     1       3.598   6.801  19.175  0.00  0.00    +0.000 NA
ATOM      3  C   UNL     1       3.963   5.441  19.258  0.00  0.00    +0.000 A 
ATOM      4  C   UNL     1       2.976   4.626  19.799  0.00  0.00    +0.000 A 
ATOM      5  S   UNL     1       1.600   5.560  20.205  0.00  0.00    +0.000 S 
ENDROOT
BRANCH   1  10
ATOM      6  C   UNL     1       0.082  11.630  18.684  0.00  0.00    +0.000 C 
ATOM      7  C   UNL     1       0.643  10.392  19.283  0.00  0.00    +0.000 A 
ATOM      8  C   UNL     1       0.579   9.946  20.585  0.00  0.00    +0.000 A 
ATOM      9  N   UNL     1       1.173   8.725  20.826  0.00  0.00    +0.000 NA
ATOM     10  C   UNL     1       1.709   8.255  19.715  0.00  0.00    +0.000 A 
ATOM     11  S   UNL     1       1.520   9.264  18.333  0.00  0.00    +0.000 S 
ENDBRANCH   1  10
BRANCH   3  12
ATOM     12  C   UNL     1       5.310   5.028  18.831  0.00  0.00    +0.000 C 
ATOM     13  O   UNL     1       6.262   4.896  19.593  0.00  0.00    +0.000 OA
ATOM     14  N   UNL     1       5.404   4.839  17.469  0.00  0.00    +0.000 N 
ATOM     15  H   UNL     1       4.553   4.992  16.935  0.00  0.00    +0.000 HD
BRANCH  14  16
ATOM     16  C   UNL     1       6.611   4.404  16.797  0.00  0.00    +0.000 C 
BRANCH  16  17
ATOM     17  C   UNL     1       6.333   3.566  15.547  0.00  0.00    +0.000 C 
BRANCH  17  18
ATOM     18  C   UNL     1       6.466   4.311  14.215  0.00  0.00    +0.000 C 
BRANCH  18  19
ATOM     19  C   UNL     1       5.223   4.214  13.334  0.00  0.00    +0.000 C 
BRANCH  19  20
ATOM     20  C   UNL     1       5.436   3.198  12.239  0.00  0.00    +0.000 C 
ATOM     21  O   UNL     1       4.579   2.924  11.397  0.00  0.00    +0.000 OA
ATOM     22  N   UNL     1       6.686   2.636  12.225  0.00  0.00    +0.000 N 
ATOM     23  H   UNL     1       7.252   2.583  13.066  0.00  0.00    +0.000 HD
BRANCH  22  24
ATOM     24  O   UNL     1       6.871   1.606  11.269  0.00  0.00    +0.000 OA
ATOM     25  H   UNL     1       6.741   0.794  11.808  0.00  0.00    +0.000 HD
ENDBRANCH  22  24
ENDBRANCH  19  20
ENDBRANCH  18  19
ENDBRANCH  17  18
ENDBRANCH  16  17
ENDBRANCH  14  16
ENDBRANCH   3  12
BRANCH   4  26
ATOM     26  C   UNL     1       3.087   3.116  20.052  0.00  0.00    +0.000 C 
ATOM     27  C   UNL     1       1.837   2.279  20.227  0.00  0.00    +0.000 C 
ATOM     28  C   UNL     1       2.685   2.582  21.414  0.00  0.00    +0.000 C 
ENDBRANCH   4  26
TORSDOF 9
ENDMDL
MODEL 9
REMARK VINA RESULT:      -6.4      2.466      4.518
REMARK  Name = 
REMARK  10 active torsions:
REMARK  status: ('A' for Active; 'I' for Inactive)
REMARK    1  A    between atoms: C_1  and  C_2
REMARK    2  A    between atoms: C_5  and  C_6
REMARK    3  A    between atoms: C_8  and  C_9
REMARK    4  A    between atoms: N_11  and  C_12
REMARK    5  A    between atoms: C_12  and  C_13
REMARK    6  A    between atoms: C_13  and  C_14
REMARK    7  A    between atoms: C_14  and  C_15
REMARK    8  A    between atoms: C_15  and  C_16
REMARK    9  A    between atoms: N_18  and  O_19
REMARK   10  A    between atoms: C_20  and  C_21
REMARK                            x       y       z     vdW  Elec       q    Type
REMARK                         _______ _______ _______ _____ _____    ______ ____
ROOT
ATOM      1  C   UNL     1       1.326   8.993  19.691  0.00  0.00    +0.000 A 
ATOM      2  N   UNL     1       1.491   7.870  20.363  0.00  0.00    +0.000 NA
ATOM      3  C   UNL     1       2.257   6.955  19.610  0.00  0.00    +0.000 A 
ATOM      4  C   UNL     1       2.654   7.441  18.370  0.00  0.00    +0.000 A 
ATOM      5  S   UNL     1       2.067   9.033  18.147  0.00  0.00    +0.000 S 
ENDROOT
BRANCH   1  10
ATOM      6  C   UNL     1      -2.174  12.841  20.570  0.00  0.00    +0.000 C 
ATOM      7  C   UNL     1      -1.025  11.901  20.591  0.00  0.00    +0.000 A 
ATOM      8  C   UNL     1       0.015  11.815  21.492  0.00  0.00    +0.000 A 
ATOM      9  N   UNL     1       0.920  10.800  21.261  0.00  0.00    +0.000 NA
ATOM     10  C   UNL     1       0.583  10.131  20.174  0.00  0.00    +0.000 A 
ATOM     11  S   UNL     1      -0.838  10.697  19.383  0.00  0.00    +0.000 S 
ENDBRANCH   1  10
BRANCH   3  12
ATOM     12  C   UNL     1       2.516   5.612  20.155  0.00  0.00    +0.000 C 
ATOM     13  O   UNL     1       3.638   5.144  20.324  0.00  0.00    +0.000 OA
ATOM     14  N   UNL     1       1.360   4.911  20.423  0.00  0.00    +0.000 N 
ATOM     15  H   UNL     1       0.488   5.395  20.229  0.00  0.00    +0.000 HD
BRANCH  14  16
ATOM     16  C   UNL     1       1.337   3.579  20.990  0.00  0.00    +0.000 C 
BRANCH  16  17
ATOM     17  C   UNL     1       1.163   2.481  19.938  0.00  0.00    +0.000 C 
BRANCH  17  18
ATOM     18  C   UNL     1       1.304   2.939  18.483  0.00  0.00    +0.000 C 
BRANCH  18  19
ATOM     19  C   UNL     1       2.279   2.095  17.668  0.00  0.00    +0.000 C 
BRANCH  19  20
ATOM     20  C   UNL     1       3.588   1.949  18.405  0.00  0.00    +0.000 C 
ATOM     21  O   UNL     1       3.991   0.878  18.860  0.00  0.00    +0.000 OA
ATOM     22  N   UNL     1       4.321   3.104  18.486  0.00  0.00    +0.000 N 
ATOM     23  H   UNL     1       3.879   4.017  18.437  0.00  0.00    +0.000 HD
BRANCH  22  24
ATOM     24  O   UNL     1       5.504   3.013  19.262  0.00  0.00    +0.000 OA
ATOM     25  H   UNL     1       5.819   3.944  19.275  0.00  0.00    +0.000 HD
ENDBRANCH  22  24
ENDBRANCH  19  20
ENDBRANCH  18  19
ENDBRANCH  17  18
ENDBRANCH  16  17
ENDBRANCH  14  16
ENDBRANCH   3  12
BRANCH   4  26
ATOM     26  C   UNL     1       3.461   6.672  17.314  0.00  0.00    +0.000 C 
ATOM     27  C   UNL     1       4.933   6.391  17.536  0.00  0.00    +0.000 C 
ATOM     28  C   UNL     1       4.529   7.421  16.538  0.00  0.00    +0.000 C 
ENDBRANCH   4  26
TORSDOF 9
ENDMDL
