MODEL 1
REMARK VINA RESULT:      -7.5      0.000      0.000
REMARK  Name = 
REMARK  6 active torsions:
REMARK  status: ('A' for Active; 'I' for Inactive)
REMARK    1  A    between atoms: C_1  and  O_2
REMARK    2  A    between atoms: O_2  and  C_3
REMARK    3  A    between atoms: C_3  and  C_5
REMARK    4  A    between atoms: C_8  and  C_9
REMARK    5  A    between atoms: C_9  and  O_10
REMARK    6  A    between atoms: O_10  and  N_11
REMARK                            x       y       z     vdW  Elec       q    Type
REMARK                         _______ _______ _______ _____ _____    ______ ____
ROOT
ATOM      1  C   UNL     1       3.311   5.584  19.316  0.00  0.00    +0.000 C 
ENDROOT
BRANCH   1   5
ATOM      2  C   UNL     1       5.799   4.894  15.831  0.00  0.00    +0.000 A 
ATOM      3  C   UNL     1       5.696   6.173  16.392  0.00  0.00    +0.000 A 
ATOM      4  C   UNL     1       4.886   6.391  17.512  0.00  0.00    +0.000 A 
ATOM      5  C   UNL     1       4.158   5.339  18.084  0.00  0.00    +0.000 A 
ATOM      6  C   UNL     1       4.285   4.055  17.529  0.00  0.00    +0.000 A 
ATOM      7  C   UNL     1       5.091   3.836  16.406  0.00  0.00    +0.000 A 
BRANCH   2   8
ATOM      8  C   UNL     1       6.676   4.713  14.638  0.00  0.00    +0.000 C 
ATOM      9  O   UNL     1       7.578   5.477  14.342  0.00  0.00    +0.000 OA
BRANCH   8  11
ATOM     10  C   UNL     1       6.521   3.685  12.543  0.00  0.00    +0.000 C 
ATOM     11  O   UNL     1       6.324   3.595  13.954  0.00  0.00    +0.000 OA
ENDBRANCH   8  11
ENDBRANCH   2   8
ENDBRANCH   1   5
BRANCH   1  12
ATOM     12  O   UNL     1       2.326   6.582  19.036  0.00  0.00    +0.000 OA
BRANCH  12  13
ATOM     13  N   UNL     1       1.914   7.207  20.227  0.00  0.00    +0.000 NA
ATOM     14  C   UNL     1       1.569   8.438  19.999  0.00  0.00    +0.000 C 
ATOM     15  C   UNL     1       1.637   9.134  18.634  0.00  0.00    +0.000 C 
ATOM     16  C   UNL     1       0.473  10.122  18.447  0.00  0.00    +0.000 C 
ATOM     17  C   UNL     1       0.439  11.200  19.547  0.00  0.00    +0.000 C 
ATOM     18  C   UNL     1       0.589  10.566  20.878  0.00  0.00    +0.000 A 
ATOM     19  N   UNL     1       0.254  11.131  22.035  0.00  0.00    +0.000 NA
ATOM     20  O   UNL     1       0.568  10.154  22.989  0.00  0.00    +0.000 OA
ATOM     21  N   UNL     1       1.094   9.000  22.391  0.00  0.00    +0.000 NA
ATOM     22  C   UNL     1       1.110   9.280  21.089  0.00  0.00    +0.000 A 
ENDBRANCH  12  13
ENDBRANCH   1  12
TORSDOF 5
ENDMDL
MODEL 2
REMARK VINA RESULT:      -7.4      1.115      1.178
REMARK  Name = 
REMARK  6 active torsions:
REMARK  status: ('A' for Active; 'I' for Inactive)
REMARK    1  A    between atoms: C_1  and  O_2
REMARK    2  A    between atoms: O_2  and  C_3
REMARK    3  A    between atoms: C_3  and  C_5
REMARK    4  A    between atoms: C_8  and  C_9
REMARK    5  A    between atoms: C_9  and  O_10
REMARK    6  A    between atoms: O_10  and  N_11
REMARK                            x       y       z     vdW  Elec       q    Type
REMARK                         _______ _______ _______ _____ _____    ______ ____
ROOT
ATOM      1  C   UNL     1       2.078   6.353  18.678  0.00  0.00    +0.000 C 
ENDROOT
BRANCH   1   5
ATOM      2  C   UNL     1       5.563   4.928  16.525  0.00  0.00    +0.000 A 
ATOM      3  C   UNL     1       5.355   6.300  16.717  0.00  0.00    +0.000 A 
ATOM      4  C   UNL     1       4.225   6.754  17.406  0.00  0.00    +0.000 A 
ATOM      5  C   UNL     1       3.279   5.848  17.906  0.00  0.00    +0.000 A 
ATOM      6  C   UNL     1       3.508   4.473  17.728  0.00  0.00    +0.000 A 
ATOM      7  C   UNL     1       4.635   4.017  17.036  0.00  0.00    +0.000 A 
BRANCH   2   8
ATOM      8  C   UNL     1       6.783   4.494  15.785  0.00  0.00    +0.000 C 
ATOM      9  O   UNL     1       7.900   4.485  16.272  0.00  0.00    +0.000 OA
BRANCH   8  11
ATOM     10  C   UNL     1       7.228   4.773  13.505  0.00  0.00    +0.000 C 
ATOM     11  O   UNL     1       6.464   4.120  14.520  0.00  0.00    +0.000 OA
ENDBRANCH   8  11
ENDBRANCH   2   8
ENDBRANCH   1   5
BRANCH   1  12
ATOM     12  O   UNL     1       2.205   7.760  18.905  0.00  0.00    +0.000 OA
BRANCH  12  13
ATOM     13  N   UNL     1       1.898   8.065  20.243  0.00  0.00    +0.000 NA
ATOM     14  C   UNL     1       1.108   9.095  20.305  0.00  0.00    +0.000 C 
ATOM     15  C   UNL     1       0.610   9.896  19.096  0.00  0.00    +0.000 C 
ATOM     16  C   UNL     1      -0.831  10.393  19.305  0.00  0.00    +0.000 C 
ATOM     17  C   UNL     1      -0.973  11.266  20.566  0.00  0.00    +0.000 C 
ATOM     18  C   UNL     1      -0.305  10.606  21.713  0.00  0.00    +0.000 A 
ATOM     19  N   UNL     1      -0.531  10.888  22.993  0.00  0.00    +0.000 NA
ATOM     20  O   UNL     1       0.315  10.010  23.685  0.00  0.00    +0.000 OA
ATOM     21  N   UNL     1       1.047   9.200  22.805  0.00  0.00    +0.000 NA
ATOM     22  C   UNL     1       0.659   9.593  21.592  0.00  0.00    +0.000 A 
ENDBRANCH  12  13
ENDBRANCH   1  12
TORSDOF 5
ENDMDL
MODEL 3
REMARK VINA RESULT:      -7.4      4.032      4.723
REMARK  Name = 
REMARK  6 active torsions:
REMARK  status: ('A' for Active; 'I' for Inactive)
REMARK    1  A    between atoms: C_1  and  O_2
REMARK    2  A    between atoms: O_2  and  C_3
REMARK    3  A    between atoms: C_3  and  C_5
REMARK    4  A    between atoms: C_8  and  C_9
REMARK    5  A    between atoms: C_9  and  O_10
REMARK    6  A    between atoms: O_10  and  N_11
REMARK                            x       y       z     vdW  Elec       q    Type
REMARK                         _______ _______ _______ _____ _____    ______ ____
ROOT
ATOM      1  C   UNL     1       5.761   5.980  18.006  0.00  0.00    +0.000 C 
ENDROOT
BRANCH   1   5
ATOM      2  C   UNL     1       6.284   4.332  14.028  0.00  0.00    +0.000 A 
ATOM      3  C   UNL     1       5.022   4.345  14.635  0.00  0.00    +0.000 A 
ATOM      4  C   UNL     1       4.861   4.871  15.921  0.00  0.00    +0.000 A 
ATOM      5  C   UNL     1       5.958   5.384  16.627  0.00  0.00    +0.000 A 
ATOM      6  C   UNL     1       7.215   5.388  16.002  0.00  0.00    +0.000 A 
ATOM      7  C   UNL     1       7.380   4.858  14.718  0.00  0.00    +0.000 A 
BRANCH   2   8
ATOM      8  C   UNL     1       6.405   3.762  12.656  0.00  0.00    +0.000 C 
ATOM      9  O   UNL     1       7.265   4.096  11.859  0.00  0.00    +0.000 OA
BRANCH   8  11
ATOM     10  C   UNL     1       4.494   3.202  11.428  0.00  0.00    +0.000 C 
ATOM     11  O   UNL     1       5.436   2.838  12.437  0.00  0.00    +0.000 OA
ENDBRANCH   8  11
ENDBRANCH   2   8
ENDBRANCH   1   5
BRANCH   1  12
ATOM     12  O   UNL     1       4.365   6.152  18.265  0.00  0.00    +0.000 OA
BRANCH  12  13
ATOM     13  N   UNL     1       4.013   5.519  19.470  0.00  0.00    +0.000 NA
ATOM     14  C   UNL     1       2.983   4.745  19.294  0.00  0.00    +0.000 C 
ATOM     15  C   UNL     1       2.228   4.574  17.971  0.00  0.00    +0.000 C 
ATOM     16  C   UNL     1       1.729   3.130  17.791  0.00  0.00    +0.000 C 
ATOM     17  C   UNL     1       0.811   2.680  18.943  0.00  0.00    +0.000 C 
ATOM     18  C   UNL     1       1.427   3.032  20.244  0.00  0.00    +0.000 A 
ATOM     19  N   UNL     1       1.099   2.493  21.415  0.00  0.00    +0.000 NA
ATOM     20  O   UNL     1       1.950   3.131  22.329  0.00  0.00    +0.000 OA
ATOM     21  N   UNL     1       2.788   4.057  21.692  0.00  0.00    +0.000 NA
ATOM     22  C   UNL     1       2.441   3.989  20.407  0.00  0.00    +0.000 A 
ENDBRANCH  12  13
ENDBRANCH   1  12
TORSDOF 5
ENDMDL
MODEL 4
REMARK VINA RESULT:      -7.4      1.309      1.606
REMARK  Name = 
REMARK  6 active torsions:
REMARK  status: ('A' for Active; 'I' for Inactive)
REMARK    1  A    between atoms: C_1  and  O_2
REMARK    2  A    between atoms: O_2  and  C_3
REMARK    3  A    between atoms: C_3  and  C_5
REMARK    4  A    between atoms: C_8  and  C_9
REMARK    5  A    between atoms: C_9  and  O_10
REMARK    6  A    between atoms: O_10  and  N_11
REMARK                            x       y       z     vdW  Elec       q    Type
REMARK                         _______ _______ _______ _____ _____    ______ ____
ROOT
ATOM      1  C   UNL     1       2.330   6.129  19.863  0.00  0.00    +0.000 C 
ENDROOT
BRANCH   1   5
ATOM      2  C   UNL     1       5.583   4.757  17.344  0.00  0.00    +0.000 A 
ATOM      3  C   UNL     1       4.331   5.056  16.793  0.00  0.00    +0.000 A 
ATOM      4  C   UNL     1       3.282   5.490  17.612  0.00  0.00    +0.000 A 
ATOM      5  C   UNL     1       3.464   5.626  18.995  0.00  0.00    +0.000 A 
ATOM      6  C   UNL     1       4.730   5.347  19.536  0.00  0.00    +0.000 A 
ATOM      7  C   UNL     1       5.778   4.908  18.719  0.00  0.00    +0.000 A 
BRANCH   2   8
ATOM      8  C   UNL     1       6.668   4.298  16.430  0.00  0.00    +0.000 C 
ATOM      9  O   UNL     1       7.855   4.456  16.659  0.00  0.00    +0.000 OA
BRANCH   8  11
ATOM     10  C   UNL     1       6.547   4.273  14.094  0.00  0.00    +0.000 C 
ATOM     11  O   UNL     1       6.144   3.693  15.335  0.00  0.00    +0.000 OA
ENDBRANCH   8  11
ENDBRANCH   2   8
ENDBRANCH   1   5
BRANCH   1  12
ATOM     12  O   UNL     1       2.170   7.539  19.684  0.00  0.00    +0.000 OA
BRANCH  12  13
ATOM     13  N   UNL     1       1.642   8.121  20.850  0.00  0.00    +0.000 NA
ATOM     14  C   UNL     1       0.935   9.170  20.556  0.00  0.00    +0.000 C 
ATOM     15  C   UNL     1       0.734   9.727  19.141  0.00  0.00    +0.000 C 
ATOM     16  C   UNL     1      -0.679  10.308  18.961  0.00  0.00    +0.000 C 
ATOM     17  C   UNL     1      -0.988  11.424  19.977  0.00  0.00    +0.000 C 
ATOM     18  C   UNL     1      -0.598  10.986  21.338  0.00  0.00    +0.000 A 
ATOM     19  N   UNL     1      -1.037  11.531  22.470  0.00  0.00    +0.000 NA
ATOM     20  O   UNL     1      -0.405  10.781  23.471  0.00  0.00    +0.000 OA
ATOM     21  N   UNL     1       0.416   9.783  22.926  0.00  0.00    +0.000 NA
ATOM     22  C   UNL     1       0.292   9.935  21.608  0.00  0.00    +0.000 A 
ENDBRANCH  12  13
ENDBRANCH   1  12
TORSDOF 5
ENDMDL
MODEL 5
REMARK VINA RESULT:      -7.4      0.561      1.342
REMARK  Name = 
REMARK  6 active torsions:
REMARK  status: ('A' for Active; 'I' for Inactive)
REMARK    1  A    between atoms: C_1  and  O_2
REMARK    2  A    between atoms: O_2  and  C_3
REMARK    3  A    between atoms: C_3  and  C_5
REMARK    4  A    between atoms: C_8  and  C_9
REMARK    5  A    between atoms: C_9  and  O_10
REMARK    6  A    between atoms: O_10  and  N_11
REMARK                            x       y       z     vdW  Elec       q    Type
REMARK                         _______ _______ _______ _____ _____    ______ ____
ROOT
ATOM      1  C   UNL     1       3.478   5.801  19.345  0.00  0.00    +0.000 C 
ENDROOT
BRANCH   1   5
ATOM      2  C   UNL     1       5.588   5.002  15.640  0.00  0.00    +0.000 A 
ATOM      3  C   UNL     1       5.214   3.952  16.489  0.00  0.00    +0.000 A 
ATOM      4  C   UNL     1       4.540   4.217  17.687  0.00  0.00    +0.000 A 
ATOM      5  C   UNL     1       4.236   5.533  18.061  0.00  0.00    +0.000 A 
ATOM      6  C   UNL     1       4.594   6.577  17.193  0.00  0.00    +0.000 A 
ATOM      7  C   UNL     1       5.273   6.315  15.998  0.00  0.00    +0.000 A 
BRANCH   2   8
ATOM      8  C   UNL     1       6.303   4.669  14.376  0.00  0.00    +0.000 C 
ATOM      9  O   UNL     1       5.871   3.894  13.540  0.00  0.00    +0.000 OA
BRANCH   8  11
ATOM     10  C   UNL     1       8.059   5.368  12.996  0.00  0.00    +0.000 C 
ATOM     11  O   UNL     1       7.477   5.344  14.301  0.00  0.00    +0.000 OA
ENDBRANCH   8  11
ENDBRANCH   2   8
ENDBRANCH   1   5
BRANCH   1  12
ATOM     12  O   UNL     1       2.374   6.672  19.083  0.00  0.00    +0.000 OA
BRANCH  12  13
ATOM     13  N   UNL     1       1.950   7.290  20.273  0.00  0.00    +0.000 NA
ATOM     14  C   UNL     1       1.518   8.491  20.034  0.00  0.00    +0.000 C 
ATOM     15  C   UNL     1       1.508   9.165  18.656  0.00  0.00    +0.000 C 
ATOM     16  C   UNL     1       0.277  10.070  18.481  0.00  0.00    +0.000 C 
ATOM     17  C   UNL     1       0.196  11.164  19.563  0.00  0.00    +0.000 C 
ATOM     18  C   UNL     1       0.418  10.565  20.900  0.00  0.00    +0.000 A 
ATOM     19  N   UNL     1       0.073  11.128  22.056  0.00  0.00    +0.000 NA
ATOM     20  O   UNL     1       0.474  10.191  23.019  0.00  0.00    +0.000 OA
ATOM     21  N   UNL     1       1.061   9.064  22.427  0.00  0.00    +0.000 NA
ATOM     22  C   UNL     1       1.029   9.320  21.120  0.00  0.00    +0.000 A 
ENDBRANCH  12  13
ENDBRANCH   1  12
TORSDOF 5
ENDMDL
MODEL 6
REMARK VINA RESULT:      -7.3      0.981      1.326
REMARK  Name = 
REMARK  6 active torsions:
REMARK  status: ('A' for Active; 'I' for Inactive)
REMARK    1  A    between atoms: C_1  and  O_2
REMARK    2  A    between atoms: O_2  and  C_3
REMARK    3  A    between atoms: C_3  and  C_5
REMARK    4  A    between atoms: C_8  and  C_9
REMARK    5  A    between atoms: C_9  and  O_10
REMARK    6  A    between atoms: O_10  and  N_11
REMARK                            x       y       z     vdW  Elec       q    Type
REMARK                         _______ _______ _______ _____ _____    ______ ____
ROOT
ATOM      1  C   UNL     1       2.837   5.947  19.970  0.00  0.00    +0.000 C 
ENDROOT
BRANCH   1   5
ATOM      2  C   UNL     1       5.628   5.220  16.731  0.00  0.00    +0.000 A 
ATOM      3  C   UNL     1       5.628   4.404  17.869  0.00  0.00    +0.000 A 
ATOM      4  C   UNL     1       4.730   4.648  18.914  0.00  0.00    +0.000 A 
ATOM      5  C   UNL     1       3.825   5.716  18.845  0.00  0.00    +0.000 A 
ATOM      6  C   UNL     1       3.816   6.515  17.690  0.00  0.00    +0.000 A 
ATOM      7  C   UNL     1       4.717   6.275  16.646  0.00  0.00    +0.000 A 
BRANCH   2   8
ATOM      8  C   UNL     1       6.604   4.919  15.644  0.00  0.00    +0.000 C 
ATOM      9  O   UNL     1       7.554   5.633  15.373  0.00  0.00    +0.000 OA
BRANCH   8  11
ATOM     10  C   UNL     1       6.027   3.895  13.621  0.00  0.00    +0.000 C 
ATOM     11  O   UNL     1       6.279   3.759  15.020  0.00  0.00    +0.000 OA
ENDBRANCH   8  11
ENDBRANCH   2   8
ENDBRANCH   1   5
BRANCH   1  12
ATOM     12  O   UNL     1       1.988   7.052  19.650  0.00  0.00    +0.000 OA
BRANCH  12  13
ATOM     13  N   UNL     1       1.503   7.650  20.828  0.00  0.00    +0.000 NA
ATOM     14  C   UNL     1       1.105   8.864  20.592  0.00  0.00    +0.000 C 
ATOM     15  C   UNL     1       1.188   9.569  19.232  0.00  0.00    +0.000 C 
ATOM     16  C   UNL     1      -0.016  10.499  19.007  0.00  0.00    +0.000 C 
ATOM     17  C   UNL     1      -0.144  11.569  20.109  0.00  0.00    +0.000 C 
ATOM     18  C   UNL     1      -0.011  10.935  21.442  0.00  0.00    +0.000 A 
ATOM     19  N   UNL     1      -0.415  11.477  22.588  0.00  0.00    +0.000 NA
ATOM     20  O   UNL     1      -0.087  10.512  23.550  0.00  0.00    +0.000 OA
ATOM     21  N   UNL     1       0.517   9.389  22.967  0.00  0.00    +0.000 NA
ATOM     22  C   UNL     1       0.566   9.676  21.667  0.00  0.00    +0.000 A 
ENDBRANCH  12  13
ENDBRANCH   1  12
TORSDOF 5
ENDMDL
MODEL 7
REMARK VINA RESULT:      -7.2      3.950      8.165
REMARK  Name = 
REMARK  6 active torsions:
REMARK  status: ('A' for Active; 'I' for Inactive)
REMARK    1  A    between atoms: C_1  and  O_2
REMARK    2  A    between atoms: O_2  and  C_3
REMARK    3  A    between atoms: C_3  and  C_5
REMARK    4  A    between atoms: C_8  and  C_9
REMARK    5  A    between atoms: C_9  and  O_10
REMARK    6  A    between atoms: O_10  and  N_11
REMARK                            x       y       z     vdW  Elec       q    Type
REMARK                         _______ _______ _______ _____ _____    ______ ____
ROOT
ATOM      1  C   UNL     1       2.960   7.446  17.965  0.00  0.00    +0.000 C 
ENDROOT
BRANCH   1   5
ATOM      2  C   UNL     1       0.247  10.291  19.797  0.00  0.00    +0.000 A 
ATOM      3  C   UNL     1       0.604  10.412  18.448  0.00  0.00    +0.000 A 
ATOM      4  C   UNL     1       1.486   9.496  17.865  0.00  0.00    +0.000 A 
ATOM      5  C   UNL     1       2.032   8.449  18.620  0.00  0.00    +0.000 A 
ATOM      6  C   UNL     1       1.651   8.321  19.965  0.00  0.00    +0.000 A 
ATOM      7  C   UNL     1       0.773   9.240  20.552  0.00  0.00    +0.000 A 
BRANCH   2   8
ATOM      8  C   UNL     1      -0.696  11.292  20.372  0.00  0.00    +0.000 C 
ATOM      9  O   UNL     1      -0.755  11.559  21.560  0.00  0.00    +0.000 OA
BRANCH   8  11
ATOM     10  C   UNL     1      -2.732  12.314  19.839  0.00  0.00    +0.000 C 
ATOM     11  O   UNL     1      -1.458  11.845  19.395  0.00  0.00    +0.000 OA
ENDBRANCH   8  11
ENDBRANCH   2   8
ENDBRANCH   1   5
BRANCH   1  12
ATOM     12  O   UNL     1       2.347   6.153  17.955  0.00  0.00    +0.000 OA
BRANCH  12  13
ATOM     13  N   UNL     1       3.281   5.170  18.327  0.00  0.00    +0.000 NA
ATOM     14  C   UNL     1       2.858   4.507  19.362  0.00  0.00    +0.000 C 
ATOM     15  C   UNL     1       1.545   4.782  20.106  0.00  0.00    +0.000 C 
ATOM     16  C   UNL     1       0.906   3.480  20.617  0.00  0.00    +0.000 C 
ATOM     17  C   UNL     1       1.845   2.694  21.552  0.00  0.00    +0.000 C 
ATOM     18  C   UNL     1       3.194   2.599  20.944  0.00  0.00    +0.000 A 
ATOM     19  N   UNL     1       4.126   1.715  21.290  0.00  0.00    +0.000 NA
ATOM     20  O   UNL     1       5.202   2.013  20.442  0.00  0.00    +0.000 OA
ATOM     21  N   UNL     1       4.904   3.084  19.588  0.00  0.00    +0.000 NA
ATOM     22  C   UNL     1       3.664   3.439  19.923  0.00  0.00    +0.000 A 
ENDBRANCH  12  13
ENDBRANCH   1  12
TORSDOF 5
ENDMDL
MODEL 8
REMARK VINA RESULT:      -7.2      3.145      3.992
REMARK  Name = 
REMARK  6 active torsions:
REMARK  status: ('A' for Active; 'I' for Inactive)
REMARK    1  A    between atoms: C_1  and  O_2
REMARK    2  A    between atoms: O_2  and  C_3
REMARK    3  A    between atoms: C_3  and  C_5
REMARK    4  A    between atoms: C_8  and  C_9
REMARK    5  A    between atoms: C_9  and  O_10
REMARK    6  A    between atoms: O_10  and  N_11
REMARK                            x       y       z     vdW  Elec       q    Type
REMARK                         _______ _______ _______ _____ _____    ______ ____
ROOT
ATOM      1  C   UNL     1       3.114   7.861  17.781  0.00  0.00    +0.000 C 
ENDROOT
BRANCH   1   5
ATOM      2  C   UNL     1       2.792   3.659  18.808  0.00  0.00    +0.000 A 
ATOM      3  C   UNL     1       3.940   4.390  19.142  0.00  0.00    +0.000 A 
ATOM      4  C   UNL     1       4.041   5.743  18.801  0.00  0.00    +0.000 A 
ATOM      5  C   UNL     1       3.003   6.388  18.114  0.00  0.00    +0.000 A 
ATOM      6  C   UNL     1       1.847   5.654  17.803  0.00  0.00    +0.000 A 
ATOM      7  C   UNL     1       1.746   4.299  18.139  0.00  0.00    +0.000 A 
BRANCH   2   8
ATOM      8  C   UNL     1       2.731   2.220  19.193  0.00  0.00    +0.000 C 
ATOM      9  O   UNL     1       3.572   1.399  18.869  0.00  0.00    +0.000 OA
BRANCH   8  11
ATOM     10  C   UNL     1       1.695   2.477  21.274  0.00  0.00    +0.000 C 
ATOM     11  O   UNL     1       1.626   1.973  19.940  0.00  0.00    +0.000 OA
ENDBRANCH   8  11
ENDBRANCH   2   8
ENDBRANCH   1   5
BRANCH   1  12
ATOM     12  O   UNL     1       1.904   8.532  18.140  0.00  0.00    +0.000 OA
BRANCH  12  13
ATOM     13  N   UNL     1       1.767   8.572  19.540  0.00  0.00    +0.000 NA
ATOM     14  C   UNL     1       0.980   9.545  19.893  0.00  0.00    +0.000 C 
ATOM     15  C   UNL     1       0.323  10.540  18.928  0.00  0.00    +0.000 C 
ATOM     16  C   UNL     1      -1.084  10.938  19.403  0.00  0.00    +0.000 C 
ATOM     17  C   UNL     1      -1.072  11.556  20.814  0.00  0.00    +0.000 C 
ATOM     18  C   UNL     1      -0.256  10.717  21.724  0.00  0.00    +0.000 A 
ATOM     19  N   UNL     1      -0.319  10.749  23.052  0.00  0.00    +0.000 NA
ATOM     20  O   UNL     1       0.618   9.787  23.456  0.00  0.00    +0.000 OA
ATOM     21  N   UNL     1       1.240   9.181  22.355  0.00  0.00    +0.000 NA
ATOM     22  C   UNL     1       0.695   9.779  21.296  0.00  0.00    +0.000 A 
ENDBRANCH  12  13
ENDBRANCH   1  12
TORSDOF 5
ENDMDL
MODEL 9
REMARK VINA RESULT:      -7.2      3.345      4.155
REMARK  Name = 
REMARK  6 active torsions:
REMARK  status: ('A' for Active; 'I' for Inactive)
REMARK    1  A    between atoms: C_1  and  O_2
REMARK    2  A    between atoms: O_2  and  C_3
REMARK    3  A    between atoms: C_3  and  C_5
REMARK    4  A    between atoms: C_8  and  C_9
REMARK    5  A    between atoms: C_9  and  O_10
REMARK    6  A    between atoms: O_10  and  N_11
REMARK                            x       y       z     vdW  Elec       q    Type
REMARK                         _______ _______ _______ _____ _____    ______ ____
ROOT
ATOM      1  C   UNL     1       2.903   8.054  17.778  0.00  0.00    +0.000 C 
ENDROOT
BRANCH   1   5
ATOM      2  C   UNL     1       2.964   3.942  19.156  0.00  0.00    +0.000 A 
ATOM      3  C   UNL     1       1.922   4.407  18.344  0.00  0.00    +0.000 A 
ATOM      4  C   UNL     1       1.903   5.737  17.909  0.00  0.00    +0.000 A 
ATOM      5  C   UNL     1       2.920   6.626  18.284  0.00  0.00    +0.000 A 
ATOM      6  C   UNL     1       3.973   6.145  19.079  0.00  0.00    +0.000 A 
ATOM      7  C   UNL     1       3.990   4.817  19.519  0.00  0.00    +0.000 A 
BRANCH   2   8
ATOM      8  C   UNL     1       2.939   2.517  19.594  0.00  0.00    +0.000 C 
ATOM      9  O   UNL     1       2.912   1.574  18.821  0.00  0.00    +0.000 OA
BRANCH   8  11
ATOM     10  C   UNL     1       1.672   2.615  21.558  0.00  0.00    +0.000 C 
ATOM     11  O   UNL     1       2.951   2.434  20.948  0.00  0.00    +0.000 OA
ENDBRANCH   8  11
ENDBRANCH   2   8
ENDBRANCH   1   5
BRANCH   1  12
ATOM     12  O   UNL     1       1.683   8.691  18.165  0.00  0.00    +0.000 OA
BRANCH  12  13
ATOM     13  N   UNL     1       1.573   8.720  19.567  0.00  0.00    +0.000 NA
ATOM     14  C   UNL     1       0.793   9.689  19.943  0.00  0.00    +0.000 C 
ATOM     15  C   UNL     1       0.117  10.691  19.000  0.00  0.00    +0.000 C 
ATOM     16  C   UNL     1      -1.281  11.085  19.505  0.00  0.00    +0.000 C 
ATOM     17  C   UNL     1      -1.243  11.692  20.921  0.00  0.00    +0.000 C 
ATOM     18  C   UNL     1      -0.409  10.846  21.807  0.00  0.00    +0.000 A 
ATOM     19  N   UNL     1      -0.446  10.866  23.137  0.00  0.00    +0.000 NA
ATOM     20  O   UNL     1       0.498   9.901  23.514  0.00  0.00    +0.000 OA
ATOM     21  N   UNL     1       1.099   9.305  22.397  0.00  0.00    +0.000 NA
ATOM     22  C   UNL     1       0.534   9.911  21.354  0.00  0.00    +0.000 A 
ENDBRANCH  12  13
ENDBRANCH   1  12
TORSDOF 5
ENDMDL
