MODEL 1
REMARK VINA RESULT:      -8.3      0.000      0.000
REMARK  Name = 
REMARK  5 active torsions:
REMARK  status: ('A' for Active; 'I' for Inactive)
REMARK    1  A    between atoms: C_1  and  N_2
REMARK    2  A    between atoms: N_5  and  C_6
REMARK    3  A    between atoms: N_9  and  C_10
REMARK    4  A    between atoms: C_10  and  C_11
REMARK    5  A    between atoms: C_15  and  C_16
REMARK                            x       y       z     vdW  Elec       q    Type
REMARK                         _______ _______ _______ _____ _____    ______ ____
ROOT
ATOM      1  C   UNL     1       4.021  16.204  19.868  0.00  0.00    +0.000 A 
ATOM      2  C   UNL     1       5.055  16.164  18.955  0.00  0.00    +0.000 A 
ATOM      3  C   UNL     1       6.160  15.379  19.395  0.00  0.00    +0.000 A 
ATOM      4  N   UNL     1       7.255  15.119  18.644  0.00  0.00    +0.000 NA
ATOM      5  C   UNL     1       8.181  14.364  19.244  0.00  0.00    +0.000 A 
ATOM      6  N   UNL     1       8.127  13.932  20.515  0.00  0.00    +0.000 NA
ATOM      7  C   UNL     1       7.037  14.175  21.290  0.00  0.00    +0.000 A 
ATOM      8  N   UNL     1       7.047  13.687  22.574  0.00  0.00    +0.000 N 
ATOM      9  C   UNL     1       8.298  13.651  23.337  0.00  0.00    +0.000 C 
ATOM     10  C   UNL     1       8.491  12.263  23.964  0.00  0.00    +0.000 C 
ATOM     11  O   UNL     1       7.340  11.863  24.729  0.00  0.00    +0.000 OA
ATOM     12  C   UNL     1       6.179  11.813  23.885  0.00  0.00    +0.000 C 
ATOM     13  C   UNL     1       5.867  13.186  23.272  0.00  0.00    +0.000 C 
ATOM     14  C   UNL     1       5.995  14.909  20.694  0.00  0.00    +0.000 A 
ATOM     15  S   UNL     1       4.467  15.425  21.316  0.00  0.00    +0.000 S 
ENDROOT
BRANCH   5  16
ATOM     16  C   UNL     1       9.344  13.971  18.431  0.00  0.00    +0.000 A 
ATOM     17  C   UNL     1       9.724  12.616  18.267  0.00  0.00    +0.000 A 
ATOM     18  C   UNL     1      10.836  12.239  17.515  0.00  0.00    +0.000 A 
ATOM     19  C   UNL     1      11.640  13.196  16.893  0.00  0.00    +0.000 A 
ATOM     20  C   UNL     1      11.275  14.533  17.061  0.00  0.00    +0.000 A 
ATOM     21  N   UNL     1      11.854  15.686  16.599  0.00  0.00    +0.000 N 
ATOM     22  N   UNL     1      11.224  16.809  16.974  0.00  0.00    +0.000 NA
ATOM     23  C   UNL     1      10.201  16.355  17.704  0.00  0.00    +0.000 A 
ATOM     24  C   UNL     1      10.164  14.940  17.799  0.00  0.00    +0.000 A 
ATOM     25  H   UNL     1      12.687  15.772  16.026  0.00  0.00    +0.000 HD
ENDBRANCH   5  16
BRANCH   1  26
ATOM     26  C   UNL     1       2.674  16.866  19.734  0.00  0.00    +0.000 C 
BRANCH  26  30
ATOM     27  C   UNL     1       0.304  14.516  19.350  0.00  0.00    +0.000 C 
ATOM     28  C   UNL     1      -0.237  15.888  19.720  0.00  0.00    +0.000 C 
ATOM     29  C   UNL     1       0.437  16.769  18.689  0.00  0.00    +0.000 C 
ATOM     30  N   UNL     1       1.833  16.302  18.654  0.00  0.00    +0.000 NA
ATOM     31  C   UNL     1       1.726  14.820  18.820  0.00  0.00    +0.000 C 
BRANCH  27  36
ATOM     32  C   UNL     1      -2.237  10.932  17.209  0.00  0.00    +0.000 C 
ATOM     33  N   UNL     1      -1.665  12.253  17.285  0.00  0.00    +0.000 N 
ATOM     34  C   UNL     1      -0.856  12.581  18.345  0.00  0.00    +0.000 C 
ATOM     35  O   UNL     1      -0.476  11.798  19.199  0.00  0.00    +0.000 OA
ATOM     36  N   UNL     1      -0.555  13.916  18.332  0.00  0.00    +0.000 N 
ATOM     37  H   UNL     1      -2.222  13.012  16.923  0.00  0.00    +0.000 HD
ATOM     38  H   UNL     1      -0.540  14.335  17.413  0.00  0.00    +0.000 HD
ENDBRANCH  27  36
ENDBRANCH  26  30
ENDBRANCH   1  26
TORSDOF 4
ENDMDL
MODEL 2
REMARK VINA RESULT:      -8.1      1.123      1.721
REMARK  Name = 
REMARK  5 active torsions:
REMARK  status: ('A' for Active; 'I' for Inactive)
REMARK    1  A    between atoms: C_1  and  N_2
REMARK    2  A    between atoms: N_5  and  C_6
REMARK    3  A    between atoms: N_9  and  C_10
REMARK    4  A    between atoms: C_10  and  C_11
REMARK    5  A    between atoms: C_15  and  C_16
REMARK                            x       y       z     vdW  Elec       q    Type
REMARK                         _______ _______ _______ _____ _____    ______ ____
ROOT
ATOM      1  C   UNL     1       3.861  16.433  19.741  0.00  0.00    +0.000 A 
ATOM      2  C   UNL     1       4.918  16.489  18.856  0.00  0.00    +0.000 A 
ATOM      3  C   UNL     1       6.055  15.750  19.295  0.00  0.00    +0.000 A 
ATOM      4  N   UNL     1       7.182  15.584  18.565  0.00  0.00    +0.000 NA
ATOM      5  C   UNL     1       8.135  14.860  19.160  0.00  0.00    +0.000 A 
ATOM      6  N   UNL     1       8.073  14.373  20.412  0.00  0.00    +0.000 NA
ATOM      7  C   UNL     1       6.952  14.523  21.165  0.00  0.00    +0.000 A 
ATOM      8  N   UNL     1       6.958  13.985  22.429  0.00  0.00    +0.000 N 
ATOM      9  C   UNL     1       8.190  13.989  23.225  0.00  0.00    +0.000 C 
ATOM     10  C   UNL     1       8.447  12.590  23.802  0.00  0.00    +0.000 C 
ATOM     11  O   UNL     1       7.302  12.095  24.519  0.00  0.00    +0.000 OA
ATOM     12  C   UNL     1       6.168  12.014  23.642  0.00  0.00    +0.000 C 
ATOM     13  C   UNL     1       5.792  13.390  23.074  0.00  0.00    +0.000 C 
ATOM     14  C   UNL     1       5.885  15.220  20.570  0.00  0.00    +0.000 A 
ATOM     15  S   UNL     1       4.315  15.623  21.169  0.00  0.00    +0.000 S 
ENDROOT
BRANCH   5  16
ATOM     16  C   UNL     1       9.338  14.566  18.365  0.00  0.00    +0.000 A 
ATOM     17  C   UNL     1      10.115  15.589  17.768  0.00  0.00    +0.000 A 
ATOM     18  C   UNL     1      11.244  15.315  16.996  0.00  0.00    +0.000 A 
ATOM     19  C   UNL     1      11.655  14.000  16.768  0.00  0.00    +0.000 A 
ATOM     20  C   UNL     1      10.886  12.989  17.346  0.00  0.00    +0.000 A 
ATOM     21  N   UNL     1      11.016  11.625  17.298  0.00  0.00    +0.000 N 
ATOM     22  N   UNL     1      10.070  10.956  17.976  0.00  0.00    +0.000 NA
ATOM     23  C   UNL     1       9.307  11.932  18.476  0.00  0.00    +0.000 A 
ATOM     24  C   UNL     1       9.758  13.231  18.128  0.00  0.00    +0.000 A 
ATOM     25  H   UNL     1      11.728  11.089  16.814  0.00  0.00    +0.000 HD
ENDBRANCH   5  16
BRANCH   1  26
ATOM     26  C   UNL     1       2.482  17.022  19.596  0.00  0.00    +0.000 C 
BRANCH  26  30
ATOM     27  C   UNL     1       0.133  14.633  19.340  0.00  0.00    +0.000 C 
ATOM     28  C   UNL     1      -0.422  16.023  19.605  0.00  0.00    +0.000 C 
ATOM     29  C   UNL     1       0.262  16.836  18.526  0.00  0.00    +0.000 C 
ATOM     30  N   UNL     1       1.661  16.378  18.545  0.00  0.00    +0.000 NA
ATOM     31  C   UNL     1       1.562  14.910  18.812  0.00  0.00    +0.000 C 
BRANCH  27  36
ATOM     32  C   UNL     1      -2.105  10.823  17.252  0.00  0.00    +0.000 C 
ATOM     33  N   UNL     1      -1.679  12.198  17.327  0.00  0.00    +0.000 N 
ATOM     34  C   UNL     1      -0.858  12.597  18.353  0.00  0.00    +0.000 C 
ATOM     35  O   UNL     1      -0.351  11.848  19.170  0.00  0.00    +0.000 OA
ATOM     36  N   UNL     1      -0.705  13.958  18.353  0.00  0.00    +0.000 N 
ATOM     37  H   UNL     1      -2.333  12.896  17.009  0.00  0.00    +0.000 HD
ATOM     38  H   UNL     1      -0.783  14.389  17.443  0.00  0.00    +0.000 HD
ENDBRANCH  27  36
ENDBRANCH  26  30
ENDBRANCH   1  26
TORSDOF 4
ENDMDL
MODEL 3
REMARK VINA RESULT:      -7.9      8.902     12.060
REMARK  Name = 
REMARK  5 active torsions:
REMARK  status: ('A' for Active; 'I' for Inactive)
REMARK    1  A    between atoms: C_1  and  N_2
REMARK    2  A    between atoms: N_5  and  C_6
REMARK    3  A    between atoms: N_9  and  C_10
REMARK    4  A    between atoms: C_10  and  C_11
REMARK    5  A    between atoms: C_15  and  C_16
REMARK                            x       y       z     vdW  Elec       q    Type
REMARK                         _______ _______ _______ _____ _____    ______ ____
ROOT
ATOM      1  C   UNL     1       4.638   6.334  16.567  0.00  0.00    +0.000 A 
ATOM      2  C   UNL     1       3.950   7.440  17.023  0.00  0.00    +0.000 A 
ATOM      3  C   UNL     1       3.153   7.167  18.173  0.00  0.00    +0.000 A 
ATOM      4  N   UNL     1       2.455   8.106  18.854  0.00  0.00    +0.000 NA
ATOM      5  C   UNL     1       1.768   7.643  19.903  0.00  0.00    +0.000 A 
ATOM      6  N   UNL     1       1.672   6.351  20.261  0.00  0.00    +0.000 NA
ATOM      7  C   UNL     1       2.366   5.389  19.597  0.00  0.00    +0.000 A 
ATOM      8  N   UNL     1       2.231   4.093  20.031  0.00  0.00    +0.000 N 
ATOM      9  C   UNL     1       0.942   3.620  20.545  0.00  0.00    +0.000 C 
ATOM     10  C   UNL     1       1.143   2.903  21.888  0.00  0.00    +0.000 C 
ATOM     11  O   UNL     1       2.138   1.868  21.791  0.00  0.00    +0.000 OA
ATOM     12  C   UNL     1       3.398   2.430  21.393  0.00  0.00    +0.000 C 
ATOM     13  C   UNL     1       3.306   3.105  20.017  0.00  0.00    +0.000 C 
ATOM     14  C   UNL     1       3.164   5.820  18.521  0.00  0.00    +0.000 A 
ATOM     15  S   UNL     1       4.183   4.942  17.437  0.00  0.00    +0.000 S 
ENDROOT
BRANCH   5  16
ATOM     16  C   UNL     1       1.075   8.641  20.734  0.00  0.00    +0.000 A 
ATOM     17  C   UNL     1       1.115   8.601  22.149  0.00  0.00    +0.000 A 
ATOM     18  C   UNL     1       0.444   9.532  22.941  0.00  0.00    +0.000 A 
ATOM     19  C   UNL     1      -0.317  10.550  22.364  0.00  0.00    +0.000 A 
ATOM     20  C   UNL     1      -0.368  10.586  20.969  0.00  0.00    +0.000 A 
ATOM     21  N   UNL     1      -1.026  11.436  20.118  0.00  0.00    +0.000 N 
ATOM     22  N   UNL     1      -0.852  11.156  18.817  0.00  0.00    +0.000 NA
ATOM     23  C   UNL     1      -0.051  10.087  18.839  0.00  0.00    +0.000 A 
ATOM     24  C   UNL     1       0.299   9.675  20.151  0.00  0.00    +0.000 A 
ATOM     25  H   UNL     1      -1.615  12.223  20.364  0.00  0.00    +0.000 HD
ENDBRANCH   5  16
BRANCH   1  26
ATOM     26  C   UNL     1       5.623   6.243  15.431  0.00  0.00    +0.000 C 
BRANCH  26  30
ATOM     27  C   UNL     1       6.346   4.331  12.765  0.00  0.00    +0.000 C 
ATOM     28  C   UNL     1       7.524   5.136  13.288  0.00  0.00    +0.000 C 
ATOM     29  C   UNL     1       7.502   4.786  14.762  0.00  0.00    +0.000 C 
ATOM     30  N   UNL     1       6.083   4.866  15.143  0.00  0.00    +0.000 NA
ATOM     31  C   UNL     1       5.354   4.329  13.953  0.00  0.00    +0.000 C 
BRANCH  27  36
ATOM     32  C   UNL     1       5.961  -0.130  10.804  0.00  0.00    +0.000 C 
ATOM     33  N   UNL     1       6.608   0.894  11.587  0.00  0.00    +0.000 N 
ATOM     34  C   UNL     1       5.963   2.087  11.805  0.00  0.00    +0.000 C 
ATOM     35  O   UNL     1       4.812   2.326  11.480  0.00  0.00    +0.000 OA
ATOM     36  N   UNL     1       6.797   2.987  12.413  0.00  0.00    +0.000 N 
ATOM     37  H   UNL     1       7.611   0.960  11.512  0.00  0.00    +0.000 HD
ATOM     38  H   UNL     1       7.507   2.572  12.998  0.00  0.00    +0.000 HD
ENDBRANCH  27  36
ENDBRANCH  26  30
ENDBRANCH   1  26
TORSDOF 4
ENDMDL
MODEL 4
REMARK VINA RESULT:      -7.9      7.643      8.738
REMARK  Name = 
REMARK  5 active torsions:
REMARK  status: ('A' for Active; 'I' for Inactive)
REMARK    1  A    between atoms: C_1  and  N_2
REMARK    2  A    between atoms: N_5  and  C_6
REMARK    3  A    between atoms: N_9  and  C_10
REMARK    4  A    between atoms: C_10  and  C_11
REMARK    5  A    between atoms: C_15  and  C_16
REMARK                            x       y       z     vdW  Elec       q    Type
REMARK                         _______ _______ _______ _____ _____    ______ ____
ROOT
ATOM      1  C   UNL     1       1.236   9.377  19.235  0.00  0.00    +0.000 A 
ATOM      2  C   UNL     1       2.253   9.271  18.308  0.00  0.00    +0.000 A 
ATOM      3  C   UNL     1       2.822   7.965  18.250  0.00  0.00    +0.000 A 
ATOM      4  N   UNL     1       3.774   7.590  17.364  0.00  0.00    +0.000 NA
ATOM      5  C   UNL     1       4.177   6.320  17.478  0.00  0.00    +0.000 A 
ATOM      6  N   UNL     1       3.769   5.457  18.423  0.00  0.00    +0.000 NA
ATOM      7  C   UNL     1       2.812   5.807  19.322  0.00  0.00    +0.000 A 
ATOM      8  N   UNL     1       2.433   4.865  20.248  0.00  0.00    +0.000 N 
ATOM      9  C   UNL     1       3.424   3.934  20.797  0.00  0.00    +0.000 C 
ATOM     10  C   UNL     1       2.892   2.496  20.720  0.00  0.00    +0.000 C 
ATOM     11  O   UNL     1       1.594   2.378  21.330  0.00  0.00    +0.000 OA
ATOM     12  C   UNL     1       0.656   3.237  20.663  0.00  0.00    +0.000 C 
ATOM     13  C   UNL     1       1.073   4.712  20.756  0.00  0.00    +0.000 C 
ATOM     14  C   UNL     1       2.295   7.111  19.213  0.00  0.00    +0.000 A 
ATOM     15  S   UNL     1       1.092   7.939  20.137  0.00  0.00    +0.000 S 
ENDROOT
BRANCH   5  16
ATOM     16  C   UNL     1       5.137   5.837  16.471  0.00  0.00    +0.000 A 
ATOM     17  C   UNL     1       4.886   5.941  15.081  0.00  0.00    +0.000 A 
ATOM     18  C   UNL     1       5.783   5.467  14.124  0.00  0.00    +0.000 A 
ATOM     19  C   UNL     1       6.976   4.850  14.502  0.00  0.00    +0.000 A 
ATOM     20  C   UNL     1       7.222   4.735  15.871  0.00  0.00    +0.000 A 
ATOM     21  N   UNL     1       8.275   4.179  16.550  0.00  0.00    +0.000 N 
ATOM     22  N   UNL     1       8.164   4.241  17.886  0.00  0.00    +0.000 NA
ATOM     23  C   UNL     1       6.995   4.863  18.067  0.00  0.00    +0.000 A 
ATOM     24  C   UNL     1       6.350   5.207  16.851  0.00  0.00    +0.000 A 
ATOM     25  H   UNL     1       9.098   3.735  16.157  0.00  0.00    +0.000 HD
ENDBRANCH   5  16
BRANCH   1  26
ATOM     26  C   UNL     1       0.357  10.564  19.534  0.00  0.00    +0.000 C 
BRANCH  26  30
ATOM     27  C   UNL     1      -2.816  11.515  18.978  0.00  0.00    +0.000 C 
ATOM     28  C   UNL     1      -1.877  12.659  19.327  0.00  0.00    +0.000 C 
ATOM     29  C   UNL     1      -0.743  12.432  18.349  0.00  0.00    +0.000 C 
ATOM     30  N   UNL     1      -0.495  10.982  18.398  0.00  0.00    +0.000 NA
ATOM     31  C   UNL     1      -1.856  10.382  18.542  0.00  0.00    +0.000 C 
BRANCH  27  36
ATOM     32  C   UNL     1      -7.010  13.094  17.028  0.00  0.00    +0.000 C 
ATOM     33  N   UNL     1      -5.663  12.583  16.974  0.00  0.00    +0.000 N 
ATOM     34  C   UNL     1      -5.027  12.228  18.137  0.00  0.00    +0.000 C 
ATOM     35  O   UNL     1      -5.551  12.200  19.238  0.00  0.00    +0.000 OA
ATOM     36  N   UNL     1      -3.711  11.935  17.902  0.00  0.00    +0.000 N 
ATOM     37  H   UNL     1      -5.062  12.959  16.257  0.00  0.00    +0.000 HD
ATOM     38  H   UNL     1      -3.519  11.574  16.978  0.00  0.00    +0.000 HD
ENDBRANCH  27  36
ENDBRANCH  26  30
ENDBRANCH   1  26
TORSDOF 4
ENDMDL
MODEL 5
REMARK VINA RESULT:      -7.7      1.494      1.916
REMARK  Name = 
REMARK  5 active torsions:
REMARK  status: ('A' for Active; 'I' for Inactive)
REMARK    1  A    between atoms: C_1  and  N_2
REMARK    2  A    between atoms: N_5  and  C_6
REMARK    3  A    between atoms: N_9  and  C_10
REMARK    4  A    between atoms: C_10  and  C_11
REMARK    5  A    between atoms: C_15  and  C_16
REMARK                            x       y       z     vdW  Elec       q    Type
REMARK                         _______ _______ _______ _____ _____    ______ ____
ROOT
ATOM      1  C   UNL     1       3.930  15.509  20.499  0.00  0.00    +0.000 A 
ATOM      2  C   UNL     1       5.038  15.659  19.691  0.00  0.00    +0.000 A 
ATOM      3  C   UNL     1       6.215  15.071  20.241  0.00  0.00    +0.000 A 
ATOM      4  N   UNL     1       7.406  15.013  19.602  0.00  0.00    +0.000 NA
ATOM      5  C   UNL     1       8.386  14.423  20.294  0.00  0.00    +0.000 A 
ATOM      6  N   UNL     1       8.284  13.973  21.556  0.00  0.00    +0.000 NA
ATOM      7  C   UNL     1       7.099  14.016  22.219  0.00  0.00    +0.000 A 
ATOM      8  N   UNL     1       7.069  13.522  23.501  0.00  0.00    +0.000 N 
ATOM      9  C   UNL     1       8.227  13.694  24.383  0.00  0.00    +0.000 C 
ATOM     10  C   UNL     1       8.596  12.353  25.033  0.00  0.00    +0.000 C 
ATOM     11  O   UNL     1       7.463  11.752  25.685  0.00  0.00    +0.000 OA
ATOM     12  C   UNL     1       6.416  11.512  24.732  0.00  0.00    +0.000 C 
ATOM     13  C   UNL     1       5.931  12.817  24.084  0.00  0.00    +0.000 C 
ATOM     14  C   UNL     1       6.008  14.565  21.521  0.00  0.00    +0.000 A 
ATOM     15  S   UNL     1       4.362  14.802  21.988  0.00  0.00    +0.000 S 
ENDROOT
BRANCH   5  16
ATOM     16  C   UNL     1       9.672  14.245  19.600  0.00  0.00    +0.000 A 
ATOM     17  C   UNL     1      10.674  15.246  19.602  0.00  0.00    +0.000 A 
ATOM     18  C   UNL     1      11.886  15.091  18.930  0.00  0.00    +0.000 A 
ATOM     19  C   UNL     1      12.161  13.930  18.206  0.00  0.00    +0.000 A 
ATOM     20  C   UNL     1      11.172  12.945  18.192  0.00  0.00    +0.000 A 
ATOM     21  N   UNL     1      11.133  11.722  17.575  0.00  0.00    +0.000 N 
ATOM     22  N   UNL     1       9.996  11.038  17.778  0.00  0.00    +0.000 NA
ATOM     23  C   UNL     1       9.283  11.856  18.555  0.00  0.00    +0.000 A 
ATOM     24  C   UNL     1       9.955  13.067  18.861  0.00  0.00    +0.000 A 
ATOM     25  H   UNL     1      11.850  11.299  16.996  0.00  0.00    +0.000 HD
ENDBRANCH   5  16
BRANCH   1  26
ATOM     26  C   UNL     1       2.508  15.930  20.231  0.00  0.00    +0.000 C 
BRANCH  26  30
ATOM     27  C   UNL     1      -0.170  14.139  19.277  0.00  0.00    +0.000 C 
ATOM     28  C   UNL     1      -0.394  15.643  19.268  0.00  0.00    +0.000 C 
ATOM     29  C   UNL     1       0.795  16.123  18.461  0.00  0.00    +0.000 C 
ATOM     30  N   UNL     1       1.937  15.359  18.989  0.00  0.00    +0.000 NA
ATOM     31  C   UNL     1       1.372  14.004  19.271  0.00  0.00    +0.000 C 
BRANCH  27  36
ATOM     32  C   UNL     1      -2.632  10.764  16.741  0.00  0.00    +0.000 C 
ATOM     33  N   UNL     1      -1.848  11.966  16.885  0.00  0.00    +0.000 N 
ATOM     34  C   UNL     1      -1.348  12.303  18.118  0.00  0.00    +0.000 C 
ATOM     35  O   UNL     1      -1.414  11.601  19.112  0.00  0.00    +0.000 OA
ATOM     36  N   UNL     1      -0.786  13.551  18.090  0.00  0.00    +0.000 N 
ATOM     37  H   UNL     1      -2.100  12.747  16.299  0.00  0.00    +0.000 HD
ATOM     38  H   UNL     1      -0.409  13.822  17.194  0.00  0.00    +0.000 HD
ENDBRANCH  27  36
ENDBRANCH  26  30
ENDBRANCH   1  26
TORSDOF 4
ENDMDL
MODEL 6
REMARK VINA RESULT:      -7.6      7.781      8.800
REMARK  Name = 
REMARK  5 active torsions:
REMARK  status: ('A' for Active; 'I' for Inactive)
REMARK    1  A    between atoms: C_1  and  N_2
REMARK    2  A    between atoms: N_5  and  C_6
REMARK    3  A    between atoms: N_9  and  C_10
REMARK    4  A    between atoms: C_10  and  C_11
REMARK    5  A    between atoms: C_15  and  C_16
REMARK                            x       y       z     vdW  Elec       q    Type
REMARK                         _______ _______ _______ _____ _____    ______ ____
ROOT
ATOM      1  C   UNL     1       1.168   9.476  18.953  0.00  0.00    +0.000 A 
ATOM      2  C   UNL     1       2.235   9.325  18.092  0.00  0.00    +0.000 A 
ATOM      3  C   UNL     1       2.800   8.016  18.127  0.00  0.00    +0.000 A 
ATOM      4  N   UNL     1       3.799   7.598  17.316  0.00  0.00    +0.000 NA
ATOM      5  C   UNL     1       4.188   6.334  17.511  0.00  0.00    +0.000 A 
ATOM      6  N   UNL     1       3.721   5.516  18.470  0.00  0.00    +0.000 NA
ATOM      7  C   UNL     1       2.716   5.910  19.295  0.00  0.00    +0.000 A 
ATOM      8  N   UNL     1       2.281   5.014  20.241  0.00  0.00    +0.000 N 
ATOM      9  C   UNL     1       3.233   4.106  20.888  0.00  0.00    +0.000 C 
ATOM     10  C   UNL     1       2.699   2.667  20.847  0.00  0.00    +0.000 C 
ATOM     11  O   UNL     1       1.367   2.582  21.387  0.00  0.00    +0.000 OA
ATOM     12  C   UNL     1       0.474   3.411  20.628  0.00  0.00    +0.000 C 
ATOM     13  C   UNL     1       0.893   4.888  20.676  0.00  0.00    +0.000 C 
ATOM     14  C   UNL     1       2.214   7.210  19.097  0.00  0.00    +0.000 A 
ATOM     15  S   UNL     1       0.965   8.082  19.911  0.00  0.00    +0.000 S 
ENDROOT
BRANCH   5  16
ATOM     16  C   UNL     1       5.201   5.802  16.585  0.00  0.00    +0.000 A 
ATOM     17  C   UNL     1       5.020   5.817  15.180  0.00  0.00    +0.000 A 
ATOM     18  C   UNL     1       5.967   5.296  14.299  0.00  0.00    +0.000 A 
ATOM     19  C   UNL     1       7.146   4.718  14.773  0.00  0.00    +0.000 A 
ATOM     20  C   UNL     1       7.324   4.691  16.158  0.00  0.00    +0.000 A 
ATOM     21  N   UNL     1       8.347   4.191  16.920  0.00  0.00    +0.000 N 
ATOM     22  N   UNL     1       8.169   4.334  18.243  0.00  0.00    +0.000 NA
ATOM     23  C   UNL     1       6.987   4.950  18.327  0.00  0.00    +0.000 A 
ATOM     24  C   UNL     1       6.400   5.212  17.062  0.00  0.00    +0.000 A 
ATOM     25  H   UNL     1       9.193   3.734  16.597  0.00  0.00    +0.000 HD
ENDBRANCH   5  16
BRANCH   1  26
ATOM     26  C   UNL     1       0.280  10.678  19.146  0.00  0.00    +0.000 C 
BRANCH  26  30
ATOM     27  C   UNL     1      -2.659  12.164  18.481  0.00  0.00    +0.000 C 
ATOM     28  C   UNL     1      -2.042  11.449  17.290  0.00  0.00    +0.000 C 
ATOM     29  C   UNL     1      -1.752  10.081  17.872  0.00  0.00    +0.000 C 
ATOM     30  N   UNL     1      -1.165  10.356  19.194  0.00  0.00    +0.000 NA
ATOM     31  C   UNL     1      -1.928  11.540  19.694  0.00  0.00    +0.000 C 
BRANCH  27  36
ATOM     32  C   UNL     1      -7.261  12.738  20.024  0.00  0.00    +0.000 C 
ATOM     33  N   UNL     1      -6.216  12.101  19.261  0.00  0.00    +0.000 N 
ATOM     34  C   UNL     1      -4.914  12.502  19.432  0.00  0.00    +0.000 C 
ATOM     35  O   UNL     1      -4.535  13.296  20.276  0.00  0.00    +0.000 OA
ATOM     36  N   UNL     1      -4.098  11.911  18.505  0.00  0.00    +0.000 N 
ATOM     37  H   UNL     1      -6.451  11.803  18.327  0.00  0.00    +0.000 HD
ATOM     38  H   UNL     1      -4.410  11.006  18.186  0.00  0.00    +0.000 HD
ENDBRANCH  27  36
ENDBRANCH  26  30
ENDBRANCH   1  26
TORSDOF 4
ENDMDL
MODEL 7
REMARK VINA RESULT:      -7.5      1.292      1.323
REMARK  Name = 
REMARK  5 active torsions:
REMARK  status: ('A' for Active; 'I' for Inactive)
REMARK    1  A    between atoms: C_1  and  N_2
REMARK    2  A    between atoms: N_5  and  C_6
REMARK    3  A    between atoms: N_9  and  C_10
REMARK    4  A    between atoms: C_10  and  C_11
REMARK    5  A    between atoms: C_15  and  C_16
REMARK                            x       y       z     vdW  Elec       q    Type
REMARK                         _______ _______ _______ _____ _____    ______ ____
ROOT
ATOM      1  C   UNL     1       3.643  16.246  19.912  0.00  0.00    +0.000 A 
ATOM      2  C   UNL     1       4.523  15.803  18.945  0.00  0.00    +0.000 A 
ATOM      3  C   UNL     1       5.790  15.421  19.475  0.00  0.00    +0.000 A 
ATOM      4  N   UNL     1       6.787  14.877  18.741  0.00  0.00    +0.000 NA
ATOM      5  C   UNL     1       7.899  14.592  19.428  0.00  0.00    +0.000 A 
ATOM      6  N   UNL     1       8.102  14.871  20.727  0.00  0.00    +0.000 NA
ATOM      7  C   UNL     1       7.116  15.414  21.487  0.00  0.00    +0.000 A 
ATOM      8  N   UNL     1       7.393  15.656  22.811  0.00  0.00    +0.000 N 
ATOM      9  C   UNL     1       8.734  16.089  23.214  0.00  0.00    +0.000 C 
ATOM     10  C   UNL     1       9.232  15.233  24.388  0.00  0.00    +0.000 C 
ATOM     11  O   UNL     1       8.283  15.217  25.471  0.00  0.00    +0.000 OA
ATOM     12  C   UNL     1       7.032  14.674  25.022  0.00  0.00    +0.000 C 
ATOM     13  C   UNL     1       6.422  15.516  23.892  0.00  0.00    +0.000 C 
ATOM     14  C   UNL     1       5.895  15.676  20.838  0.00  0.00    +0.000 A 
ATOM     15  S   UNL     1       4.416  16.348  21.427  0.00  0.00    +0.000 S 
ENDROOT
BRANCH   5  16
ATOM     16  C   UNL     1       8.974  13.905  18.694  0.00  0.00    +0.000 A 
ATOM     17  C   UNL     1       9.169  12.505  18.779  0.00  0.00    +0.000 A 
ATOM     18  C   UNL     1      10.198  11.852  18.102  0.00  0.00    +0.000 A 
ATOM     19  C   UNL     1      11.100  12.564  17.309  0.00  0.00    +0.000 A 
ATOM     20  C   UNL     1      10.919  13.946  17.231  0.00  0.00    +0.000 A 
ATOM     21  N   UNL     1      11.630  14.907  16.561  0.00  0.00    +0.000 N 
ATOM     22  N   UNL     1      11.163  16.155  16.729  0.00  0.00    +0.000 NA
ATOM     23  C   UNL     1      10.113  15.982  17.536  0.00  0.00    +0.000 A 
ATOM     24  C   UNL     1       9.894  14.625  17.889  0.00  0.00    +0.000 A 
ATOM     25  H   UNL     1      12.448  14.776  15.977  0.00  0.00    +0.000 HD
ENDBRANCH   5  16
BRANCH   1  26
ATOM     26  C   UNL     1       2.205  16.666  19.752  0.00  0.00    +0.000 C 
BRANCH  26  30
ATOM     27  C   UNL     1      -0.097  14.287  19.177  0.00  0.00    +0.000 C 
ATOM     28  C   UNL     1      -0.679  15.676  19.388  0.00  0.00    +0.000 C 
ATOM     29  C   UNL     1       0.136  16.500  18.412  0.00  0.00    +0.000 C 
ATOM     30  N   UNL     1       1.520  16.037  18.599  0.00  0.00    +0.000 NA
ATOM     31  C   UNL     1       1.386  14.566  18.834  0.00  0.00    +0.000 C 
BRANCH  27  36
ATOM     32  C   UNL     1      -2.597  10.682  17.023  0.00  0.00    +0.000 C 
ATOM     33  N   UNL     1      -1.890  11.939  17.048  0.00  0.00    +0.000 N 
ATOM     34  C   UNL     1      -1.270  12.343  18.205  0.00  0.00    +0.000 C 
ATOM     35  O   UNL     1      -1.166  11.665  19.213  0.00  0.00    +0.000 OA
ATOM     36  N   UNL     1      -0.808  13.626  18.086  0.00  0.00    +0.000 N 
ATOM     37  H   UNL     1      -2.266  12.684  16.483  0.00  0.00    +0.000 HD
ATOM     38  H   UNL     1      -0.561  13.898  17.145  0.00  0.00    +0.000 HD
ENDBRANCH  27  36
ENDBRANCH  26  30
ENDBRANCH   1  26
TORSDOF 4
ENDMDL
MODEL 8
REMARK VINA RESULT:      -7.5      2.108      2.291
REMARK  Name = 
REMARK  5 active torsions:
REMARK  status: ('A' for Active; 'I' for Inactive)
REMARK    1  A    between atoms: C_1  and  N_2
REMARK    2  A    between atoms: N_5  and  C_6
REMARK    3  A    between atoms: N_9  and  C_10
REMARK    4  A    between atoms: C_10  and  C_11
REMARK    5  A    between atoms: C_15  and  C_16
REMARK                            x       y       z     vdW  Elec       q    Type
REMARK                         _______ _______ _______ _____ _____    ______ ____
ROOT
ATOM      1  C   UNL     1       3.567  15.306  18.865  0.00  0.00    +0.000 A 
ATOM      2  C   UNL     1       4.585  14.997  17.987  0.00  0.00    +0.000 A 
ATOM      3  C   UNL     1       5.861  14.912  18.617  0.00  0.00    +0.000 A 
ATOM      4  N   UNL     1       6.998  14.541  17.984  0.00  0.00    +0.000 NA
ATOM      5  C   UNL     1       8.091  14.530  18.755  0.00  0.00    +0.000 A 
ATOM      6  N   UNL     1       8.139  14.919  20.040  0.00  0.00    +0.000 NA
ATOM      7  C   UNL     1       7.012  15.292  20.700  0.00  0.00    +0.000 A 
ATOM      8  N   UNL     1       7.138  15.662  22.017  0.00  0.00    +0.000 N 
ATOM      9  C   UNL     1       8.332  16.382  22.468  0.00  0.00    +0.000 C 
ATOM     10  C   UNL     1       8.905  15.715  23.727  0.00  0.00    +0.000 C 
ATOM     11  O   UNL     1       7.902  15.568  24.749  0.00  0.00    +0.000 OA
ATOM     12  C   UNL     1       6.821  14.756  24.267  0.00  0.00    +0.000 C 
ATOM     13  C   UNL     1       6.138  15.390  23.046  0.00  0.00    +0.000 C 
ATOM     14  C   UNL     1       5.813  15.262  19.962  0.00  0.00    +0.000 A 
ATOM     15  S   UNL     1       4.191  15.651  20.412  0.00  0.00    +0.000 S 
ENDROOT
BRANCH   5  16
ATOM     16  C   UNL     1       9.332  14.035  18.137  0.00  0.00    +0.000 A 
ATOM     17  C   UNL     1       9.624  12.653  18.036  0.00  0.00    +0.000 A 
ATOM     18  C   UNL     1      10.808  12.180  17.470  0.00  0.00    +0.000 A 
ATOM     19  C   UNL     1      11.773  13.063  16.983  0.00  0.00    +0.000 A 
ATOM     20  C   UNL     1      11.494  14.426  17.090  0.00  0.00    +0.000 A 
ATOM     21  N   UNL     1      12.229  15.523  16.724  0.00  0.00    +0.000 N 
ATOM     22  N   UNL     1      11.638  16.698  16.994  0.00  0.00    +0.000 NA
ATOM     23  C   UNL     1      10.480  16.335  17.553  0.00  0.00    +0.000 A 
ATOM     24  C   UNL     1      10.316  14.929  17.642  0.00  0.00    +0.000 A 
ATOM     25  H   UNL     1      13.145  15.537  16.290  0.00  0.00    +0.000 HD
ENDBRANCH   5  16
BRANCH   1  26
ATOM     26  C   UNL     1       2.089  15.413  18.590  0.00  0.00    +0.000 C 
BRANCH  26  30
ATOM     27  C   UNL     1       1.154  12.681  20.306  0.00  0.00    +0.000 C 
ATOM     28  C   UNL     1       0.101  13.776  20.262  0.00  0.00    +0.000 C 
ATOM     29  C   UNL     1       0.026  14.067  18.777  0.00  0.00    +0.000 C 
ATOM     30  N   UNL     1       1.429  14.113  18.336  0.00  0.00    +0.000 NA
ATOM     31  C   UNL     1       2.100  13.043  19.136  0.00  0.00    +0.000 C 
BRANCH  27  36
ATOM     32  C   UNL     1      -0.540   8.311  21.691  0.00  0.00    +0.000 C 
ATOM     33  N   UNL     1      -0.203   9.327  20.726  0.00  0.00    +0.000 N 
ATOM     34  C   UNL     1       0.433  10.471  21.142  0.00  0.00    +0.000 C 
ATOM     35  O   UNL     1       0.851  10.664  22.271  0.00  0.00    +0.000 OA
ATOM     36  N   UNL     1       0.510  11.383  20.124  0.00  0.00    +0.000 N 
ATOM     37  H   UNL     1      -0.838   9.450  19.953  0.00  0.00    +0.000 HD
ATOM     38  H   UNL     1       0.546  10.978  19.199  0.00  0.00    +0.000 HD
ENDBRANCH  27  36
ENDBRANCH  26  30
ENDBRANCH   1  26
TORSDOF 4
ENDMDL
MODEL 9
REMARK VINA RESULT:      -7.4      7.735      8.788
REMARK  Name = 
REMARK  5 active torsions:
REMARK  status: ('A' for Active; 'I' for Inactive)
REMARK    1  A    between atoms: C_1  and  N_2
REMARK    2  A    between atoms: N_5  and  C_6
REMARK    3  A    between atoms: N_9  and  C_10
REMARK    4  A    between atoms: C_10  and  C_11
REMARK    5  A    between atoms: C_15  and  C_16
REMARK                            x       y       z     vdW  Elec       q    Type
REMARK                         _______ _______ _______ _____ _____    ______ ____
ROOT
ATOM      1  C   UNL     1       1.137   9.570  18.631  0.00  0.00    +0.000 A 
ATOM      2  C   UNL     1       2.234   9.385  17.814  0.00  0.00    +0.000 A 
ATOM      3  C   UNL     1       2.804   8.084  17.929  0.00  0.00    +0.000 A 
ATOM      4  N   UNL     1       3.831   7.635  17.172  0.00  0.00    +0.000 NA
ATOM      5  C   UNL     1       4.221   6.384  17.439  0.00  0.00    +0.000 A 
ATOM      6  N   UNL     1       3.727   5.609  18.419  0.00  0.00    +0.000 NA
ATOM      7  C   UNL     1       2.693   6.034  19.192  0.00  0.00    +0.000 A 
ATOM      8  N   UNL     1       2.231   5.180  20.163  0.00  0.00    +0.000 N 
ATOM      9  C   UNL     1       3.166   4.311  20.884  0.00  0.00    +0.000 C 
ATOM     10  C   UNL     1       2.641   2.868  20.893  0.00  0.00    +0.000 C 
ATOM     11  O   UNL     1       1.293   2.798  21.392  0.00  0.00    +0.000 OA
ATOM     12  C   UNL     1       0.421   3.585  20.566  0.00  0.00    +0.000 C 
ATOM     13  C   UNL     1       0.830   5.065  20.558  0.00  0.00    +0.000 C 
ATOM     14  C   UNL     1       2.191   7.320  18.916  0.00  0.00    +0.000 A 
ATOM     15  S   UNL     1       0.910   8.221  19.647  0.00  0.00    +0.000 S 
ENDROOT
BRANCH   5  16
ATOM     16  C   UNL     1       5.267   5.817  16.573  0.00  0.00    +0.000 A 
ATOM     17  C   UNL     1       5.150   5.803  15.161  0.00  0.00    +0.000 A 
ATOM     18  C   UNL     1       6.129   5.247  14.337  0.00  0.00    +0.000 A 
ATOM     19  C   UNL     1       7.276   4.664  14.877  0.00  0.00    +0.000 A 
ATOM     20  C   UNL     1       7.390   4.666  16.269  0.00  0.00    +0.000 A 
ATOM     21  N   UNL     1       8.369   4.168  17.089  0.00  0.00    +0.000 N 
ATOM     22  N   UNL     1       8.133   4.344  18.399  0.00  0.00    +0.000 NA
ATOM     23  C   UNL     1       6.958   4.979  18.414  0.00  0.00    +0.000 A 
ATOM     24  C   UNL     1       6.433   5.220  17.118  0.00  0.00    +0.000 A 
ATOM     25  H   UNL     1       9.221   3.692  16.815  0.00  0.00    +0.000 HD
ENDBRANCH   5  16
BRANCH   1  26
ATOM     26  C   UNL     1       0.237  10.773  18.738  0.00  0.00    +0.000 C 
BRANCH  26  30
ATOM     27  C   UNL     1      -2.342  12.513  20.007  0.00  0.00    +0.000 C 
ATOM     28  C   UNL     1      -2.529  12.095  18.557  0.00  0.00    +0.000 C 
ATOM     29  C   UNL     1      -2.226  10.612  18.627  0.00  0.00    +0.000 C 
ATOM     30  N   UNL     1      -1.024  10.517  19.471  0.00  0.00    +0.000 NA
ATOM     31  C   UNL     1      -1.224  11.570  20.513  0.00  0.00    +0.000 C 
BRANCH  27  36
ATOM     32  C   UNL     1      -5.510  13.155  23.672  0.00  0.00    +0.000 C 
ATOM     33  N   UNL     1      -5.041  12.547  22.452  0.00  0.00    +0.000 N 
ATOM     34  C   UNL     1      -3.793  12.866  21.974  0.00  0.00    +0.000 C 
ATOM     35  O   UNL     1      -2.976  13.553  22.563  0.00  0.00    +0.000 OA
ATOM     36  N   UNL     1      -3.598  12.330  20.730  0.00  0.00    +0.000 N 
ATOM     37  H   UNL     1      -5.731  12.354  21.743  0.00  0.00    +0.000 HD
ATOM     38  H   UNL     1      -4.108  11.477  20.555  0.00  0.00    +0.000 HD
ENDBRANCH  27  36
ENDBRANCH  26  30
ENDBRANCH   1  26
TORSDOF 4
ENDMDL
