MODEL 1
REMARK VINA RESULT:      -7.0      0.000      0.000
REMARK  Name = 
REMARK  4 active torsions:
REMARK  status: ('A' for Active; 'I' for Inactive)
REMARK    1  A    between atoms: C_1  and  O_2
REMARK    2  A    between atoms: O_2  and  C_3
REMARK    3  A    between atoms: C_5  and  C_6
REMARK    4  A    between atoms: C_12  and  C_13
REMARK                            x       y       z     vdW  Elec       q    Type
REMARK                         _______ _______ _______ _____ _____    ______ ____
ROOT
ATOM      1  C   UNL     1       3.206   5.568  18.386  0.00  0.00    +0.000 C 
ATOM      2  O   UNL     1       2.302   6.411  18.189  0.00  0.00    +0.000 OA
ATOM      3  N   UNL     1       2.842   4.377  19.058  0.00  0.00    +0.000 N 
ATOM      4  C   UNL     1       1.422   4.526  19.523  0.00  0.00    +0.000 C 
ATOM      5  C   UNL     1       1.225   3.207  20.203  0.00  0.00    +0.000 C 
ATOM      6  C   UNL     1       1.786   2.228  19.160  0.00  0.00    +0.000 C 
ATOM      7  C   UNL     1       3.176   2.936  19.584  0.00  0.00    +0.000 C 
ATOM      8  C   UNL     1       2.521   3.041  21.030  0.00  0.00    +0.000 C 
ENDROOT
BRANCH   7   9
ATOM      9  C   UNL     1       4.222   1.706  19.636  0.00  0.00    +0.000 C 
ATOM     10  N   UNL     1       4.367   0.691  18.763  0.00  0.00    +0.000 N 
ATOM     11  O   UNL     1       5.149   1.744  20.484  0.00  0.00    +0.000 OA
ATOM     12  H   UNL     1       3.811   0.471  17.965  0.00  0.00    +0.000 HD
ATOM     13  H   UNL     1       5.255   0.201  18.898  0.00  0.00    +0.000 HD
ENDBRANCH   7   9
BRANCH   1  16
ATOM     14  C   UNL     1       5.297   5.409  15.991  0.00  0.00    +0.000 C 
ATOM     15  C   UNL     1       5.532   4.926  17.433  0.00  0.00    +0.000 C 
ATOM     16  C   UNL     1       4.547   6.062  17.903  0.00  0.00    +0.000 C 
ATOM     17  C   UNL     1       4.847   6.764  16.592  0.00  0.00    +0.000 C 
BRANCH  14  19
ATOM     18  C   UNL     1       6.544   4.509  14.102  0.00  0.00    +0.000 C 
ATOM     19  O   UNL     1       6.443   5.494  15.122  0.00  0.00    +0.000 OA
ENDBRANCH  14  19
ENDBRANCH   1  16
TORSDOF 3
ENDMDL
MODEL 2
REMARK VINA RESULT:      -6.8      2.094      2.845
REMARK  Name = 
REMARK  4 active torsions:
REMARK  status: ('A' for Active; 'I' for Inactive)
REMARK    1  A    between atoms: C_1  and  O_2
REMARK    2  A    between atoms: O_2  and  C_3
REMARK    3  A    between atoms: C_5  and  C_6
REMARK    4  A    between atoms: C_12  and  C_13
REMARK                            x       y       z     vdW  Elec       q    Type
REMARK                         _______ _______ _______ _____ _____    ______ ____
ROOT
ATOM      1  C   UNL     1       4.688   4.042  17.690  0.00  0.00    +0.000 C 
ATOM      2  O   UNL     1       4.618   4.195  16.450  0.00  0.00    +0.000 OA
ATOM      3  N   UNL     1       3.499   3.666  18.361  0.00  0.00    +0.000 N 
ATOM      4  C   UNL     1       2.374   3.715  17.368  0.00  0.00    +0.000 C 
ATOM      5  C   UNL     1       1.230   3.308  18.241  0.00  0.00    +0.000 C 
ATOM      6  C   UNL     1       1.806   2.082  18.966  0.00  0.00    +0.000 C 
ATOM      7  C   UNL     1       2.733   3.214  19.654  0.00  0.00    +0.000 C 
ATOM      8  C   UNL     1       1.450   4.146  19.522  0.00  0.00    +0.000 C 
ENDROOT
BRANCH   7   9
ATOM      9  C   UNL     1       2.809   2.747  21.198  0.00  0.00    +0.000 C 
ATOM     10  N   UNL     1       1.864   2.848  22.153  0.00  0.00    +0.000 N 
ATOM     11  O   UNL     1       3.784   2.043  21.564  0.00  0.00    +0.000 OA
ATOM     12  H   UNL     1       0.974   3.294  22.104  0.00  0.00    +0.000 HD
ATOM     13  H   UNL     1       2.077   2.256  22.960  0.00  0.00    +0.000 HD
ENDBRANCH   7   9
BRANCH   1  16
ATOM     14  C   UNL     1       6.857   6.355  17.960  0.00  0.00    +0.000 C 
ATOM     15  C   UNL     1       7.023   5.045  17.171  0.00  0.00    +0.000 C 
ATOM     16  C   UNL     1       6.061   4.370  18.220  0.00  0.00    +0.000 C 
ATOM     17  C   UNL     1       6.433   5.490  19.173  0.00  0.00    +0.000 C 
BRANCH  14  19
ATOM     18  C   UNL     1       7.972   8.514  17.776  0.00  0.00    +0.000 C 
ATOM     19  O   UNL     1       8.036   7.153  18.181  0.00  0.00    +0.000 OA
ENDBRANCH  14  19
ENDBRANCH   1  16
TORSDOF 3
ENDMDL
MODEL 3
REMARK VINA RESULT:      -6.6      1.854      2.431
REMARK  Name = 
REMARK  4 active torsions:
REMARK  status: ('A' for Active; 'I' for Inactive)
REMARK    1  A    between atoms: C_1  and  O_2
REMARK    2  A    between atoms: O_2  and  C_3
REMARK    3  A    between atoms: C_5  and  C_6
REMARK    4  A    between atoms: C_12  and  C_13
REMARK                            x       y       z     vdW  Elec       q    Type
REMARK                         _______ _______ _______ _____ _____    ______ ____
ROOT
ATOM      1  C   UNL     1       4.980   5.591  17.090  0.00  0.00    +0.000 C 
ATOM      2  O   UNL     1       5.056   6.837  17.006  0.00  0.00    +0.000 OA
ATOM      3  N   UNL     1       3.947   5.062  17.902  0.00  0.00    +0.000 N 
ATOM      4  C   UNL     1       3.286   6.208  18.612  0.00  0.00    +0.000 C 
ATOM      5  C   UNL     1       2.257   5.470  19.408  0.00  0.00    +0.000 C 
ATOM      6  C   UNL     1       1.654   4.532  18.351  0.00  0.00    +0.000 C 
ATOM      7  C   UNL     1       3.117   3.851  18.457  0.00  0.00    +0.000 C 
ATOM      8  C   UNL     1       3.051   4.277  19.989  0.00  0.00    +0.000 C 
ENDROOT
BRANCH   7   9
ATOM      9  C   UNL     1       2.799   2.269  18.402  0.00  0.00    +0.000 C 
ATOM     10  N   UNL     1       1.615   1.645  18.561  0.00  0.00    +0.000 N 
ATOM     11  O   UNL     1       3.698   1.491  17.994  0.00  0.00    +0.000 OA
ATOM     12  H   UNL     1       0.734   2.036  18.815  0.00  0.00    +0.000 HD
ATOM     13  H   UNL     1       1.651   0.677  18.231  0.00  0.00    +0.000 HD
ENDBRANCH   7   9
BRANCH   1  16
ATOM     14  C   UNL     1       5.745   4.235  14.314  0.00  0.00    +0.000 C 
ATOM     15  C   UNL     1       5.688   3.531  15.681  0.00  0.00    +0.000 C 
ATOM     16  C   UNL     1       6.090   4.908  16.332  0.00  0.00    +0.000 C 
ATOM     17  C   UNL     1       6.652   5.301  14.978  0.00  0.00    +0.000 C 
BRANCH  14  19
ATOM     18  C   UNL     1       5.543   3.247  12.097  0.00  0.00    +0.000 C 
ATOM     19  O   UNL     1       6.363   3.524  13.225  0.00  0.00    +0.000 OA
ENDBRANCH  14  19
ENDBRANCH   1  16
TORSDOF 3
ENDMDL
MODEL 4
REMARK VINA RESULT:      -6.6      1.998      3.923
REMARK  Name = 
REMARK  4 active torsions:
REMARK  status: ('A' for Active; 'I' for Inactive)
REMARK    1  A    between atoms: C_1  and  O_2
REMARK    2  A    between atoms: O_2  and  C_3
REMARK    3  A    between atoms: C_5  and  C_6
REMARK    4  A    between atoms: C_12  and  C_13
REMARK                            x       y       z     vdW  Elec       q    Type
REMARK                         _______ _______ _______ _____ _____    ______ ____
ROOT
ATOM      1  C   UNL     1       5.386   4.897  18.909  0.00  0.00    +0.000 C 
ATOM      2  O   UNL     1       5.730   3.819  19.445  0.00  0.00    +0.000 OA
ATOM      3  N   UNL     1       4.018   5.252  18.999  0.00  0.00    +0.000 N 
ATOM      4  C   UNL     1       3.279   4.094  19.605  0.00  0.00    +0.000 C 
ATOM      5  C   UNL     1       1.886   4.639  19.608  0.00  0.00    +0.000 C 
ATOM      6  C   UNL     1       2.098   6.044  20.194  0.00  0.00    +0.000 C 
ATOM      7  C   UNL     1       2.843   6.270  18.777  0.00  0.00    +0.000 C 
ATOM      8  C   UNL     1       1.751   5.266  18.200  0.00  0.00    +0.000 C 
ENDROOT
BRANCH   7   9
ATOM      9  C   UNL     1       2.383   7.755  18.344  0.00  0.00    +0.000 C 
ATOM     10  N   UNL     1       1.699   8.666  19.065  0.00  0.00    +0.000 N 
ATOM     11  O   UNL     1       2.838   8.236  17.276  0.00  0.00    +0.000 OA
ATOM     12  H   UNL     1       1.290   8.564  19.968  0.00  0.00    +0.000 HD
ATOM     13  H   UNL     1       1.761   9.599  18.651  0.00  0.00    +0.000 HD
ENDBRANCH   7   9
BRANCH   1  16
ATOM     14  C   UNL     1       6.833   5.241  16.095  0.00  0.00    +0.000 C 
ATOM     15  C   UNL     1       7.439   4.596  17.353  0.00  0.00    +0.000 C 
ATOM     16  C   UNL     1       6.538   5.567  18.205  0.00  0.00    +0.000 C 
ATOM     17  C   UNL     1       6.471   6.459  16.980  0.00  0.00    +0.000 C 
BRANCH  14  19
ATOM     18  C   UNL     1       7.405   4.973  13.743  0.00  0.00    +0.000 C 
ATOM     19  O   UNL     1       7.725   5.542  15.005  0.00  0.00    +0.000 OA
ENDBRANCH  14  19
ENDBRANCH   1  16
TORSDOF 3
ENDMDL
MODEL 5
REMARK VINA RESULT:      -6.6      1.962      3.086
REMARK  Name = 
REMARK  4 active torsions:
REMARK  status: ('A' for Active; 'I' for Inactive)
REMARK    1  A    between atoms: C_1  and  O_2
REMARK    2  A    between atoms: O_2  and  C_3
REMARK    3  A    between atoms: C_5  and  C_6
REMARK    4  A    between atoms: C_12  and  C_13
REMARK                            x       y       z     vdW  Elec       q    Type
REMARK                         _______ _______ _______ _____ _____    ______ ____
ROOT
ATOM      1  C   UNL     1       5.415   5.707  16.012  0.00  0.00    +0.000 C 
ATOM      2  O   UNL     1       5.244   6.840  15.509  0.00  0.00    +0.000 OA
ATOM      3  N   UNL     1       4.664   5.396  17.171  0.00  0.00    +0.000 N 
ATOM      4  C   UNL     1       3.945   6.642  17.602  0.00  0.00    +0.000 C 
ATOM      5  C   UNL     1       3.234   6.133  18.816  0.00  0.00    +0.000 C 
ATOM      6  C   UNL     1       2.630   4.818  18.298  0.00  0.00    +0.000 C 
ATOM      7  C   UNL     1       4.187   4.383  18.272  0.00  0.00    +0.000 C 
ATOM      8  C   UNL     1       4.327   5.321  19.550  0.00  0.00    +0.000 C 
ENDROOT
BRANCH   7   9
ATOM      9  C   UNL     1       4.161   2.863  18.814  0.00  0.00    +0.000 C 
ATOM     10  N   UNL     1       3.751   1.750  18.173  0.00  0.00    +0.000 N 
ATOM     11  O   UNL     1       4.742   2.603  19.897  0.00  0.00    +0.000 OA
ATOM     12  H   UNL     1       3.322   1.671  17.277  0.00  0.00    +0.000 HD
ATOM     13  H   UNL     1       4.074   0.902  18.645  0.00  0.00    +0.000 HD
ENDBRANCH   7   9
BRANCH   1  16
ATOM     14  C   UNL     1       5.975   3.921  13.437  0.00  0.00    +0.000 C 
ATOM     15  C   UNL     1       6.054   3.452  14.900  0.00  0.00    +0.000 C 
ATOM     16  C   UNL     1       6.474   4.922  15.279  0.00  0.00    +0.000 C 
ATOM     17  C   UNL     1       6.906   5.092  13.835  0.00  0.00    +0.000 C 
BRANCH  14  19
ATOM     18  C   UNL     1       5.576   2.363  11.608  0.00  0.00    +0.000 C 
ATOM     19  O   UNL     1       6.514   3.047  12.428  0.00  0.00    +0.000 OA
ENDBRANCH  14  19
ENDBRANCH   1  16
TORSDOF 3
ENDMDL
MODEL 6
REMARK VINA RESULT:      -6.5      1.750      3.532
REMARK  Name = 
REMARK  4 active torsions:
REMARK  status: ('A' for Active; 'I' for Inactive)
REMARK    1  A    between atoms: C_1  and  O_2
REMARK    2  A    between atoms: O_2  and  C_3
REMARK    3  A    between atoms: C_5  and  C_6
REMARK    4  A    between atoms: C_12  and  C_13
REMARK                            x       y       z     vdW  Elec       q    Type
REMARK                         _______ _______ _______ _____ _____    ______ ____
ROOT
ATOM      1  C   UNL     1       3.662   3.240  17.953  0.00  0.00    +0.000 C 
ATOM      2  O   UNL     1       3.890   2.011  17.894  0.00  0.00    +0.000 OA
ATOM      3  N   UNL     1       2.841   3.692  19.014  0.00  0.00    +0.000 N 
ATOM      4  C   UNL     1       2.303   2.486  19.727  0.00  0.00    +0.000 C 
ATOM      5  C   UNL     1       1.472   3.148  20.781  0.00  0.00    +0.000 C 
ATOM      6  C   UNL     1       2.436   4.217  21.317  0.00  0.00    +0.000 C 
ATOM      7  C   UNL     1       2.184   4.848  19.850  0.00  0.00    +0.000 C 
ATOM      8  C   UNL     1       0.718   4.246  19.995  0.00  0.00    +0.000 C 
ENDROOT
BRANCH   7   9
ATOM      9  C   UNL     1       2.065   6.432  20.138  0.00  0.00    +0.000 C 
ATOM     10  N   UNL     1       1.742   7.054  21.289  0.00  0.00    +0.000 N 
ATOM     11  O   UNL     1       2.481   7.233  19.263  0.00  0.00    +0.000 OA
ATOM     12  H   UNL     1       1.445   6.652  22.152  0.00  0.00    +0.000 HD
ATOM     13  H   UNL     1       1.984   8.047  21.263  0.00  0.00    +0.000 HD
ENDBRANCH   7   9
BRANCH   1  16
ATOM     14  C   UNL     1       5.878   5.385  17.164  0.00  0.00    +0.000 C 
ATOM     15  C   UNL     1       4.358   5.545  16.986  0.00  0.00    +0.000 C 
ATOM     16  C   UNL     1       4.283   3.983  16.797  0.00  0.00    +0.000 C 
ATOM     17  C   UNL     1       5.752   4.031  16.421  0.00  0.00    +0.000 C 
BRANCH  14  19
ATOM     18  C   UNL     1       7.433   7.250  17.350  0.00  0.00    +0.000 C 
ATOM     19  O   UNL     1       6.729   6.346  16.510  0.00  0.00    +0.000 OA
ENDBRANCH  14  19
ENDBRANCH   1  16
TORSDOF 3
ENDMDL
MODEL 7
REMARK VINA RESULT:      -6.5      1.741      3.590
REMARK  Name = 
REMARK  4 active torsions:
REMARK  status: ('A' for Active; 'I' for Inactive)
REMARK    1  A    between atoms: C_1  and  O_2
REMARK    2  A    between atoms: O_2  and  C_3
REMARK    3  A    between atoms: C_5  and  C_6
REMARK    4  A    between atoms: C_12  and  C_13
REMARK                            x       y       z     vdW  Elec       q    Type
REMARK                         _______ _______ _______ _____ _____    ______ ____
ROOT
ATOM      1  C   UNL     1       5.213   4.440  19.000  0.00  0.00    +0.000 C 
ATOM      2  O   UNL     1       5.674   3.283  19.124  0.00  0.00    +0.000 OA
ATOM      3  N   UNL     1       3.887   4.656  19.446  0.00  0.00    +0.000 N 
ATOM      4  C   UNL     1       3.303   3.324  19.818  0.00  0.00    +0.000 C 
ATOM      5  C   UNL     1       1.931   3.745  20.243  0.00  0.00    +0.000 C 
ATOM      6  C   UNL     1       2.238   4.938  21.161  0.00  0.00    +0.000 C 
ATOM      7  C   UNL     1       2.678   5.608  19.757  0.00  0.00    +0.000 C 
ATOM      8  C   UNL     1       1.506   4.732  19.131  0.00  0.00    +0.000 C 
ENDROOT
BRANCH   7   9
ATOM      9  C   UNL     1       2.118   7.118  19.870  0.00  0.00    +0.000 C 
ATOM     10  N   UNL     1       1.686   7.773  20.966  0.00  0.00    +0.000 N 
ATOM     11  O   UNL     1       2.238   7.878  18.877  0.00  0.00    +0.000 OA
ATOM     12  H   UNL     1       1.563   7.424  21.892  0.00  0.00    +0.000 HD
ATOM     13  H   UNL     1       1.628   8.781  20.805  0.00  0.00    +0.000 HD
ENDBRANCH   7   9
BRANCH   1  16
ATOM     14  C   UNL     1       6.710   5.026  16.253  0.00  0.00    +0.000 C 
ATOM     15  C   UNL     1       7.377   4.633  17.582  0.00  0.00    +0.000 C 
ATOM     16  C   UNL     1       6.191   5.363  18.317  0.00  0.00    +0.000 C 
ATOM     17  C   UNL     1       5.972   6.141  17.033  0.00  0.00    +0.000 C 
BRANCH  14  19
ATOM     18  C   UNL     1       7.326   4.978  13.897  0.00  0.00    +0.000 C 
ATOM     19  O   UNL     1       7.564   5.503  15.196  0.00  0.00    +0.000 OA
ENDBRANCH  14  19
ENDBRANCH   1  16
TORSDOF 3
ENDMDL
MODEL 8
REMARK VINA RESULT:      -6.4      2.126      2.888
REMARK  Name = 
REMARK  4 active torsions:
REMARK  status: ('A' for Active; 'I' for Inactive)
REMARK    1  A    between atoms: C_1  and  O_2
REMARK    2  A    between atoms: O_2  and  C_3
REMARK    3  A    between atoms: C_5  and  C_6
REMARK    4  A    between atoms: C_12  and  C_13
REMARK                            x       y       z     vdW  Elec       q    Type
REMARK                         _______ _______ _______ _____ _____    ______ ____
ROOT
ATOM      1  C   UNL     1       5.189   4.212  16.843  0.00  0.00    +0.000 C 
ATOM      2  O   UNL     1       4.847   4.556  15.689  0.00  0.00    +0.000 OA
ATOM      3  N   UNL     1       4.201   3.604  17.653  0.00  0.00    +0.000 N 
ATOM      4  C   UNL     1       2.890   3.690  16.925  0.00  0.00    +0.000 C 
ATOM      5  C   UNL     1       1.990   3.024  17.917  0.00  0.00    +0.000 C 
ATOM      6  C   UNL     1       2.796   1.767  18.279  0.00  0.00    +0.000 C 
ATOM      7  C   UNL     1       3.761   2.866  18.967  0.00  0.00    +0.000 C 
ATOM      8  C   UNL     1       2.415   3.662  19.261  0.00  0.00    +0.000 C 
ENDROOT
BRANCH   7   9
ATOM      9  C   UNL     1       4.197   2.166  20.356  0.00  0.00    +0.000 C 
ATOM     10  N   UNL     1       5.282   1.407  20.608  0.00  0.00    +0.000 N 
ATOM     11  O   UNL     1       3.576   2.474  21.403  0.00  0.00    +0.000 OA
ATOM     12  H   UNL     1       5.974   1.078  19.970  0.00  0.00    +0.000 HD
ATOM     13  H   UNL     1       5.445   1.304  21.613  0.00  0.00    +0.000 HD
ENDBRANCH   7   9
BRANCH   1  16
ATOM     14  C   UNL     1       7.051   6.571  17.892  0.00  0.00    +0.000 C 
ATOM     15  C   UNL     1       7.081   5.951  16.485  0.00  0.00    +0.000 C 
ATOM     16  C   UNL     1       6.616   4.598  17.144  0.00  0.00    +0.000 C 
ATOM     17  C   UNL     1       7.164   5.132  18.453  0.00  0.00    +0.000 C 
BRANCH  14  19
ATOM     18  C   UNL     1       8.041   8.796  17.842  0.00  0.00    +0.000 C 
ATOM     19  O   UNL     1       8.139   7.441  18.259  0.00  0.00    +0.000 OA
ENDBRANCH  14  19
ENDBRANCH   1  16
TORSDOF 3
ENDMDL
MODEL 9
REMARK VINA RESULT:      -6.4      2.142      4.191
REMARK  Name = 
REMARK  4 active torsions:
REMARK  status: ('A' for Active; 'I' for Inactive)
REMARK    1  A    between atoms: C_1  and  O_2
REMARK    2  A    between atoms: O_2  and  C_3
REMARK    3  A    between atoms: C_5  and  C_6
REMARK    4  A    between atoms: C_12  and  C_13
REMARK                            x       y       z     vdW  Elec       q    Type
REMARK                         _______ _______ _______ _____ _____    ______ ____
ROOT
ATOM      1  C   UNL     1       5.245   4.193  18.935  0.00  0.00    +0.000 C 
ATOM      2  O   UNL     1       5.411   3.111  19.542  0.00  0.00    +0.000 OA
ATOM      3  N   UNL     1       3.952   4.767  18.984  0.00  0.00    +0.000 N 
ATOM      4  C   UNL     1       3.036   3.784  19.652  0.00  0.00    +0.000 C 
ATOM      5  C   UNL     1       1.748   4.544  19.602  0.00  0.00    +0.000 C 
ATOM      6  C   UNL     1       2.181   5.931  20.101  0.00  0.00    +0.000 C 
ATOM      7  C   UNL     1       2.957   5.943  18.682  0.00  0.00    +0.000 C 
ATOM      8  C   UNL     1       1.719   5.092  18.156  0.00  0.00    +0.000 C 
ENDROOT
BRANCH   7   9
ATOM      9  C   UNL     1       2.741   7.452  18.150  0.00  0.00    +0.000 C 
ATOM     10  N   UNL     1       1.974   8.427  18.677  0.00  0.00    +0.000 N 
ATOM     11  O   UNL     1       3.489   7.877  17.233  0.00  0.00    +0.000 OA
ATOM     12  H   UNL     1       1.342   8.374  19.447  0.00  0.00    +0.000 HD
ATOM     13  H   UNL     1       2.213   9.345  18.294  0.00  0.00    +0.000 HD
ENDBRANCH   7   9
BRANCH   1  16
ATOM     14  C   UNL     1       6.813   6.711  17.781  0.00  0.00    +0.000 C 
ATOM     15  C   UNL     1       6.235   5.548  16.956  0.00  0.00    +0.000 C 
ATOM     16  C   UNL     1       6.493   4.623  18.205  0.00  0.00    +0.000 C 
ATOM     17  C   UNL     1       7.515   5.647  18.661  0.00  0.00    +0.000 C 
BRANCH  14  19
ATOM     18  C   UNL     1       7.930   8.876  17.739  0.00  0.00    +0.000 C 
ATOM     19  O   UNL     1       7.711   7.618  17.113  0.00  0.00    +0.000 OA
ENDBRANCH  14  19
ENDBRANCH   1  16
TORSDOF 3
ENDMDL
