MODEL 1
REMARK VINA RESULT:      -6.1      0.000      0.000
REMARK  Name = 
REMARK  8 active torsions:
REMARK  status: ('A' for Active; 'I' for Inactive)
REMARK    1  A    between atoms: C_1  and  C_2
REMARK    2  A    between atoms: C_2  and  C_3
REMARK    3  A    between atoms: C_6  and  C_7
REMARK    4  A    between atoms: C_10  and  C_11
REMARK    5  A    between atoms: C_16  and  C_17
REMARK    6  A    between atoms: C_20  and  C_21
REMARK    7  A    between atoms: C_22  and  C_23
REMARK    8  A    between atoms: C_23  and  O_25
REMARK                            x       y       z     vdW  Elec       q    Type
REMARK                         _______ _______ _______ _____ _____    ______ ____
ROOT
ATOM      1  C   UNL     1       2.710  13.763  21.172  0.00  0.00    +0.000 C 
ATOM      2  C   UNL     1       1.303  14.377  21.111  0.00  0.00    +0.000 C 
ATOM      3  C   UNL     1       1.330  15.693  21.920  0.00  0.00    +0.000 C 
ATOM      4  C   UNL     1       0.517  14.655  19.758  0.00  0.00    +0.000 C 
ATOM      5  O   UNL     1      -0.527  15.320  19.628  0.00  0.00    +0.000 OA
ATOM      6  C   UNL     1       1.150  13.742  18.623  0.00  0.00    +0.000 C 
ATOM      7  C   UNL     1       0.113  13.056  18.307  0.00  0.00    +0.000 C 
ATOM      8  C   UNL     1       0.133  12.248  19.643  0.00  0.00    +0.000 C 
ATOM      9  C   UNL     1       1.141  11.090  19.414  0.00  0.00    +0.000 C 
ATOM     10  C   UNL     1      -1.269  11.872  19.521  0.00  0.00    +0.000 C 
ATOM     11  C   UNL     1      -1.698  10.861  18.723  0.00  0.00    +0.000 C 
ATOM     12  C   UNL     1      -2.836  11.453  17.960  0.00  0.00    +0.000 C 
ATOM     13  O   UNL     1      -2.843  11.434  16.740  0.00  0.00    +0.000 OA
ATOM     14  C   UNL     1      -3.895  12.017  18.835  0.00  0.00    +0.000 C 
ATOM     15  C   UNL     1      -3.535  12.431  20.080  0.00  0.00    +0.000 C 
ATOM     16  C   UNL     1      -2.057  12.621  20.540  0.00  0.00    +0.000 C 
ATOM     17  C   UNL     1      -2.108  13.667  21.734  0.00  0.00    +0.000 C 
ATOM     18  C   UNL     1      -0.696  13.629  22.441  0.00  0.00    +0.000 C 
ATOM     19  C   UNL     1       0.339  13.245  21.263  0.00  0.00    +0.000 C 
ENDROOT
BRANCH   6  20
ATOM     20  C   UNL     1       1.681  15.144  18.875  0.00  0.00    +0.000 C 
ATOM     21  N   UNL     1       2.121  16.307  19.083  0.00  0.00    +0.000 NA
ENDBRANCH   6  20
BRANCH  14  22
ATOM     22  C   UNL     1      -5.218  12.020  18.298  0.00  0.00    +0.000 C 
ATOM     23  N   UNL     1      -6.263  12.039  17.812  0.00  0.00    +0.000 NA
ENDBRANCH  14  22
BRANCH  16  24
ATOM     24  C   UNL     1      -1.408  11.573  21.428  0.00  0.00    +0.000 C 
ATOM     25  C   UNL     1      -0.852  10.673  22.191  0.00  0.00    +0.000 C 
BRANCH  25  26
ATOM     26  C   UNL     1      -0.237   9.638  22.986  0.00  0.00    +0.000 C 
ATOM     27  O   UNL     1       0.789   9.843  23.606  0.00  0.00    +0.000 OA
BRANCH  26  28
ATOM     28  O   UNL     1      -0.890   8.458  22.954  0.00  0.00    +0.000 OA
ATOM     29  H   UNL     1      -1.854   8.567  22.860  0.00  0.00    +0.000 HD
ENDBRANCH  26  28
ENDBRANCH  25  26
ENDBRANCH  16  24
TORSDOF 5
ENDMDL
MODEL 2
REMARK VINA RESULT:      -5.5      4.031      5.828
REMARK  Name = 
REMARK  8 active torsions:
REMARK  status: ('A' for Active; 'I' for Inactive)
REMARK    1  A    between atoms: C_1  and  C_2
REMARK    2  A    between atoms: C_2  and  C_3
REMARK    3  A    between atoms: C_6  and  C_7
REMARK    4  A    between atoms: C_10  and  C_11
REMARK    5  A    between atoms: C_16  and  C_17
REMARK    6  A    between atoms: C_20  and  C_21
REMARK    7  A    between atoms: C_22  and  C_23
REMARK    8  A    between atoms: C_23  and  O_25
REMARK                            x       y       z     vdW  Elec       q    Type
REMARK                         _______ _______ _______ _____ _____    ______ ____
ROOT
ATOM      1  C   UNL     1      -4.432  17.213  25.076  0.00  0.00    +0.000 C 
ATOM      2  C   UNL     1      -3.998  16.979  23.621  0.00  0.00    +0.000 C 
ATOM      3  C   UNL     1      -4.372  18.242  22.813  0.00  0.00    +0.000 C 
ATOM      4  C   UNL     1      -2.529  16.546  23.195  0.00  0.00    +0.000 C 
ATOM      5  O   UNL     1      -2.065  16.532  22.041  0.00  0.00    +0.000 OA
ATOM      6  C   UNL     1      -1.817  15.903  24.461  0.00  0.00    +0.000 C 
ATOM      7  C   UNL     1      -1.583  14.732  23.992  0.00  0.00    +0.000 C 
ATOM      8  C   UNL     1      -3.088  14.322  24.025  0.00  0.00    +0.000 C 
ATOM      9  C   UNL     1      -3.357  13.839  25.476  0.00  0.00    +0.000 C 
ATOM     10  C   UNL     1      -2.894  13.254  23.053  0.00  0.00    +0.000 C 
ATOM     11  C   UNL     1      -2.384  12.039  23.378  0.00  0.00    +0.000 C 
ATOM     12  C   UNL     1      -1.330  11.796  22.349  0.00  0.00    +0.000 C 
ATOM     13  O   UNL     1      -0.182  11.547  22.681  0.00  0.00    +0.000 OA
ATOM     14  C   UNL     1      -1.842  11.878  20.957  0.00  0.00    +0.000 C 
ATOM     15  C   UNL     1      -2.943  12.644  20.732  0.00  0.00    +0.000 C 
ATOM     16  C   UNL     1      -3.523  13.659  21.764  0.00  0.00    +0.000 C 
ATOM     17  C   UNL     1      -4.332  14.728  20.911  0.00  0.00    +0.000 C 
ATOM     18  C   UNL     1      -5.203  15.565  21.927  0.00  0.00    +0.000 C 
ATOM     19  C   UNL     1      -4.348  15.563  23.296  0.00  0.00    +0.000 C 
ENDROOT
BRANCH   6  20
ATOM     20  C   UNL     1      -1.709  17.394  24.186  0.00  0.00    +0.000 C 
ATOM     21  N   UNL     1      -1.619  18.631  23.958  0.00  0.00    +0.000 NA
ENDBRANCH   6  20
BRANCH  14  22
ATOM     22  C   UNL     1      -1.153  11.089  19.987  0.00  0.00    +0.000 C 
ATOM     23  N   UNL     1      -0.556  10.439  19.245  0.00  0.00    +0.000 NA
ENDBRANCH  14  22
BRANCH  16  24
ATOM     24  C   UNL     1      -4.765  13.291  22.560  0.00  0.00    +0.000 C 
ATOM     25  C   UNL     1      -5.830  12.976  23.242  0.00  0.00    +0.000 C 
BRANCH  25  26
ATOM     26  C   UNL     1      -7.019  12.580  23.957  0.00  0.00    +0.000 C 
ATOM     27  O   UNL     1      -7.463  11.450  23.869  0.00  0.00    +0.000 OA
BRANCH  26  28
ATOM     28  O   UNL     1      -7.574  13.566  24.692  0.00  0.00    +0.000 OA
ATOM     29  H   UNL     1      -6.910  14.099  25.163  0.00  0.00    +0.000 HD
ENDBRANCH  26  28
ENDBRANCH  25  26
ENDBRANCH  16  24
TORSDOF 5
ENDMDL
MODEL 3
REMARK VINA RESULT:      -5.4      3.492      6.071
REMARK  Name = 
REMARK  8 active torsions:
REMARK  status: ('A' for Active; 'I' for Inactive)
REMARK    1  A    between atoms: C_1  and  C_2
REMARK    2  A    between atoms: C_2  and  C_3
REMARK    3  A    between atoms: C_6  and  C_7
REMARK    4  A    between atoms: C_10  and  C_11
REMARK    5  A    between atoms: C_16  and  C_17
REMARK    6  A    between atoms: C_20  and  C_21
REMARK    7  A    between atoms: C_22  and  C_23
REMARK    8  A    between atoms: C_23  and  O_25
REMARK                            x       y       z     vdW  Elec       q    Type
REMARK                         _______ _______ _______ _____ _____    ______ ____
ROOT
ATOM      1  C   UNL     1      -5.920  15.886  22.429  0.00  0.00    +0.000 C 
ATOM      2  C   UNL     1      -5.726  14.409  22.804  0.00  0.00    +0.000 C 
ATOM      3  C   UNL     1      -6.935  13.983  23.667  0.00  0.00    +0.000 C 
ATOM      4  C   UNL     1      -5.454  13.256  21.745  0.00  0.00    +0.000 C 
ATOM      5  O   UNL     1      -5.484  12.029  21.958  0.00  0.00    +0.000 OA
ATOM      6  C   UNL     1      -4.901  13.926  20.417  0.00  0.00    +0.000 C 
ATOM      7  C   UNL     1      -3.760  13.343  20.352  0.00  0.00    +0.000 C 
ATOM      8  C   UNL     1      -3.187  14.138  21.568  0.00  0.00    +0.000 C 
ATOM      9  C   UNL     1      -2.686  15.486  20.985  0.00  0.00    +0.000 C 
ATOM     10  C   UNL     1      -2.141  13.152  21.812  0.00  0.00    +0.000 C 
ATOM     11  C   UNL     1      -0.991  13.099  21.093  0.00  0.00    +0.000 C 
ATOM     12  C   UNL     1      -0.859  11.660  20.720  0.00  0.00    +0.000 C 
ATOM     13  O   UNL     1      -0.738  11.329  19.551  0.00  0.00    +0.000 OA
ATOM     14  C   UNL     1      -0.875  10.748  21.892  0.00  0.00    +0.000 C 
ATOM     15  C   UNL     1      -1.516  11.172  23.015  0.00  0.00    +0.000 C 
ATOM     16  C   UNL     1      -2.467  12.407  23.060  0.00  0.00    +0.000 C 
ATOM     17  C   UNL     1      -3.436  12.160  24.295  0.00  0.00    +0.000 C 
ATOM     18  C   UNL     1      -4.178  13.524  24.578  0.00  0.00    +0.000 C 
ATOM     19  C   UNL     1      -4.279  14.242  23.135  0.00  0.00    +0.000 C 
ENDROOT
BRANCH   6  20
ATOM     20  C   UNL     1      -6.392  13.714  20.612  0.00  0.00    +0.000 C 
ATOM     21  N   UNL     1      -7.631  13.538  20.774  0.00  0.00    +0.000 NA
ENDBRANCH   6  20
BRANCH  14  22
ATOM     22  C   UNL     1      -0.161   9.520  21.744  0.00  0.00    +0.000 C 
ATOM     23  N   UNL     1       0.384   8.519  21.575  0.00  0.00    +0.000 NA
ENDBRANCH  14  22
BRANCH  16  24
ATOM     24  C   UNL     1      -1.971  13.714  23.656  0.00  0.00    +0.000 C 
ATOM     25  C   UNL     1      -1.544  14.835  24.167  0.00  0.00    +0.000 C 
BRANCH  25  26
ATOM     26  C   UNL     1      -1.131  16.099  24.726  0.00  0.00    +0.000 C 
ATOM     27  O   UNL     1      -1.673  17.140  24.405  0.00  0.00    +0.000 OA
BRANCH  26  28
ATOM     28  O   UNL     1      -0.104  16.007  25.597  0.00  0.00    +0.000 OA
ATOM     29  H   UNL     1       0.268  16.876  25.829  0.00  0.00    +0.000 HD
ENDBRANCH  26  28
ENDBRANCH  25  26
ENDBRANCH  16  24
TORSDOF 5
ENDMDL
MODEL 4
REMARK VINA RESULT:      -5.2      3.776      6.555
REMARK  Name = 
REMARK  8 active torsions:
REMARK  status: ('A' for Active; 'I' for Inactive)
REMARK    1  A    between atoms: C_1  and  C_2
REMARK    2  A    between atoms: C_2  and  C_3
REMARK    3  A    between atoms: C_6  and  C_7
REMARK    4  A    between atoms: C_10  and  C_11
REMARK    5  A    between atoms: C_16  and  C_17
REMARK    6  A    between atoms: C_20  and  C_21
REMARK    7  A    between atoms: C_22  and  C_23
REMARK    8  A    between atoms: C_23  and  O_25
REMARK                            x       y       z     vdW  Elec       q    Type
REMARK                         _______ _______ _______ _____ _____    ______ ____
ROOT
ATOM      1  C   UNL     1      -6.867  15.620  22.245  0.00  0.00    +0.000 C 
ATOM      2  C   UNL     1      -6.523  14.158  22.566  0.00  0.00    +0.000 C 
ATOM      3  C   UNL     1      -7.789  13.498  23.156  0.00  0.00    +0.000 C 
ATOM      4  C   UNL     1      -5.892  13.146  21.515  0.00  0.00    +0.000 C 
ATOM      5  O   UNL     1      -5.773  11.914  21.650  0.00  0.00    +0.000 OA
ATOM      6  C   UNL     1      -5.214  13.996  20.357  0.00  0.00    +0.000 C 
ATOM      7  C   UNL     1      -4.006  13.584  20.480  0.00  0.00    +0.000 C 
ATOM      8  C   UNL     1      -3.790  14.345  21.826  0.00  0.00    +0.000 C 
ATOM      9  C   UNL     1      -3.403  15.795  21.427  0.00  0.00    +0.000 C 
ATOM     10  C   UNL     1      -2.669  13.497  22.210  0.00  0.00    +0.000 C 
ATOM     11  C   UNL     1      -1.413  13.664  21.723  0.00  0.00    +0.000 C 
ATOM     12  C   UNL     1      -0.998  12.294  21.301  0.00  0.00    +0.000 C 
ATOM     13  O   UNL     1      -0.619  12.082  20.161  0.00  0.00    +0.000 OA
ATOM     14  C   UNL     1      -1.088  11.293  22.395  0.00  0.00    +0.000 C 
ATOM     15  C   UNL     1      -1.979  11.529  23.397  0.00  0.00    +0.000 C 
ATOM     16  C   UNL     1      -3.099  12.612  23.328  0.00  0.00    +0.000 C 
ATOM     17  C   UNL     1      -4.227  12.131  24.338  0.00  0.00    +0.000 C 
ATOM     18  C   UNL     1      -5.206  13.351  24.551  0.00  0.00    +0.000 C 
ATOM     19  C   UNL     1      -5.151  14.165  23.158  0.00  0.00    +0.000 C 
ENDROOT
BRANCH   6  20
ATOM     20  C   UNL     1      -6.667  13.564  20.252  0.00  0.00    +0.000 C 
ATOM     21  N   UNL     1      -7.873  13.206  20.164  0.00  0.00    +0.000 NA
ENDBRANCH   6  20
BRANCH  14  22
ATOM     22  C   UNL     1      -0.181  10.193  22.318  0.00  0.00    +0.000 C 
ATOM     23  N   UNL     1       0.581   9.329  22.301  0.00  0.00    +0.000 NA
ENDBRANCH  14  22
BRANCH  16  24
ATOM     24  C   UNL     1      -2.923  13.920  24.081  0.00  0.00    +0.000 C 
ATOM     25  C   UNL     1      -2.771  15.043  24.728  0.00  0.00    +0.000 C 
BRANCH  25  26
ATOM     26  C   UNL     1      -2.589  16.312  25.388  0.00  0.00    +0.000 C 
ATOM     27  O   UNL     1      -1.613  16.530  26.082  0.00  0.00    +0.000 OA
BRANCH  26  28
ATOM     28  O   UNL     1      -3.589  17.192  25.175  0.00  0.00    +0.000 OA
ATOM     29  H   UNL     1      -3.984  17.102  24.290  0.00  0.00    +0.000 HD
ENDBRANCH  26  28
ENDBRANCH  25  26
ENDBRANCH  16  24
TORSDOF 5
ENDMDL
MODEL 5
REMARK VINA RESULT:      -5.1      3.533      6.114
REMARK  Name = 
REMARK  8 active torsions:
REMARK  status: ('A' for Active; 'I' for Inactive)
REMARK    1  A    between atoms: C_1  and  C_2
REMARK    2  A    between atoms: C_2  and  C_3
REMARK    3  A    between atoms: C_6  and  C_7
REMARK    4  A    between atoms: C_10  and  C_11
REMARK    5  A    between atoms: C_16  and  C_17
REMARK    6  A    between atoms: C_20  and  C_21
REMARK    7  A    between atoms: C_22  and  C_23
REMARK    8  A    between atoms: C_23  and  O_25
REMARK                            x       y       z     vdW  Elec       q    Type
REMARK                         _______ _______ _______ _____ _____    ______ ____
ROOT
ATOM      1  C   UNL     1      -6.259  15.574  23.578  0.00  0.00    +0.000 C 
ATOM      2  C   UNL     1      -5.840  14.107  23.399  0.00  0.00    +0.000 C 
ATOM      3  C   UNL     1      -6.846  13.234  24.183  0.00  0.00    +0.000 C 
ATOM      4  C   UNL     1      -5.600  13.422  21.985  0.00  0.00    +0.000 C 
ATOM      5  O   UNL     1      -5.453  12.206  21.764  0.00  0.00    +0.000 OA
ATOM      6  C   UNL     1      -5.337  14.569  20.919  0.00  0.00    +0.000 C 
ATOM      7  C   UNL     1      -4.159  14.231  20.539  0.00  0.00    +0.000 C 
ATOM      8  C   UNL     1      -3.504  14.667  21.888  0.00  0.00    +0.000 C 
ATOM      9  C   UNL     1      -3.259  16.194  21.758  0.00  0.00    +0.000 C 
ATOM     10  C   UNL     1      -2.326  13.838  21.668  0.00  0.00    +0.000 C 
ATOM     11  C   UNL     1      -1.301  14.208  20.859  0.00  0.00    +0.000 C 
ATOM     12  C   UNL     1      -1.060  13.011  20.001  0.00  0.00    +0.000 C 
ATOM     13  O   UNL     1      -1.081  13.103  18.784  0.00  0.00    +0.000 OA
ATOM     14  C   UNL     1      -0.791  11.776  20.782  0.00  0.00    +0.000 C 
ATOM     15  C   UNL     1      -1.298  11.702  22.043  0.00  0.00    +0.000 C 
ATOM     16  C   UNL     1      -2.369  12.684  22.609  0.00  0.00    +0.000 C 
ATOM     17  C   UNL     1      -3.103  11.896  23.776  0.00  0.00    +0.000 C 
ATOM     18  C   UNL     1      -3.948  12.954  24.588  0.00  0.00    +0.000 C 
ATOM     19  C   UNL     1      -4.350  14.077  23.499  0.00  0.00    +0.000 C 
ENDROOT
BRANCH   6  20
ATOM     20  C   UNL     1      -6.747  14.067  21.184  0.00  0.00    +0.000 C 
ATOM     21  N   UNL     1      -7.917  13.651  21.403  0.00  0.00    +0.000 NA
ENDBRANCH   6  20
BRANCH  14  22
ATOM     22  C   UNL     1       0.030  10.796  20.147  0.00  0.00    +0.000 C 
ATOM     23  N   UNL     1       0.693   9.975  19.685  0.00  0.00    +0.000 NA
ENDBRANCH  14  22
BRANCH  16  24
ATOM     24  C   UNL     1      -1.943  13.787  23.564  0.00  0.00    +0.000 C 
ATOM     25  C   UNL     1      -1.578  14.733  24.383  0.00  0.00    +0.000 C 
BRANCH  25  26
ATOM     26  C   UNL     1      -1.173  15.738  25.336  0.00  0.00    +0.000 C 
ATOM     27  O   UNL     1      -0.613  16.758  24.980  0.00  0.00    +0.000 OA
BRANCH  26  28
ATOM     28  O   UNL     1      -1.456  15.427  26.618  0.00  0.00    +0.000 OA
ATOM     29  H   UNL     1      -1.854  16.172  27.103  0.00  0.00    +0.000 HD
ENDBRANCH  26  28
ENDBRANCH  25  26
ENDBRANCH  16  24
TORSDOF 5
ENDMDL
MODEL 6
REMARK VINA RESULT:      -5.1      2.364      4.876
REMARK  Name = 
REMARK  8 active torsions:
REMARK  status: ('A' for Active; 'I' for Inactive)
REMARK    1  A    between atoms: C_1  and  C_2
REMARK    2  A    between atoms: C_2  and  C_3
REMARK    3  A    between atoms: C_6  and  C_7
REMARK    4  A    between atoms: C_10  and  C_11
REMARK    5  A    between atoms: C_16  and  C_17
REMARK    6  A    between atoms: C_20  and  C_21
REMARK    7  A    between atoms: C_22  and  C_23
REMARK    8  A    between atoms: C_23  and  O_25
REMARK                            x       y       z     vdW  Elec       q    Type
REMARK                         _______ _______ _______ _____ _____    ______ ____
ROOT
ATOM      1  C   UNL     1      -1.449  16.328  20.228  0.00  0.00    +0.000 C 
ATOM      2  C   UNL     1      -0.354  15.368  19.738  0.00  0.00    +0.000 C 
ATOM      3  C   UNL     1       0.459  16.102  18.648  0.00  0.00    +0.000 C 
ATOM      4  C   UNL     1       0.675  14.636  20.702  0.00  0.00    +0.000 C 
ATOM      5  O   UNL     1       1.696  14.009  20.361  0.00  0.00    +0.000 OA
ATOM      6  C   UNL     1       0.061  14.627  22.166  0.00  0.00    +0.000 C 
ATOM      7  C   UNL     1       0.001  13.360  22.358  0.00  0.00    +0.000 C 
ATOM      8  C   UNL     1      -1.170  13.174  21.342  0.00  0.00    +0.000 C 
ATOM      9  C   UNL     1      -2.465  13.495  22.136  0.00  0.00    +0.000 C 
ATOM     10  C   UNL     1      -0.894  11.753  21.173  0.00  0.00    +0.000 C 
ATOM     11  C   UNL     1      -1.295  10.809  22.062  0.00  0.00    +0.000 C 
ATOM     12  C   UNL     1      -0.072   9.987  22.301  0.00  0.00    +0.000 C 
ATOM     13  O   UNL     1       0.353   9.818  23.432  0.00  0.00    +0.000 OA
ATOM     14  C   UNL     1       0.508   9.427  21.053  0.00  0.00    +0.000 C 
ATOM     15  C   UNL     1       0.271  10.092  19.890  0.00  0.00    +0.000 C 
ATOM     16  C   UNL     1      -0.315  11.536  19.817  0.00  0.00    +0.000 C 
ATOM     17  C   UNL     1       0.162  12.125  18.421  0.00  0.00    +0.000 C 
ATOM     18  C   UNL     1      -0.678  13.436  18.162  0.00  0.00    +0.000 C 
ATOM     19  C   UNL     1      -0.988  14.019  19.635  0.00  0.00    +0.000 C 
ENDROOT
BRANCH   6  20
ATOM     20  C   UNL     1       0.948  15.772  21.706  0.00  0.00    +0.000 C 
ATOM     21  N   UNL     1       1.684  16.722  21.324  0.00  0.00    +0.000 NA
ENDBRANCH   6  20
BRANCH  14  22
ATOM     22  C   UNL     1       1.223   8.199  21.189  0.00  0.00    +0.000 C 
ATOM     23  N   UNL     1       1.776   7.189  21.247  0.00  0.00    +0.000 NA
ENDBRANCH  14  22
BRANCH  16  24
ATOM     24  C   UNL     1      -1.776  11.734  19.450  0.00  0.00    +0.000 C 
ATOM     25  C   UNL     1      -3.030  11.904  19.135  0.00  0.00    +0.000 C 
BRANCH  25  26
ATOM     26  C   UNL     1      -4.424  12.029  18.787  0.00  0.00    +0.000 C 
ATOM     27  O   UNL     1      -5.298  11.926  19.628  0.00  0.00    +0.000 OA
BRANCH  26  28
ATOM     28  O   UNL     1      -4.647  12.248  17.475  0.00  0.00    +0.000 OA
ATOM     29  H   UNL     1      -3.952  11.865  16.910  0.00  0.00    +0.000 HD
ENDBRANCH  26  28
ENDBRANCH  25  26
ENDBRANCH  16  24
TORSDOF 5
ENDMDL
MODEL 7
REMARK VINA RESULT:      -5.1      9.628     12.239
REMARK  Name = 
REMARK  8 active torsions:
REMARK  status: ('A' for Active; 'I' for Inactive)
REMARK    1  A    between atoms: C_1  and  C_2
REMARK    2  A    between atoms: C_2  and  C_3
REMARK    3  A    between atoms: C_6  and  C_7
REMARK    4  A    between atoms: C_10  and  C_11
REMARK    5  A    between atoms: C_16  and  C_17
REMARK    6  A    between atoms: C_20  and  C_21
REMARK    7  A    between atoms: C_22  and  C_23
REMARK    8  A    between atoms: C_23  and  O_25
REMARK                            x       y       z     vdW  Elec       q    Type
REMARK                         _______ _______ _______ _____ _____    ______ ____
ROOT
ATOM      1  C   UNL     1      10.747  12.413  17.531  0.00  0.00    +0.000 C 
ATOM      2  C   UNL     1       9.452  12.822  18.248  0.00  0.00    +0.000 C 
ATOM      3  C   UNL     1       8.273  12.156  17.503  0.00  0.00    +0.000 C 
ATOM      4  C   UNL     1       9.207  12.637  19.808  0.00  0.00    +0.000 C 
ATOM      5  O   UNL     1       8.125  12.764  20.410  0.00  0.00    +0.000 OA
ATOM      6  C   UNL     1      10.621  12.498  20.516  0.00  0.00    +0.000 C 
ATOM      7  C   UNL     1      10.560  13.511  21.300  0.00  0.00    +0.000 C 
ATOM      8  C   UNL     1      10.705  14.536  20.131  0.00  0.00    +0.000 C 
ATOM      9  C   UNL     1      12.230  14.656  19.870  0.00  0.00    +0.000 C 
ATOM     10  C   UNL     1      10.132  15.622  20.915  0.00  0.00    +0.000 C 
ATOM     11  C   UNL     1      10.839  16.323  21.838  0.00  0.00    +0.000 C 
ATOM     12  C   UNL     1       9.958  16.338  23.042  0.00  0.00    +0.000 C 
ATOM     13  O   UNL     1      10.368  15.930  24.118  0.00  0.00    +0.000 OA
ATOM     14  C   UNL     1       8.608  16.895  22.772  0.00  0.00    +0.000 C 
ATOM     15  C   UNL     1       8.133  16.815  21.500  0.00  0.00    +0.000 C 
ATOM     16  C   UNL     1       8.774  15.931  20.386  0.00  0.00    +0.000 C 
ATOM     17  C   UNL     1       7.611  15.639  19.344  0.00  0.00    +0.000 C 
ATOM     18  C   UNL     1       8.291  15.044  18.050  0.00  0.00    +0.000 C 
ATOM     19  C   UNL     1       9.597  14.268  18.594  0.00  0.00    +0.000 C 
ENDROOT
BRANCH   6  20
ATOM     20  C   UNL     1       9.881  11.268  20.018  0.00  0.00    +0.000 C 
ATOM     21  N   UNL     1       9.266  10.248  19.605  0.00  0.00    +0.000 NA
ENDBRANCH   6  20
BRANCH  14  22
ATOM     22  C   UNL     1       7.954  17.520  23.877  0.00  0.00    +0.000 C 
ATOM     23  N   UNL     1       7.380  18.036  24.733  0.00  0.00    +0.000 NA
ENDBRANCH  14  22
BRANCH  16  24
ATOM     24  C   UNL     1       9.630  16.584  19.313  0.00  0.00    +0.000 C 
ATOM     25  C   UNL     1      10.364  17.143  18.392  0.00  0.00    +0.000 C 
BRANCH  25  26
ATOM     26  C   UNL     1      11.130  17.804  17.364  0.00  0.00    +0.000 C 
ATOM     27  O   UNL     1      12.329  17.625  17.254  0.00  0.00    +0.000 OA
BRANCH  26  28
ATOM     28  O   UNL     1      10.403  18.624  16.577  0.00  0.00    +0.000 OA
ATOM     29  H   UNL     1      10.319  18.290  15.666  0.00  0.00    +0.000 HD
ENDBRANCH  26  28
ENDBRANCH  25  26
ENDBRANCH  16  24
TORSDOF 5
ENDMDL
MODEL 8
REMARK VINA RESULT:      -5.0      2.539      5.124
REMARK  Name = 
REMARK  8 active torsions:
REMARK  status: ('A' for Active; 'I' for Inactive)
REMARK    1  A    between atoms: C_1  and  C_2
REMARK    2  A    between atoms: C_2  and  C_3
REMARK    3  A    between atoms: C_6  and  C_7
REMARK    4  A    between atoms: C_10  and  C_11
REMARK    5  A    between atoms: C_16  and  C_17
REMARK    6  A    between atoms: C_20  and  C_21
REMARK    7  A    between atoms: C_22  and  C_23
REMARK    8  A    between atoms: C_23  and  O_25
REMARK                            x       y       z     vdW  Elec       q    Type
REMARK                         _______ _______ _______ _____ _____    ______ ____
ROOT
ATOM      1  C   UNL     1      -1.085  15.483  20.127  0.00  0.00    +0.000 C 
ATOM      2  C   UNL     1       0.196  14.643  20.005  0.00  0.00    +0.000 C 
ATOM      3  C   UNL     1       1.321  15.575  19.502  0.00  0.00    +0.000 C 
ATOM      4  C   UNL     1       0.788  13.758  21.185  0.00  0.00    +0.000 C 
ATOM      5  O   UNL     1       1.909  13.218  21.216  0.00  0.00    +0.000 OA
ATOM      6  C   UNL     1      -0.379  13.473  22.223  0.00  0.00    +0.000 C 
ATOM      7  C   UNL     1      -0.400  12.192  22.162  0.00  0.00    +0.000 C 
ATOM      8  C   UNL     1      -1.016  12.181  20.728  0.00  0.00    +0.000 C 
ATOM      9  C   UNL     1      -2.547  12.335  20.932  0.00  0.00    +0.000 C 
ATOM     10  C   UNL     1      -0.569  10.820  20.466  0.00  0.00    +0.000 C 
ATOM     11  C   UNL     1      -1.219   9.723  20.933  0.00  0.00    +0.000 C 
ATOM     12  C   UNL     1      -0.140   8.886  21.536  0.00  0.00    +0.000 C 
ATOM     13  O   UNL     1      -0.214   8.516  22.697  0.00  0.00    +0.000 OA
ATOM     14  C   UNL     1       0.957   8.572  20.584  0.00  0.00    +0.000 C 
ATOM     15  C   UNL     1       1.169   9.437  19.555  0.00  0.00    +0.000 C 
ATOM     16  C   UNL     1       0.541  10.863  19.473  0.00  0.00    +0.000 C 
ATOM     17  C   UNL     1       1.504  11.705  18.531  0.00  0.00    +0.000 C 
ATOM     18  C   UNL     1       0.735  13.030  18.153  0.00  0.00    +0.000 C 
ATOM     19  C   UNL     1      -0.213  13.329  19.425  0.00  0.00    +0.000 C 
ENDROOT
BRANCH   6  20
ATOM     20  C   UNL     1       0.513  14.693  22.378  0.00  0.00    +0.000 C 
ATOM     21  N   UNL     1       1.253  15.706  22.506  0.00  0.00    +0.000 NA
ENDBRANCH   6  20
BRANCH  14  22
ATOM     22  C   UNL     1       1.656   7.349  20.812  0.00  0.00    +0.000 C 
ATOM     23  N   UNL     1       2.212   6.347  20.939  0.00  0.00    +0.000 NA
ENDBRANCH  14  22
BRANCH  16  24
ATOM     24  C   UNL     1      -0.644  11.107  18.554  0.00  0.00    +0.000 C 
ATOM     25  C   UNL     1      -1.660  11.317  17.765  0.00  0.00    +0.000 C 
BRANCH  25  26
ATOM     26  C   UNL     1      -2.822  11.521  16.934  0.00  0.00    +0.000 C 
ATOM     27  O   UNL     1      -3.925  11.691  17.420  0.00  0.00    +0.000 OA
BRANCH  26  28
ATOM     28  O   UNL     1      -2.565  11.488  15.610  0.00  0.00    +0.000 OA
ATOM     29  H   UNL     1      -1.964  12.201  15.328  0.00  0.00    +0.000 HD
ENDBRANCH  26  28
ENDBRANCH  25  26
ENDBRANCH  16  24
TORSDOF 5
ENDMDL
MODEL 9
REMARK VINA RESULT:      -5.0      7.894     11.617
REMARK  Name = 
REMARK  8 active torsions:
REMARK  status: ('A' for Active; 'I' for Inactive)
REMARK    1  A    between atoms: C_1  and  C_2
REMARK    2  A    between atoms: C_2  and  C_3
REMARK    3  A    between atoms: C_6  and  C_7
REMARK    4  A    between atoms: C_10  and  C_11
REMARK    5  A    between atoms: C_16  and  C_17
REMARK    6  A    between atoms: C_20  and  C_21
REMARK    7  A    between atoms: C_22  and  C_23
REMARK    8  A    between atoms: C_23  and  O_25
REMARK                            x       y       z     vdW  Elec       q    Type
REMARK                         _______ _______ _______ _____ _____    ______ ____
ROOT
ATOM      1  C   UNL     1       8.354  12.951  17.282  0.00  0.00    +0.000 C 
ATOM      2  C   UNL     1       9.335  12.824  18.457  0.00  0.00    +0.000 C 
ATOM      3  C   UNL     1       9.892  11.382  18.449  0.00  0.00    +0.000 C 
ATOM      4  C   UNL     1      10.554  13.814  18.703  0.00  0.00    +0.000 C 
ATOM      5  O   UNL     1      11.488  13.656  19.510  0.00  0.00    +0.000 OA
ATOM      6  C   UNL     1      10.260  15.163  17.918  0.00  0.00    +0.000 C 
ATOM      7  C   UNL     1      10.258  15.981  18.907  0.00  0.00    +0.000 C 
ATOM      8  C   UNL     1       8.903  15.442  19.464  0.00  0.00    +0.000 C 
ATOM      9  C   UNL     1       7.799  16.186  18.667  0.00  0.00    +0.000 C 
ATOM     10  C   UNL     1       9.157  15.971  20.797  0.00  0.00    +0.000 C 
ATOM     11  C   UNL     1       8.964  17.275  21.126  0.00  0.00    +0.000 C 
ATOM     12  C   UNL     1      10.221  17.665  21.830  0.00  0.00    +0.000 C 
ATOM     13  O   UNL     1      10.875  18.623  21.450  0.00  0.00    +0.000 OA
ATOM     14  C   UNL     1      10.535  16.794  22.992  0.00  0.00    +0.000 C 
ATOM     15  C   UNL     1      10.050  15.523  22.980  0.00  0.00    +0.000 C 
ATOM     16  C   UNL     1       9.442  14.836  21.718  0.00  0.00    +0.000 C 
ATOM     17  C   UNL     1       9.608  13.274  21.956  0.00  0.00    +0.000 C 
ATOM     18  C   UNL     1       8.715  12.546  20.878  0.00  0.00    +0.000 C 
ATOM     19  C   UNL     1       8.712  13.543  19.609  0.00  0.00    +0.000 C 
ENDROOT
BRANCH   6  20
ATOM     20  C   UNL     1      11.015  14.027  17.249  0.00  0.00    +0.000 C 
ATOM     21  N   UNL     1      11.643  13.085  16.693  0.00  0.00    +0.000 NA
ENDBRANCH   6  20
BRANCH  14  22
ATOM     22  C   UNL     1      11.279  17.401  24.049  0.00  0.00    +0.000 C 
ATOM     23  N   UNL     1      11.912  17.919  24.861  0.00  0.00    +0.000 NA
ENDBRANCH  14  22
BRANCH  16  24
ATOM     24  C   UNL     1       7.934  14.700  21.593  0.00  0.00    +0.000 C 
ATOM     25  C   UNL     1       6.640  14.583  21.485  0.00  0.00    +0.000 C 
BRANCH  25  26
ATOM     26  C   UNL     1       5.209  14.501  21.324  0.00  0.00    +0.000 C 
ATOM     27  O   UNL     1       4.641  15.072  20.411  0.00  0.00    +0.000 OA
BRANCH  26  28
ATOM     28  O   UNL     1       4.589  13.764  22.270  0.00  0.00    +0.000 OA
ATOM     29  H   UNL     1       3.702  14.104  22.485  0.00  0.00    +0.000 HD
ENDBRANCH  26  28
ENDBRANCH  25  26
ENDBRANCH  16  24
TORSDOF 5
ENDMDL
