MODEL 1
REMARK VINA RESULT:      -6.4      0.000      0.000
REMARK  Name = 
REMARK  8 active torsions:
REMARK  status: ('A' for Active; 'I' for Inactive)
REMARK    1  A    between atoms: C_1  and  C_2
REMARK    2  A    between atoms: C_2  and  N_3
REMARK    3  A    between atoms: N_3  and  C_4
REMARK    4  A    between atoms: N_3  and  C_6
REMARK    5  A    between atoms: C_4  and  C_5
REMARK    6  A    between atoms: C_6  and  C_7
REMARK    7  A    between atoms: C_7  and  N_8
REMARK    8  A    between atoms: C_9  and  C_11
REMARK                            x       y       z     vdW  Elec       q    Type
REMARK                         _______ _______ _______ _____ _____    ______ ____
ROOT
ATOM      1  N   UNL     1       5.258   4.394  14.841  0.00  0.00    +0.000 N 
ATOM      2  C   UNL     1       5.601   4.097  16.122  0.00  0.00    +0.000 C 
ATOM      3  O   UNL     1       6.773   4.150  16.469  0.00  0.00    +0.000 OA
ATOM      4  H   UNL     1       4.263   4.402  14.621  0.00  0.00    +0.000 HD
ENDROOT
BRANCH   2   5
ATOM      5  C   UNL     1       4.558   3.646  17.088  0.00  0.00    +0.000 A 
ATOM      6  C   UNL     1       3.827   4.578  17.840  0.00  0.00    +0.000 A 
ATOM      7  C   UNL     1       2.882   4.139  18.782  0.00  0.00    +0.000 A 
ATOM      8  C   UNL     1       2.118   5.048  19.546  0.00  0.00    +0.000 A 
ATOM      9  I   UNL     1       2.278   7.159  19.351  0.00  0.00    +0.000 I 
ATOM     10  C   UNL     1       1.196   4.565  20.481  0.00  0.00    +0.000 A 
ATOM     11  C   UNL     1       1.027   3.193  20.670  0.00  0.00    +0.000 A 
ATOM     12  C   UNL     1       1.773   2.283  19.917  0.00  0.00    +0.000 A 
ATOM     13  C   UNL     1       2.697   2.747  18.971  0.00  0.00    +0.000 A 
ATOM     14  C   UNL     1       3.448   1.849  18.203  0.00  0.00    +0.000 A 
ATOM     15  N   UNL     1       4.341   2.315  17.292  0.00  0.00    +0.000 NA
ENDBRANCH   2   5
BRANCH   1  16
ATOM     16  C   UNL     1       6.239   4.669  13.800  0.00  0.00    +0.000 C 
BRANCH  16  17
ATOM     17  C   UNL     1       6.534   3.456  12.871  0.00  0.00    +0.000 C 
BRANCH  17  18
ATOM     18  N   UNL     1       5.344   2.824  12.218  0.00  0.00    +0.000 NA
BRANCH  18  20
ATOM     19  C   UNL     1       3.376   3.082  10.632  0.00  0.00    +0.000 C 
ATOM     20  C   UNL     1       4.451   3.768  11.502  0.00  0.00    +0.000 C 
ENDBRANCH  18  20
BRANCH  18  21
ATOM     21  C   UNL     1       5.798   1.685  11.376  0.00  0.00    +0.000 C 
ATOM     22  C   UNL     1       7.286   1.733  10.998  0.00  0.00    +0.000 C 
ENDBRANCH  18  21
ENDBRANCH  17  18
ENDBRANCH  16  17
ENDBRANCH   1  16
TORSDOF 6
ENDMDL
MODEL 2
REMARK VINA RESULT:      -6.3      4.903      6.655
REMARK  Name = 
REMARK  8 active torsions:
REMARK  status: ('A' for Active; 'I' for Inactive)
REMARK    1  A    between atoms: C_1  and  C_2
REMARK    2  A    between atoms: C_2  and  N_3
REMARK    3  A    between atoms: N_3  and  C_4
REMARK    4  A    between atoms: N_3  and  C_6
REMARK    5  A    between atoms: C_4  and  C_5
REMARK    6  A    between atoms: C_6  and  C_7
REMARK    7  A    between atoms: C_7  and  N_8
REMARK    8  A    between atoms: C_9  and  C_11
REMARK                            x       y       z     vdW  Elec       q    Type
REMARK                         _______ _______ _______ _____ _____    ______ ____
ROOT
ATOM      1  N   UNL     1       3.293   7.258  18.288  0.00  0.00    +0.000 N 
ATOM      2  C   UNL     1       2.394   8.276  18.235  0.00  0.00    +0.000 C 
ATOM      3  O   UNL     1       2.264   8.924  17.206  0.00  0.00    +0.000 OA
ATOM      4  H   UNL     1       3.313   6.706  19.145  0.00  0.00    +0.000 HD
ENDROOT
BRANCH   2   5
ATOM      5  C   UNL     1       1.613   8.644  19.451  0.00  0.00    +0.000 A 
ATOM      6  C   UNL     1       0.872   9.835  19.494  0.00  0.00    +0.000 A 
ATOM      7  C   UNL     1       0.181  10.194  20.663  0.00  0.00    +0.000 A 
ATOM      8  C   UNL     1      -0.586  11.378  20.737  0.00  0.00    +0.000 A 
ATOM      9  I   UNL     1      -0.810  12.727  19.109  0.00  0.00    +0.000 I 
ATOM     10  C   UNL     1      -1.249  11.701  21.926  0.00  0.00    +0.000 A 
ATOM     11  C   UNL     1      -1.157  10.868  23.042  0.00  0.00    +0.000 A 
ATOM     12  C   UNL     1      -0.405   9.692  22.980  0.00  0.00    +0.000 A 
ATOM     13  C   UNL     1       0.261   9.348  21.796  0.00  0.00    +0.000 A 
ATOM     14  C   UNL     1       1.012   8.169  21.714  0.00  0.00    +0.000 A 
ATOM     15  N   UNL     1       1.655   7.851  20.560  0.00  0.00    +0.000 NA
ENDBRANCH   2   5
BRANCH   1  16
ATOM     16  C   UNL     1       4.214   6.955  17.202  0.00  0.00    +0.000 C 
BRANCH  16  17
ATOM     17  C   UNL     1       4.474   5.436  16.996  0.00  0.00    +0.000 C 
BRANCH  17  18
ATOM     18  N   UNL     1       5.902   5.034  16.793  0.00  0.00    +0.000 NA
BRANCH  18  20
ATOM     19  C   UNL     1       7.600   5.958  18.442  0.00  0.00    +0.000 C 
ATOM     20  C   UNL     1       6.666   4.796  18.043  0.00  0.00    +0.000 C 
ENDBRANCH  18  20
BRANCH  18  21
ATOM     21  C   UNL     1       5.957   3.893  15.840  0.00  0.00    +0.000 C 
ATOM     22  C   UNL     1       5.617   4.266  14.390  0.00  0.00    +0.000 C 
ENDBRANCH  18  21
ENDBRANCH  17  18
ENDBRANCH  16  17
ENDBRANCH   1  16
TORSDOF 6
ENDMDL
MODEL 3
REMARK VINA RESULT:      -6.3      1.393      1.523
REMARK  Name = 
REMARK  8 active torsions:
REMARK  status: ('A' for Active; 'I' for Inactive)
REMARK    1  A    between atoms: C_1  and  C_2
REMARK    2  A    between atoms: C_2  and  N_3
REMARK    3  A    between atoms: N_3  and  C_4
REMARK    4  A    between atoms: N_3  and  C_6
REMARK    5  A    between atoms: C_4  and  C_5
REMARK    6  A    between atoms: C_6  and  C_7
REMARK    7  A    between atoms: C_7  and  N_8
REMARK    8  A    between atoms: C_9  and  C_11
REMARK                            x       y       z     vdW  Elec       q    Type
REMARK                         _______ _______ _______ _____ _____    ______ ____
ROOT
ATOM      1  N   UNL     1       6.246   4.392  14.722  0.00  0.00    +0.000 N 
ATOM      2  C   UNL     1       5.581   5.347  15.426  0.00  0.00    +0.000 C 
ATOM      3  O   UNL     1       5.661   6.520  15.090  0.00  0.00    +0.000 OA
ATOM      4  H   UNL     1       6.091   3.424  15.000  0.00  0.00    +0.000 HD
ENDROOT
BRANCH   2   5
ATOM      5  C   UNL     1       4.805   4.971  16.643  0.00  0.00    +0.000 A 
ATOM      6  C   UNL     1       3.981   5.907  17.285  0.00  0.00    +0.000 A 
ATOM      7  C   UNL     1       3.295   5.555  18.458  0.00  0.00    +0.000 A 
ATOM      8  C   UNL     1       2.445   6.467  19.124  0.00  0.00    +0.000 A 
ATOM      9  I   UNL     1       2.082   8.443  18.428  0.00  0.00    +0.000 I 
ATOM     10  C   UNL     1       1.790   6.076  20.296  0.00  0.00    +0.000 A 
ATOM     11  C   UNL     1       1.972   4.795  20.819  0.00  0.00    +0.000 A 
ATOM     12  C   UNL     1       2.805   3.882  20.169  0.00  0.00    +0.000 A 
ATOM     13  C   UNL     1       3.465   4.253  18.989  0.00  0.00    +0.000 A 
ATOM     14  C   UNL     1       4.299   3.348  18.320  0.00  0.00    +0.000 A 
ATOM     15  N   UNL     1       4.934   3.723  17.179  0.00  0.00    +0.000 NA
ENDBRANCH   2   5
BRANCH   1  16
ATOM     16  C   UNL     1       7.162   4.702  13.633  0.00  0.00    +0.000 C 
BRANCH  16  17
ATOM     17  C   UNL     1       6.668   4.230  12.236  0.00  0.00    +0.000 C 
BRANCH  17  18
ATOM     18  N   UNL     1       5.979   2.901  12.197  0.00  0.00    +0.000 NA
BRANCH  18  20
ATOM     19  C   UNL     1       4.110   3.676  10.659  0.00  0.00    +0.000 C 
ATOM     20  C   UNL     1       4.514   2.965  11.969  0.00  0.00    +0.000 C 
ENDBRANCH  18  20
BRANCH  18  21
ATOM     21  C   UNL     1       6.689   2.012  11.238  0.00  0.00    +0.000 C 
ATOM     22  C   UNL     1       6.137   0.581  11.178  0.00  0.00    +0.000 C 
ENDBRANCH  18  21
ENDBRANCH  17  18
ENDBRANCH  16  17
ENDBRANCH   1  16
TORSDOF 6
ENDMDL
MODEL 4
REMARK VINA RESULT:      -6.3      5.008      6.831
REMARK  Name = 
REMARK  8 active torsions:
REMARK  status: ('A' for Active; 'I' for Inactive)
REMARK    1  A    between atoms: C_1  and  C_2
REMARK    2  A    between atoms: C_2  and  N_3
REMARK    3  A    between atoms: N_3  and  C_4
REMARK    4  A    between atoms: N_3  and  C_6
REMARK    5  A    between atoms: C_4  and  C_5
REMARK    6  A    between atoms: C_6  and  C_7
REMARK    7  A    between atoms: C_7  and  N_8
REMARK    8  A    between atoms: C_9  and  C_11
REMARK                            x       y       z     vdW  Elec       q    Type
REMARK                         _______ _______ _______ _____ _____    ______ ____
ROOT
ATOM      1  N   UNL     1       3.129   7.085  18.428  0.00  0.00    +0.000 N 
ATOM      2  C   UNL     1       2.347   8.193  18.335  0.00  0.00    +0.000 C 
ATOM      3  O   UNL     1       2.323   8.838  17.297  0.00  0.00    +0.000 OA
ATOM      4  H   UNL     1       3.061   6.545  19.289  0.00  0.00    +0.000 HD
ENDROOT
BRANCH   2   5
ATOM      5  C   UNL     1       1.568   8.657  19.520  0.00  0.00    +0.000 A 
ATOM      6  C   UNL     1       0.801   9.830  19.459  0.00  0.00    +0.000 A 
ATOM      7  C   UNL     1       0.112  10.282  20.596  0.00  0.00    +0.000 A 
ATOM      8  C   UNL     1      -0.681  11.451  20.567  0.00  0.00    +0.000 A 
ATOM      9  I   UNL     1      -0.948  12.636  18.823  0.00  0.00    +0.000 I 
ATOM     10  C   UNL     1      -1.340  11.870  21.727  0.00  0.00    +0.000 A 
ATOM     11  C   UNL     1      -1.220  11.147  22.915  0.00  0.00    +0.000 A 
ATOM     12  C   UNL     1      -0.443   9.987  22.956  0.00  0.00    +0.000 A 
ATOM     13  C   UNL     1       0.221   9.548  21.802  0.00  0.00    +0.000 A 
ATOM     14  C   UNL     1       0.998   8.383  21.823  0.00  0.00    +0.000 A 
ATOM     15  N   UNL     1       1.638   7.971  20.697  0.00  0.00    +0.000 NA
ENDBRANCH   2   5
BRANCH   1  16
ATOM     16  C   UNL     1       4.050   6.673  17.378  0.00  0.00    +0.000 C 
BRANCH  16  17
ATOM     17  C   UNL     1       4.352   5.148  17.362  0.00  0.00    +0.000 C 
BRANCH  17  18
ATOM     18  N   UNL     1       5.799   4.763  17.392  0.00  0.00    +0.000 NA
BRANCH  18  20
ATOM     19  C   UNL     1       6.322   4.407  14.931  0.00  0.00    +0.000 C 
ATOM     20  C   UNL     1       6.588   5.215  16.219  0.00  0.00    +0.000 C 
ENDBRANCH  18  20
BRANCH  18  21
ATOM     21  C   UNL     1       6.386   5.175  18.695  0.00  0.00    +0.000 C 
ATOM     22  C   UNL     1       7.587   6.124  18.574  0.00  0.00    +0.000 C 
ENDBRANCH  18  21
ENDBRANCH  17  18
ENDBRANCH  16  17
ENDBRANCH   1  16
TORSDOF 6
ENDMDL
MODEL 5
REMARK VINA RESULT:      -6.3      5.137      7.451
REMARK  Name = 
REMARK  8 active torsions:
REMARK  status: ('A' for Active; 'I' for Inactive)
REMARK    1  A    between atoms: C_1  and  C_2
REMARK    2  A    between atoms: C_2  and  N_3
REMARK    3  A    between atoms: N_3  and  C_4
REMARK    4  A    between atoms: N_3  and  C_6
REMARK    5  A    between atoms: C_4  and  C_5
REMARK    6  A    between atoms: C_6  and  C_7
REMARK    7  A    between atoms: C_7  and  N_8
REMARK    8  A    between atoms: C_9  and  C_11
REMARK                            x       y       z     vdW  Elec       q    Type
REMARK                         _______ _______ _______ _____ _____    ______ ____
ROOT
ATOM      1  N   UNL     1       2.697   6.956  18.697  0.00  0.00    +0.000 N 
ATOM      2  C   UNL     1       2.157   8.195  18.558  0.00  0.00    +0.000 C 
ATOM      3  O   UNL     1       2.359   8.839  17.539  0.00  0.00    +0.000 OA
ATOM      4  H   UNL     1       2.442   6.434  19.534  0.00  0.00    +0.000 HD
ENDROOT
BRANCH   2   5
ATOM      5  C   UNL     1       1.371   8.795  19.675  0.00  0.00    +0.000 A 
ATOM      6  C   UNL     1       0.791  10.065  19.542  0.00  0.00    +0.000 A 
ATOM      7  C   UNL     1       0.095  10.639  20.619  0.00  0.00    +0.000 A 
ATOM      8  C   UNL     1      -0.514  11.910  20.516  0.00  0.00    +0.000 A 
ATOM      9  I   UNL     1      -0.479  13.080  18.741  0.00  0.00    +0.000 I 
ATOM     10  C   UNL     1      -1.187  12.447  21.618  0.00  0.00    +0.000 A 
ATOM     11  C   UNL     1      -1.259  11.743  22.821  0.00  0.00    +0.000 A 
ATOM     12  C   UNL     1      -0.665  10.484  22.934  0.00  0.00    +0.000 A 
ATOM     13  C   UNL     1       0.008   9.925  21.839  0.00  0.00    +0.000 A 
ATOM     14  C   UNL     1       0.603   8.661  21.932  0.00  0.00    +0.000 A 
ATOM     15  N   UNL     1       1.254   8.135  20.863  0.00  0.00    +0.000 NA
ENDBRANCH   2   5
BRANCH   1  16
ATOM     16  C   UNL     1       3.619   6.378  17.728  0.00  0.00    +0.000 C 
BRANCH  16  17
ATOM     17  C   UNL     1       3.460   4.843  17.541  0.00  0.00    +0.000 C 
BRANCH  17  18
ATOM     18  N   UNL     1       3.080   4.067  18.764  0.00  0.00    +0.000 NA
BRANCH  18  20
ATOM     19  C   UNL     1       0.981   3.971  20.192  0.00  0.00    +0.000 C 
ATOM     20  C   UNL     1       1.651   3.674  18.834  0.00  0.00    +0.000 C 
ENDBRANCH  18  20
BRANCH  18  21
ATOM     21  C   UNL     1       4.017   2.923  18.926  0.00  0.00    +0.000 C 
ATOM     22  C   UNL     1       3.488   1.591  18.374  0.00  0.00    +0.000 C 
ENDBRANCH  18  21
ENDBRANCH  17  18
ENDBRANCH  16  17
ENDBRANCH   1  16
TORSDOF 6
ENDMDL
MODEL 6
REMARK VINA RESULT:      -6.2      5.260      7.961
REMARK  Name = 
REMARK  8 active torsions:
REMARK  status: ('A' for Active; 'I' for Inactive)
REMARK    1  A    between atoms: C_1  and  C_2
REMARK    2  A    between atoms: C_2  and  N_3
REMARK    3  A    between atoms: N_3  and  C_4
REMARK    4  A    between atoms: N_3  and  C_6
REMARK    5  A    between atoms: C_4  and  C_5
REMARK    6  A    between atoms: C_6  and  C_7
REMARK    7  A    between atoms: C_7  and  N_8
REMARK    8  A    between atoms: C_9  and  C_11
REMARK                            x       y       z     vdW  Elec       q    Type
REMARK                         _______ _______ _______ _____ _____    ______ ____
ROOT
ATOM      1  N   UNL     1       2.795   6.735  19.910  0.00  0.00    +0.000 N 
ATOM      2  C   UNL     1       2.067   7.778  19.430  0.00  0.00    +0.000 C 
ATOM      3  O   UNL     1       2.138   8.080  18.248  0.00  0.00    +0.000 OA
ATOM      4  H   UNL     1       2.647   6.481  20.886  0.00  0.00    +0.000 HD
ENDROOT
BRANCH   2   5
ATOM      5  C   UNL     1       1.229   8.592  20.358  0.00  0.00    +0.000 A 
ATOM      6  C   UNL     1       0.417   9.627  19.870  0.00  0.00    +0.000 A 
ATOM      7  C   UNL     1      -0.328  10.417  20.759  0.00  0.00    +0.000 A 
ATOM      8  C   UNL     1      -1.167  11.458  20.302  0.00  0.00    +0.000 A 
ATOM      9  I   UNL     1      -1.424  11.932  18.245  0.00  0.00    +0.000 I 
ATOM     10  C   UNL     1      -1.883  12.228  21.225  0.00  0.00    +0.000 A 
ATOM     11  C   UNL     1      -1.774  11.981  22.594  0.00  0.00    +0.000 A 
ATOM     12  C   UNL     1      -0.952  10.952  23.059  0.00  0.00    +0.000 A 
ATOM     13  C   UNL     1      -0.231  10.166  22.150  0.00  0.00    +0.000 A 
ATOM     14  C   UNL     1       0.592   9.125  22.597  0.00  0.00    +0.000 A 
ATOM     15  N   UNL     1       1.286   8.373  21.703  0.00  0.00    +0.000 NA
ENDBRANCH   2   5
BRANCH   1  16
ATOM     16  C   UNL     1       3.767   6.008  19.105  0.00  0.00    +0.000 C 
BRANCH  16  17
ATOM     17  C   UNL     1       3.726   4.466  19.303  0.00  0.00    +0.000 C 
BRANCH  17  18
ATOM     18  N   UNL     1       2.416   3.895  19.750  0.00  0.00    +0.000 NA
BRANCH  18  20
ATOM     19  C   UNL     1       2.425   2.414  17.685  0.00  0.00    +0.000 C 
ATOM     20  C   UNL     1       1.607   3.274  18.672  0.00  0.00    +0.000 C 
ENDBRANCH  18  20
BRANCH  18  21
ATOM     21  C   UNL     1       2.648   2.994  20.910  0.00  0.00    +0.000 C 
ATOM     22  C   UNL     1       1.372   2.606  21.673  0.00  0.00    +0.000 C 
ENDBRANCH  18  21
ENDBRANCH  17  18
ENDBRANCH  16  17
ENDBRANCH   1  16
TORSDOF 6
ENDMDL
MODEL 7
REMARK VINA RESULT:      -6.2      4.519      6.720
REMARK  Name = 
REMARK  8 active torsions:
REMARK  status: ('A' for Active; 'I' for Inactive)
REMARK    1  A    between atoms: C_1  and  C_2
REMARK    2  A    between atoms: C_2  and  N_3
REMARK    3  A    between atoms: N_3  and  C_4
REMARK    4  A    between atoms: N_3  and  C_6
REMARK    5  A    between atoms: C_4  and  C_5
REMARK    6  A    between atoms: C_6  and  C_7
REMARK    7  A    between atoms: C_7  and  N_8
REMARK    8  A    between atoms: C_9  and  C_11
REMARK                            x       y       z     vdW  Elec       q    Type
REMARK                         _______ _______ _______ _____ _____    ______ ____
ROOT
ATOM      1  N   UNL     1       3.612   5.570  19.415  0.00  0.00    +0.000 N 
ATOM      2  C   UNL     1       2.463   6.099  19.913  0.00  0.00    +0.000 C 
ATOM      3  O   UNL     1       1.723   5.411  20.602  0.00  0.00    +0.000 OA
ATOM      4  H   UNL     1       4.227   6.203  18.906  0.00  0.00    +0.000 HD
ENDROOT
BRANCH   2   5
ATOM      5  C   UNL     1       2.075   7.497  19.569  0.00  0.00    +0.000 A 
ATOM      6  C   UNL     1       1.330   8.276  20.467  0.00  0.00    +0.000 A 
ATOM      7  C   UNL     1       0.929   9.573  20.110  0.00  0.00    +0.000 A 
ATOM      8  C   UNL     1       0.189  10.391  20.994  0.00  0.00    +0.000 A 
ATOM      9  I   UNL     1      -0.375   9.781  22.951  0.00  0.00    +0.000 I 
ATOM     10  C   UNL     1      -0.199  11.673  20.592  0.00  0.00    +0.000 A 
ATOM     11  C   UNL     1       0.133  12.152  19.323  0.00  0.00    +0.000 A 
ATOM     12  C   UNL     1       0.867  11.356  18.442  0.00  0.00    +0.000 A 
ATOM     13  C   UNL     1       1.271  10.070  18.828  0.00  0.00    +0.000 A 
ATOM     14  C   UNL     1       2.014   9.261  17.961  0.00  0.00    +0.000 A 
ATOM     15  N   UNL     1       2.396   8.016  18.349  0.00  0.00    +0.000 NA
ENDBRANCH   2   5
BRANCH   1  16
ATOM     16  C   UNL     1       3.969   4.165  19.560  0.00  0.00    +0.000 C 
BRANCH  16  17
ATOM     17  C   UNL     1       5.096   3.695  18.598  0.00  0.00    +0.000 C 
BRANCH  17  18
ATOM     18  N   UNL     1       5.743   4.763  17.772  0.00  0.00    +0.000 NA
BRANCH  18  20
ATOM     19  C   UNL     1       7.722   5.883  18.906  0.00  0.00    +0.000 C 
ATOM     20  C   UNL     1       7.221   4.835  17.890  0.00  0.00    +0.000 C 
ENDBRANCH  18  20
BRANCH  18  21
ATOM     21  C   UNL     1       5.267   4.648  16.367  0.00  0.00    +0.000 C 
ATOM     22  C   UNL     1       5.308   5.964  15.577  0.00  0.00    +0.000 C 
ENDBRANCH  18  21
ENDBRANCH  17  18
ENDBRANCH  16  17
ENDBRANCH   1  16
TORSDOF 6
ENDMDL
MODEL 8
REMARK VINA RESULT:      -6.2      4.882      6.692
REMARK  Name = 
REMARK  8 active torsions:
REMARK  status: ('A' for Active; 'I' for Inactive)
REMARK    1  A    between atoms: C_1  and  C_2
REMARK    2  A    between atoms: C_2  and  N_3
REMARK    3  A    between atoms: N_3  and  C_4
REMARK    4  A    between atoms: N_3  and  C_6
REMARK    5  A    between atoms: C_4  and  C_5
REMARK    6  A    between atoms: C_6  and  C_7
REMARK    7  A    between atoms: C_7  and  N_8
REMARK    8  A    between atoms: C_9  and  C_11
REMARK                            x       y       z     vdW  Elec       q    Type
REMARK                         _______ _______ _______ _____ _____    ______ ____
ROOT
ATOM      1  N   UNL     1       3.140   7.134  18.391  0.00  0.00    +0.000 N 
ATOM      2  C   UNL     1       2.333   8.225  18.321  0.00  0.00    +0.000 C 
ATOM      3  O   UNL     1       2.283   8.883  17.292  0.00  0.00    +0.000 OA
ATOM      4  H   UNL     1       3.093   6.581  19.245  0.00  0.00    +0.000 HD
ENDROOT
BRANCH   2   5
ATOM      5  C   UNL     1       1.556   8.656  19.519  0.00  0.00    +0.000 A 
ATOM      6  C   UNL     1       0.801   9.838  19.497  0.00  0.00    +0.000 A 
ATOM      7  C   UNL     1       0.114  10.258  20.647  0.00  0.00    +0.000 A 
ATOM      8  C   UNL     1      -0.668  11.435  20.657  0.00  0.00    +0.000 A 
ATOM      9  I   UNL     1      -0.919  12.682  18.954  0.00  0.00    +0.000 I 
ATOM     10  C   UNL     1      -1.326  11.820  21.829  0.00  0.00    +0.000 A 
ATOM     11  C   UNL     1      -1.215  11.056  22.992  0.00  0.00    +0.000 A 
ATOM     12  C   UNL     1      -0.450   9.888  22.994  0.00  0.00    +0.000 A 
ATOM     13  C   UNL     1       0.212   9.481  21.828  0.00  0.00    +0.000 A 
ATOM     14  C   UNL     1       0.977   8.309  21.810  0.00  0.00    +0.000 A 
ATOM     15  N   UNL     1       1.615   7.930  20.672  0.00  0.00    +0.000 NA
ENDBRANCH   2   5
BRANCH   1  16
ATOM     16  C   UNL     1       4.059   6.756  17.326  0.00  0.00    +0.000 C 
BRANCH  16  17
ATOM     17  C   UNL     1       4.888   5.476  17.629  0.00  0.00    +0.000 C 
BRANCH  17  18
ATOM     18  N   UNL     1       4.591   4.283  16.774  0.00  0.00    +0.000 NA
BRANCH  18  20
ATOM     19  C   UNL     1       5.869   4.708  14.620  0.00  0.00    +0.000 C 
ATOM     20  C   UNL     1       5.706   3.853  15.894  0.00  0.00    +0.000 C 
ENDBRANCH  18  20
BRANCH  18  21
ATOM     21  C   UNL     1       4.058   3.190  17.631  0.00  0.00    +0.000 C 
ATOM     22  C   UNL     1       3.937   3.554  19.118  0.00  0.00    +0.000 C 
ENDBRANCH  18  21
ENDBRANCH  17  18
ENDBRANCH  16  17
ENDBRANCH   1  16
TORSDOF 6
ENDMDL
MODEL 9
REMARK VINA RESULT:      -6.1      5.103      6.957
REMARK  Name = 
REMARK  8 active torsions:
REMARK  status: ('A' for Active; 'I' for Inactive)
REMARK    1  A    between atoms: C_1  and  C_2
REMARK    2  A    between atoms: C_2  and  N_3
REMARK    3  A    between atoms: N_3  and  C_4
REMARK    4  A    between atoms: N_3  and  C_6
REMARK    5  A    between atoms: C_4  and  C_5
REMARK    6  A    between atoms: C_6  and  C_7
REMARK    7  A    between atoms: C_7  and  N_8
REMARK    8  A    between atoms: C_9  and  C_11
REMARK                            x       y       z     vdW  Elec       q    Type
REMARK                         _______ _______ _______ _____ _____    ______ ____
ROOT
ATOM      1  N   UNL     1       2.828   7.003  18.635  0.00  0.00    +0.000 N 
ATOM      2  C   UNL     1       2.208   8.203  18.485  0.00  0.00    +0.000 C 
ATOM      3  O   UNL     1       2.332   8.829  17.442  0.00  0.00    +0.000 OA
ATOM      4  H   UNL     1       2.636   6.490  19.495  0.00  0.00    +0.000 HD
ENDROOT
BRANCH   2   5
ATOM      5  C   UNL     1       1.426   8.784  19.615  0.00  0.00    +0.000 A 
ATOM      6  C   UNL     1       0.837  10.053  19.501  0.00  0.00    +0.000 A 
ATOM      7  C   UNL     1       0.146  10.610  20.589  0.00  0.00    +0.000 A 
ATOM      8  C   UNL     1      -0.472  11.878  20.506  0.00  0.00    +0.000 A 
ATOM      9  I   UNL     1      -0.457  13.069  18.745  0.00  0.00    +0.000 I 
ATOM     10  C   UNL     1      -1.140  12.398  21.619  0.00  0.00    +0.000 A 
ATOM     11  C   UNL     1      -1.199  11.679  22.814  0.00  0.00    +0.000 A 
ATOM     12  C   UNL     1      -0.597  10.422  22.908  0.00  0.00    +0.000 A 
ATOM     13  C   UNL     1       0.072   9.881  21.802  0.00  0.00    +0.000 A 
ATOM     14  C   UNL     1       0.675   8.619  21.876  0.00  0.00    +0.000 A 
ATOM     15  N   UNL     1       1.322   8.110  20.796  0.00  0.00    +0.000 NA
ENDBRANCH   2   5
BRANCH   1  16
ATOM     16  C   UNL     1       3.749   6.456  17.648  0.00  0.00    +0.000 C 
BRANCH  16  17
ATOM     17  C   UNL     1       4.936   5.661  18.261  0.00  0.00    +0.000 C 
BRANCH  17  18
ATOM     18  N   UNL     1       5.050   4.226  17.848  0.00  0.00    +0.000 NA
BRANCH  18  20
ATOM     19  C   UNL     1       3.336   2.354  17.970  0.00  0.00    +0.000 C 
ATOM     20  C   UNL     1       4.328   3.267  18.722  0.00  0.00    +0.000 C 
ENDBRANCH  18  20
BRANCH  18  21
ATOM     21  C   UNL     1       4.690   4.103  16.410  0.00  0.00    +0.000 C 
ATOM     22  C   UNL     1       5.897   4.003  15.465  0.00  0.00    +0.000 C 
ENDBRANCH  18  21
ENDBRANCH  17  18
ENDBRANCH  16  17
ENDBRANCH   1  16
TORSDOF 6
ENDMDL
