MODEL 1
REMARK VINA RESULT:      -6.6      0.000      0.000
REMARK  Name = 
REMARK  4 active torsions:
REMARK  status: ('A' for Active; 'I' for Inactive)
REMARK    1  A    between atoms: O_1  and  C_2
REMARK    2  A    between atoms: C_20  and  O_21
REMARK    3  A    between atoms: N_24  and  C_25
REMARK    4  A    between atoms: C_25  and  C_26
REMARK                            x       y       z     vdW  Elec       q    Type
REMARK                         _______ _______ _______ _____ _____    ______ ____
ROOT
ATOM      1  C   UNL     1       4.078  16.949  20.314  0.00  0.00    +0.000 A 
ATOM      2  C   UNL     1       3.544  16.259  21.426  0.00  0.00    +0.000 A 
ATOM      3  C   UNL     1       4.268  15.195  22.023  0.00  0.00    +0.000 A 
ATOM      4  C   UNL     1       5.376  14.744  21.345  0.00  0.00    +0.000 A 
ATOM      5  C   UNL     1       5.520  15.166  20.063  0.00  0.00    +0.000 A 
ATOM      6  C   UNL     1       5.171  16.396  19.693  0.00  0.00    +0.000 A 
ATOM      7  O   UNL     1       6.259  16.870  19.008  0.00  0.00    +0.000 OA
ATOM      8  C   UNL     1       7.678  16.015  19.493  0.00  0.00    +0.000 C 
ATOM      9  C   UNL     1       8.369  14.100  19.639  0.00  0.00    +0.000 A 
ATOM     10  O   UNL     1       8.451  13.167  18.573  0.00  0.00    +0.000 OA
ATOM     11  C   UNL     1       9.539  12.372  18.820  0.00  0.00    +0.000 A 
ATOM     12  C   UNL     1      10.221  11.688  17.825  0.00  0.00    +0.000 A 
ATOM     13  C   UNL     1      11.582  11.507  18.077  0.00  0.00    +0.000 A 
ATOM     14  C   UNL     1      12.131  11.771  19.335  0.00  0.00    +0.000 A 
ATOM     15  C   UNL     1      11.317  12.133  20.418  0.00  0.00    +0.000 A 
ATOM     16  C   UNL     1      10.015  12.538  20.115  0.00  0.00    +0.000 A 
ATOM     17  C   UNL     1       9.037  13.363  20.708  0.00  0.00    +0.000 A 
ATOM     18  C   UNL     1       8.900  14.069  22.085  0.00  0.00    +0.000 C 
ATOM     19  C   UNL     1       7.552  15.468  21.388  0.00  0.00    +0.000 C 
ATOM     20  C   UNL     1       8.895  15.421  21.462  0.00  0.00    +0.000 C 
ATOM     21  C   UNL     1       7.043  14.458  21.954  0.00  0.00    +0.000 C 
ATOM     22  N   UNL     1       9.844  15.938  19.998  0.00  0.00    +0.000 NA
ATOM     23  C   UNL     1       9.417  15.677  18.327  0.00  0.00    +0.000 C 
ATOM     24  C   UNL     1       7.627  15.300  17.985  0.00  0.00    +0.000 C 
ATOM     25  C   UNL     1       6.885  14.941  19.686  0.00  0.00    +0.000 C 
ENDROOT
BRANCH   1  26
ATOM     26  O   UNL     1       3.585  18.159  19.935  0.00  0.00    +0.000 OA
ATOM     27  H   UNL     1       3.683  18.769  20.673  0.00  0.00    +0.000 HD
ENDBRANCH   1  26
BRANCH  19  28
ATOM     28  O   UNL     1       7.241  16.754  22.093  0.00  0.00    +0.000 OA
ATOM     29  H   UNL     1       6.621  17.377  21.609  0.00  0.00    +0.000 HD
ENDBRANCH  19  28
BRANCH  22  30
ATOM     30  C   UNL     1      11.265  15.585  20.234  0.00  0.00    +0.000 C 
BRANCH  30  31
ATOM     31  C   UNL     1      12.166  16.723  20.604  0.00  0.00    +0.000 C 
ATOM     32  C   UNL     1      11.526  18.044  20.894  0.00  0.00    +0.000 C 
ATOM     33  C   UNL     1      12.220  17.294  21.999  0.00  0.00    +0.000 C 
ENDBRANCH  30  31
ENDBRANCH  22  30
TORSDOF 4
ENDMDL
MODEL 2
REMARK VINA RESULT:      -6.5      5.856     10.210
REMARK  Name = 
REMARK  4 active torsions:
REMARK  status: ('A' for Active; 'I' for Inactive)
REMARK    1  A    between atoms: O_1  and  C_2
REMARK    2  A    between atoms: C_20  and  O_21
REMARK    3  A    between atoms: N_24  and  C_25
REMARK    4  A    between atoms: C_25  and  C_26
REMARK                            x       y       z     vdW  Elec       q    Type
REMARK                         _______ _______ _______ _____ _____    ______ ____
ROOT
ATOM      1  C   UNL     1       3.051  16.682  17.815  0.00  0.00    +0.000 A 
ATOM      2  C   UNL     1       4.256  16.084  18.245  0.00  0.00    +0.000 A 
ATOM      3  C   UNL     1       4.237  15.064  19.231  0.00  0.00    +0.000 A 
ATOM      4  C   UNL     1       3.043  14.855  19.881  0.00  0.00    +0.000 A 
ATOM      5  C   UNL     1       2.086  15.801  19.716  0.00  0.00    +0.000 A 
ATOM      6  C   UNL     1       1.921  16.428  18.552  0.00  0.00    +0.000 A 
ATOM      7  O   UNL     1       0.579  16.329  18.296  0.00  0.00    +0.000 OA
ATOM      8  C   UNL     1      -0.086  14.983  19.149  0.00  0.00    +0.000 C 
ATOM      9  C   UNL     1      -0.204  14.249  21.051  0.00  0.00    +0.000 A 
ATOM     10  O   UNL     1      -0.750  14.932  22.168  0.00  0.00    +0.000 OA
ATOM     11  C   UNL     1      -1.311  13.984  22.982  0.00  0.00    +0.000 A 
ATOM     12  C   UNL     1      -2.323  14.262  23.887  0.00  0.00    +0.000 A 
ATOM     13  C   UNL     1      -3.200  13.201  24.118  0.00  0.00    +0.000 A 
ATOM     14  C   UNL     1      -2.914  11.909  23.667  0.00  0.00    +0.000 A 
ATOM     15  C   UNL     1      -1.690  11.612  23.053  0.00  0.00    +0.000 A 
ATOM     16  C   UNL     1      -0.928  12.699  22.615  0.00  0.00    +0.000 A 
ATOM     17  C   UNL     1       0.048  12.930  21.624  0.00  0.00    +0.000 A 
ATOM     18  C   UNL     1       0.863  12.018  20.667  0.00  0.00    +0.000 C 
ATOM     19  C   UNL     1       1.251  13.537  19.325  0.00  0.00    +0.000 C 
ATOM     20  C   UNL     1       0.258  12.639  19.457  0.00  0.00    +0.000 C 
ATOM     21  C   UNL     1       2.162  13.315  20.172  0.00  0.00    +0.000 C 
ATOM     22  N   UNL     1      -1.454  13.234  19.292  0.00  0.00    +0.000 NA
ATOM     23  C   UNL     1      -2.085  14.771  19.826  0.00  0.00    +0.000 C 
ATOM     24  C   UNL     1      -0.832  16.114  20.125  0.00  0.00    +0.000 C 
ATOM     25  C   UNL     1       0.834  15.220  20.107  0.00  0.00    +0.000 C 
ENDROOT
BRANCH   1  26
ATOM     26  O   UNL     1       2.997  17.404  16.663  0.00  0.00    +0.000 OA
ATOM     27  H   UNL     1       3.050  18.337  16.888  0.00  0.00    +0.000 HD
ENDBRANCH   1  26
BRANCH  19  28
ATOM     28  O   UNL     1       1.696  13.312  17.911  0.00  0.00    +0.000 OA
ATOM     29  H   UNL     1       2.679  13.153  17.785  0.00  0.00    +0.000 HD
ENDBRANCH  19  28
BRANCH  22  30
ATOM     30  C   UNL     1      -2.357  12.131  19.700  0.00  0.00    +0.000 C 
BRANCH  30  31
ATOM     31  C   UNL     1      -2.977  11.349  18.582  0.00  0.00    +0.000 C 
ATOM     32  C   UNL     1      -2.318  11.424  17.240  0.00  0.00    +0.000 C 
ATOM     33  C   UNL     1      -2.327  10.121  17.994  0.00  0.00    +0.000 C 
ENDBRANCH  30  31
ENDBRANCH  22  30
TORSDOF 4
ENDMDL
MODEL 3
REMARK VINA RESULT:      -6.5      2.178      6.112
REMARK  Name = 
REMARK  4 active torsions:
REMARK  status: ('A' for Active; 'I' for Inactive)
REMARK    1  A    between atoms: O_1  and  C_2
REMARK    2  A    between atoms: C_20  and  O_21
REMARK    3  A    between atoms: N_24  and  C_25
REMARK    4  A    between atoms: C_25  and  C_26
REMARK                            x       y       z     vdW  Elec       q    Type
REMARK                         _______ _______ _______ _____ _____    ______ ____
ROOT
ATOM      1  C   UNL     1      11.768  13.017  17.243  0.00  0.00    +0.000 A 
ATOM      2  C   UNL     1      11.641  11.666  17.637  0.00  0.00    +0.000 A 
ATOM      3  C   UNL     1      11.048  11.336  18.883  0.00  0.00    +0.000 A 
ATOM      4  C   UNL     1      10.817  12.376  19.752  0.00  0.00    +0.000 A 
ATOM      5  C   UNL     1      11.409  13.561  19.456  0.00  0.00    +0.000 A 
ATOM      6  C   UNL     1      11.540  13.977  18.198  0.00  0.00    +0.000 A 
ATOM      7  O   UNL     1      11.062  15.261  18.209  0.00  0.00    +0.000 OA
ATOM      8  C   UNL     1       9.983  15.475  19.539  0.00  0.00    +0.000 C 
ATOM      9  C   UNL     1       9.946  15.245  21.567  0.00  0.00    +0.000 A 
ATOM     10  O   UNL     1      10.834  15.862  22.486  0.00  0.00    +0.000 OA
ATOM     11  C   UNL     1      10.127  16.086  23.638  0.00  0.00    +0.000 A 
ATOM     12  C   UNL     1      10.468  17.061  24.562  0.00  0.00    +0.000 A 
ATOM     13  C   UNL     1       9.386  17.604  25.256  0.00  0.00    +0.000 A 
ATOM     14  C   UNL     1       8.117  17.022  25.195  0.00  0.00    +0.000 A 
ATOM     15  C   UNL     1       7.906  15.815  24.513  0.00  0.00    +0.000 A 
ATOM     16  C   UNL     1       8.914  15.406  23.637  0.00  0.00    +0.000 A 
ATOM     17  C   UNL     1       8.999  14.607  22.478  0.00  0.00    +0.000 A 
ATOM     18  C   UNL     1       8.018  13.658  21.738  0.00  0.00    +0.000 C 
ATOM     19  C   UNL     1       9.024  13.794  19.941  0.00  0.00    +0.000 C 
ATOM     20  C   UNL     1       8.030  14.500  20.510  0.00  0.00    +0.000 C 
ATOM     21  C   UNL     1       9.318  12.792  20.654  0.00  0.00    +0.000 C 
ATOM     22  N   UNL     1       8.134  16.316  20.449  0.00  0.00    +0.000 NA
ATOM     23  C   UNL     1       9.579  17.287  20.566  0.00  0.00    +0.000 C 
ATOM     24  C   UNL     1      11.186  16.415  20.217  0.00  0.00    +0.000 C 
ATOM     25  C   UNL     1      10.736  14.579  20.209  0.00  0.00    +0.000 C 
ENDROOT
BRANCH   1  26
ATOM     26  O   UNL     1      12.014  13.351  15.947  0.00  0.00    +0.000 OA
ATOM     27  H   UNL     1      11.542  14.165  15.751  0.00  0.00    +0.000 HD
ENDBRANCH   1  26
BRANCH  19  28
ATOM     28  O   UNL     1       8.428  13.418  18.618  0.00  0.00    +0.000 OA
ATOM     29  H   UNL     1       7.907  12.561  18.603  0.00  0.00    +0.000 HD
ENDBRANCH  19  28
BRANCH  22  30
ATOM     30  C   UNL     1       7.069  16.859  21.325  0.00  0.00    +0.000 C 
BRANCH  30  31
ATOM     31  C   UNL     1       5.952  17.574  20.628  0.00  0.00    +0.000 C 
ATOM     32  C   UNL     1       5.605  17.126  19.242  0.00  0.00    +0.000 C 
ATOM     33  C   UNL     1       4.616  16.926  20.360  0.00  0.00    +0.000 C 
ENDBRANCH  30  31
ENDBRANCH  22  30
TORSDOF 4
ENDMDL
MODEL 4
REMARK VINA RESULT:      -6.4      6.780      9.954
REMARK  Name = 
REMARK  4 active torsions:
REMARK  status: ('A' for Active; 'I' for Inactive)
REMARK    1  A    between atoms: O_1  and  C_2
REMARK    2  A    between atoms: C_20  and  O_21
REMARK    3  A    between atoms: N_24  and  C_25
REMARK    4  A    between atoms: C_25  and  C_26
REMARK                            x       y       z     vdW  Elec       q    Type
REMARK                         _______ _______ _______ _____ _____    ______ ____
ROOT
ATOM      1  C   UNL     1       2.698  16.455  20.653  0.00  0.00    +0.000 A 
ATOM      2  C   UNL     1       1.743  17.366  21.159  0.00  0.00    +0.000 A 
ATOM      3  C   UNL     1       0.363  17.038  21.147  0.00  0.00    +0.000 A 
ATOM      4  C   UNL     1       0.001  15.917  20.437  0.00  0.00    +0.000 A 
ATOM      5  C   UNL     1       0.937  15.390  19.609  0.00  0.00    +0.000 A 
ATOM      6  C   UNL     1       2.228  15.382  19.935  0.00  0.00    +0.000 A 
ATOM      7  O   UNL     1       2.629  14.090  19.720  0.00  0.00    +0.000 OA
ATOM      8  C   UNL     1       1.267  13.032  19.791  0.00  0.00    +0.000 C 
ATOM      9  C   UNL     1      -0.573  12.802  18.937  0.00  0.00    +0.000 A 
ATOM     10  O   UNL     1      -0.829  12.662  17.549  0.00  0.00    +0.000 OA
ATOM     11  C   UNL     1      -1.924  11.849  17.424  0.00  0.00    +0.000 A 
ATOM     12  C   UNL     1      -2.193  11.105  16.285  0.00  0.00    +0.000 A 
ATOM     13  C   UNL     1      -2.872   9.910  16.522  0.00  0.00    +0.000 A 
ATOM     14  C   UNL     1      -3.445   9.632  17.766  0.00  0.00    +0.000 A 
ATOM     15  C   UNL     1      -3.445  10.588  18.792  0.00  0.00    +0.000 A 
ATOM     16  C   UNL     1      -2.575  11.671  18.639  0.00  0.00    +0.000 A 
ATOM     17  C   UNL     1      -1.904  12.571  19.492  0.00  0.00    +0.000 A 
ATOM     18  C   UNL     1      -1.971  12.883  21.012  0.00  0.00    +0.000 C 
ATOM     19  C   UNL     1      -0.082  13.713  21.066  0.00  0.00    +0.000 C 
ATOM     20  C   UNL     1      -0.558  12.464  21.225  0.00  0.00    +0.000 C 
ATOM     21  C   UNL     1      -1.034  14.536  20.944  0.00  0.00    +0.000 C 
ATOM     22  N   UNL     1       0.305  11.110  20.369  0.00  0.00    +0.000 NA
ATOM     23  C   UNL     1       1.050  11.173  18.793  0.00  0.00    +0.000 C 
ATOM     24  C   UNL     1       1.448  12.869  18.139  0.00  0.00    +0.000 C 
ATOM     25  C   UNL     1       0.533  14.050  19.297  0.00  0.00    +0.000 C 
ENDROOT
BRANCH   1  26
ATOM     26  O   UNL     1       4.019  16.586  20.948  0.00  0.00    +0.000 OA
ATOM     27  H   UNL     1       4.518  16.539  20.127  0.00  0.00    +0.000 HD
ENDBRANCH   1  26
BRANCH  19  28
ATOM     28  O   UNL     1       0.709  13.913  22.323  0.00  0.00    +0.000 OA
ATOM     29  H   UNL     1       1.704  13.968  22.207  0.00  0.00    +0.000 HD
ENDBRANCH  19  28
BRANCH  22  30
ATOM     30  C   UNL     1      -0.524   9.889  20.505  0.00  0.00    +0.000 C 
BRANCH  30  31
ATOM     31  C   UNL     1      -0.124   8.947  21.599  0.00  0.00    +0.000 C 
ATOM     32  C   UNL     1       1.130   9.260  22.354  0.00  0.00    +0.000 C 
ATOM     33  C   UNL     1      -0.199   9.320  23.059  0.00  0.00    +0.000 C 
ENDBRANCH  30  31
ENDBRANCH  22  30
TORSDOF 4
ENDMDL
MODEL 5
REMARK VINA RESULT:      -6.4      7.857     11.244
REMARK  Name = 
REMARK  4 active torsions:
REMARK  status: ('A' for Active; 'I' for Inactive)
REMARK    1  A    between atoms: O_1  and  C_2
REMARK    2  A    between atoms: C_20  and  O_21
REMARK    3  A    between atoms: N_24  and  C_25
REMARK    4  A    between atoms: C_25  and  C_26
REMARK                            x       y       z     vdW  Elec       q    Type
REMARK                         _______ _______ _______ _____ _____    ______ ____
ROOT
ATOM      1  C   UNL     1       1.777  11.526  18.488  0.00  0.00    +0.000 A 
ATOM      2  C   UNL     1       1.157  10.259  18.574  0.00  0.00    +0.000 A 
ATOM      3  C   UNL     1       0.051  10.061  19.440  0.00  0.00    +0.000 A 
ATOM      4  C   UNL     1      -0.233  11.077  20.323  0.00  0.00    +0.000 A 
ATOM      5  C   UNL     1       0.712  12.039  20.469  0.00  0.00    +0.000 A 
ATOM      6  C   UNL     1       1.441  12.460  19.437  0.00  0.00    +0.000 A 
ATOM      7  O   UNL     1       1.348  13.826  19.485  0.00  0.00    +0.000 OA
ATOM      8  C   UNL     1      -0.079  14.289  20.338  0.00  0.00    +0.000 C 
ATOM      9  C   UNL     1      -0.986  13.977  22.141  0.00  0.00    +0.000 A 
ATOM     10  O   UNL     1      -0.417  14.247  23.411  0.00  0.00    +0.000 OA
ATOM     11  C   UNL     1      -1.443  14.615  24.240  0.00  0.00    +0.000 A 
ATOM     12  C   UNL     1      -1.262  15.392  25.374  0.00  0.00    +0.000 A 
ATOM     13  C   UNL     1      -2.352  16.201  25.700  0.00  0.00    +0.000 A 
ATOM     14  C   UNL     1      -3.593  16.037  25.078  0.00  0.00    +0.000 A 
ATOM     15  C   UNL     1      -3.816  14.988  24.175  0.00  0.00    +0.000 A 
ATOM     16  C   UNL     1      -2.683  14.337  23.679  0.00  0.00    +0.000 A 
ATOM     17  C   UNL     1      -2.349  13.611  22.516  0.00  0.00    +0.000 A 
ATOM     18  C   UNL     1      -3.159  13.044  21.319  0.00  0.00    +0.000 C 
ATOM     19  C   UNL     1      -1.517  12.960  20.071  0.00  0.00    +0.000 C 
ATOM     20  C   UNL     1      -2.437  13.904  20.341  0.00  0.00    +0.000 C 
ATOM     21  C   UNL     1      -1.805  11.881  20.663  0.00  0.00    +0.000 C 
ATOM     22  N   UNL     1      -1.852  15.603  20.628  0.00  0.00    +0.000 NA
ATOM     23  C   UNL     1      -0.379  16.083  21.431  0.00  0.00    +0.000 C 
ATOM     24  C   UNL     1       0.947  14.783  21.560  0.00  0.00    +0.000 C 
ATOM     25  C   UNL     1       0.081  13.173  21.079  0.00  0.00    +0.000 C 
ENDROOT
BRANCH   1  26
ATOM     26  O   UNL     1       2.601  11.836  17.450  0.00  0.00    +0.000 OA
ATOM     27  H   UNL     1       2.200  11.508  16.639  0.00  0.00    +0.000 HD
ENDBRANCH   1  26
BRANCH  19  28
ATOM     28  O   UNL     1      -1.606  12.851  18.578  0.00  0.00    +0.000 OA
ATOM     29  H   UNL     1      -0.728  12.813  18.092  0.00  0.00    +0.000 HD
ENDBRANCH  19  28
BRANCH  22  30
ATOM     30  C   UNL     1      -2.999  16.398  21.126  0.00  0.00    +0.000 C 
BRANCH  30  31
ATOM     31  C   UNL     1      -3.213  17.723  20.460  0.00  0.00    +0.000 C 
ATOM     32  C   UNL     1      -2.699  17.884  19.064  0.00  0.00    +0.000 C 
ATOM     33  C   UNL     1      -4.182  17.910  19.319  0.00  0.00    +0.000 C 
ENDBRANCH  30  31
ENDBRANCH  22  30
TORSDOF 4
ENDMDL
MODEL 6
REMARK VINA RESULT:      -6.2      8.556     11.406
REMARK  Name = 
REMARK  4 active torsions:
REMARK  status: ('A' for Active; 'I' for Inactive)
REMARK    1  A    between atoms: O_1  and  C_2
REMARK    2  A    between atoms: C_20  and  O_21
REMARK    3  A    between atoms: N_24  and  C_25
REMARK    4  A    between atoms: C_25  and  C_26
REMARK                            x       y       z     vdW  Elec       q    Type
REMARK                         _______ _______ _______ _____ _____    ______ ____
ROOT
ATOM      1  C   UNL     1       1.086   8.957  20.815  0.00  0.00    +0.000 A 
ATOM      2  C   UNL     1       1.352   9.083  19.433  0.00  0.00    +0.000 A 
ATOM      3  C   UNL     1       0.889  10.216  18.715  0.00  0.00    +0.000 A 
ATOM      4  C   UNL     1       0.009  11.045  19.370  0.00  0.00    +0.000 A 
ATOM      5  C   UNL     1      -0.536  10.571  20.519  0.00  0.00    +0.000 A 
ATOM      6  C   UNL     1       0.169   9.820  21.363  0.00  0.00    +0.000 A 
ATOM      7  O   UNL     1      -0.025  10.405  22.586  0.00  0.00    +0.000 OA
ATOM      8  C   UNL     1      -0.466  12.062  22.384  0.00  0.00    +0.000 C 
ATOM      9  C   UNL     1      -1.859  13.195  21.412  0.00  0.00    +0.000 A 
ATOM     10  O   UNL     1      -3.265  13.078  21.555  0.00  0.00    +0.000 OA
ATOM     11  C   UNL     1      -3.790  14.333  21.393  0.00  0.00    +0.000 A 
ATOM     12  C   UNL     1      -5.016  14.717  21.914  0.00  0.00    +0.000 A 
ATOM     13  C   UNL     1      -5.103  16.067  22.253  0.00  0.00    +0.000 A 
ATOM     14  C   UNL     1      -4.123  16.982  21.856  0.00  0.00    +0.000 A 
ATOM     15  C   UNL     1      -3.068  16.594  21.019  0.00  0.00    +0.000 A 
ATOM     16  C   UNL     1      -2.853  15.220  20.878  0.00  0.00    +0.000 A 
ATOM     17  C   UNL     1      -1.760  14.383  20.569  0.00  0.00    +0.000 A 
ATOM     18  C   UNL     1      -0.313  14.628  20.062  0.00  0.00    +0.000 C 
ATOM     19  C   UNL     1       0.388  12.820  20.770  0.00  0.00    +0.000 C 
ATOM     20  C   UNL     1       0.285  14.054  21.299  0.00  0.00    +0.000 C 
ATOM     21  C   UNL     1       0.052  12.833  19.552  0.00  0.00    +0.000 C 
ATOM     22  N   UNL     1      -0.379  14.202  22.987  0.00  0.00    +0.000 NA
ATOM     23  C   UNL     1      -1.640  13.234  23.705  0.00  0.00    +0.000 C 
ATOM     24  C   UNL     1      -1.990  11.601  22.885  0.00  0.00    +0.000 C 
ATOM     25  C   UNL     1      -1.071  11.692  21.236  0.00  0.00    +0.000 C 
ENDROOT
BRANCH   1  26
ATOM     26  O   UNL     1       1.782   8.079  21.588  0.00  0.00    +0.000 OA
ATOM     27  H   UNL     1       1.325   7.991  22.430  0.00  0.00    +0.000 HD
ENDBRANCH   1  26
BRANCH  19  28
ATOM     28  O   UNL     1       1.840  12.509  20.976  0.00  0.00    +0.000 OA
ATOM     29  H   UNL     1       2.467  13.289  20.905  0.00  0.00    +0.000 HD
ENDBRANCH  19  28
BRANCH  22  30
ATOM     30  C   UNL     1      -0.610  15.642  23.256  0.00  0.00    +0.000 C 
BRANCH  30  31
ATOM     31  C   UNL     1      -0.957  15.993  24.670  0.00  0.00    +0.000 C 
ATOM     32  C   UNL     1      -1.232  17.432  24.976  0.00  0.00    +0.000 C 
ATOM     33  C   UNL     1      -2.344  16.421  25.082  0.00  0.00    +0.000 C 
ENDBRANCH  30  31
ENDBRANCH  22  30
TORSDOF 4
ENDMDL
MODEL 7
REMARK VINA RESULT:      -6.2      9.125     11.300
REMARK  Name = 
REMARK  4 active torsions:
REMARK  status: ('A' for Active; 'I' for Inactive)
REMARK    1  A    between atoms: O_1  and  C_2
REMARK    2  A    between atoms: C_20  and  O_21
REMARK    3  A    between atoms: N_24  and  C_25
REMARK    4  A    between atoms: C_25  and  C_26
REMARK                            x       y       z     vdW  Elec       q    Type
REMARK                         _______ _______ _______ _____ _____    ______ ____
ROOT
ATOM      1  C   UNL     1      -4.278  16.838  24.864  0.00  0.00    +0.000 A 
ATOM      2  C   UNL     1      -3.166  17.564  25.348  0.00  0.00    +0.000 A 
ATOM      3  C   UNL     1      -1.847  17.124  25.067  0.00  0.00    +0.000 A 
ATOM      4  C   UNL     1      -1.718  15.874  24.507  0.00  0.00    +0.000 A 
ATOM      5  C   UNL     1      -2.821  15.083  24.522  0.00  0.00    +0.000 A 
ATOM      6  C   UNL     1      -4.041  15.588  24.348  0.00  0.00    +0.000 A 
ATOM      7  O   UNL     1      -4.606  14.797  23.383  0.00  0.00    +0.000 OA
ATOM      8  C   UNL     1      -3.371  14.042  22.444  0.00  0.00    +0.000 C 
ATOM      9  C   UNL     1      -1.716  12.872  22.698  0.00  0.00    +0.000 A 
ATOM     10  O   UNL     1      -1.690  11.603  23.330  0.00  0.00    +0.000 OA
ATOM     11  C   UNL     1      -0.720  10.865  22.707  0.00  0.00    +0.000 A 
ATOM     12  C   UNL     1      -0.708   9.478  22.697  0.00  0.00    +0.000 A 
ATOM     13  C   UNL     1      -0.134   8.913  21.558  0.00  0.00    +0.000 A 
ATOM     14  C   UNL     1       0.588   9.687  20.645  0.00  0.00    +0.000 A 
ATOM     15  C   UNL     1       0.846  11.043  20.893  0.00  0.00    +0.000 A 
ATOM     16  C   UNL     1       0.084  11.654  21.892  0.00  0.00    +0.000 A 
ATOM     17  C   UNL     1      -0.349  12.962  22.192  0.00  0.00    +0.000 A 
ATOM     18  C   UNL     1      -0.020  14.371  21.630  0.00  0.00    +0.000 C 
ATOM     19  C   UNL     1      -1.779  15.207  22.314  0.00  0.00    +0.000 C 
ATOM     20  C   UNL     1      -1.421  14.587  21.174  0.00  0.00    +0.000 C 
ATOM     21  C   UNL     1      -0.774  15.367  23.063  0.00  0.00    +0.000 C 
ATOM     22  N   UNL     1      -2.544  13.320  20.507  0.00  0.00    +0.000 NA
ATOM     23  C   UNL     1      -3.508  12.188  21.421  0.00  0.00    +0.000 C 
ATOM     24  C   UNL     1      -3.816  12.624  23.204  0.00  0.00    +0.000 C 
ATOM     25  C   UNL     1      -2.614  14.039  23.561  0.00  0.00    +0.000 C 
ENDROOT
BRANCH   1  26
ATOM     26  O   UNL     1      -5.518  17.397  24.826  0.00  0.00    +0.000 OA
ATOM     27  H   UNL     1      -6.038  17.028  25.546  0.00  0.00    +0.000 HD
ENDBRANCH   1  26
BRANCH  19  28
ATOM     28  O   UNL     1      -2.344  16.499  21.806  0.00  0.00    +0.000 OA
ATOM     29  H   UNL     1      -3.184  16.813  22.257  0.00  0.00    +0.000 HD
ENDBRANCH  19  28
BRANCH  22  30
ATOM     30  C   UNL     1      -1.840  12.629  19.401  0.00  0.00    +0.000 C 
BRANCH  30  31
ATOM     31  C   UNL     1      -2.555  11.455  18.805  0.00  0.00    +0.000 C 
ATOM     32  C   UNL     1      -2.805  11.476  17.330  0.00  0.00    +0.000 C 
ATOM     33  C   UNL     1      -1.865  10.454  17.912  0.00  0.00    +0.000 C 
ENDBRANCH  30  31
ENDBRANCH  22  30
TORSDOF 4
ENDMDL
MODEL 8
REMARK VINA RESULT:      -6.1      6.284      9.660
REMARK  Name = 
REMARK  4 active torsions:
REMARK  status: ('A' for Active; 'I' for Inactive)
REMARK    1  A    between atoms: O_1  and  C_2
REMARK    2  A    between atoms: C_20  and  O_21
REMARK    3  A    between atoms: N_24  and  C_25
REMARK    4  A    between atoms: C_25  and  C_26
REMARK                            x       y       z     vdW  Elec       q    Type
REMARK                         _______ _______ _______ _____ _____    ______ ____
ROOT
ATOM      1  C   UNL     1      -0.463   9.823  22.494  0.00  0.00    +0.000 A 
ATOM      2  C   UNL     1      -0.245   9.085  21.309  0.00  0.00    +0.000 A 
ATOM      3  C   UNL     1      -0.063   9.755  20.072  0.00  0.00    +0.000 A 
ATOM      4  C   UNL     1      -0.323  11.106  20.056  0.00  0.00    +0.000 A 
ATOM      5  C   UNL     1      -0.975  11.613  21.132  0.00  0.00    +0.000 A 
ATOM      6  C   UNL     1      -0.741  11.162  22.363  0.00  0.00    +0.000 A 
ATOM      7  O   UNL     1      -0.524  12.290  23.108  0.00  0.00    +0.000 OA
ATOM      8  C   UNL     1      -0.015  13.583  22.084  0.00  0.00    +0.000 C 
ATOM      9  C   UNL     1      -0.629  14.579  20.410  0.00  0.00    +0.000 A 
ATOM     10  O   UNL     1      -1.868  15.252  20.257  0.00  0.00    +0.000 OA
ATOM     11  C   UNL     1      -1.643  16.321  19.430  0.00  0.00    +0.000 A 
ATOM     12  C   UNL     1      -2.441  17.455  19.419  0.00  0.00    +0.000 A 
ATOM     13  C   UNL     1      -1.770  18.630  19.082  0.00  0.00    +0.000 A 
ATOM     14  C   UNL     1      -0.474  18.604  18.557  0.00  0.00    +0.000 A 
ATOM     15  C   UNL     1       0.160  17.391  18.257  0.00  0.00    +0.000 A 
ATOM     16  C   UNL     1      -0.405  16.236  18.805  0.00  0.00    +0.000 A 
ATOM     17  C   UNL     1       0.048  14.952  19.171  0.00  0.00    +0.000 A 
ATOM     18  C   UNL     1       1.370  14.165  18.962  0.00  0.00    +0.000 C 
ATOM     19  C   UNL     1       1.026  12.893  20.551  0.00  0.00    +0.000 C 
ATOM     20  C   UNL     1       1.631  14.089  20.426  0.00  0.00    +0.000 C 
ATOM     21  C   UNL     1       0.685  12.450  19.417  0.00  0.00    +0.000 C 
ATOM     22  N   UNL     1       1.241  15.370  21.658  0.00  0.00    +0.000 NA
ATOM     23  C   UNL     1      -0.302  15.658  22.419  0.00  0.00    +0.000 C 
ATOM     24  C   UNL     1      -1.519  14.251  22.367  0.00  0.00    +0.000 C 
ATOM     25  C   UNL     1      -0.784  13.035  21.120  0.00  0.00    +0.000 C 
ENDROOT
BRANCH   1  26
ATOM     26  O   UNL     1      -0.308   9.249  23.718  0.00  0.00    +0.000 OA
ATOM     27  H   UNL     1      -0.741   8.390  23.705  0.00  0.00    +0.000 HD
ENDBRANCH   1  26
BRANCH  19  28
ATOM     28  O   UNL     1       2.091  12.067  21.208  0.00  0.00    +0.000 OA
ATOM     29  H   UNL     1       2.686  12.556  21.850  0.00  0.00    +0.000 HD
ENDBRANCH  19  28
BRANCH  22  30
ATOM     30  C   UNL     1       1.836  16.644  21.188  0.00  0.00    +0.000 C 
BRANCH  30  31
ATOM     31  C   UNL     1       3.329  16.665  21.078  0.00  0.00    +0.000 C 
ATOM     32  C   UNL     1       3.919  16.949  19.732  0.00  0.00    +0.000 C 
ATOM     33  C   UNL     1       4.108  17.938  20.851  0.00  0.00    +0.000 C 
ENDBRANCH  30  31
ENDBRANCH  22  30
TORSDOF 4
ENDMDL
MODEL 9
REMARK VINA RESULT:      -6.1      8.378     11.140
REMARK  Name = 
REMARK  4 active torsions:
REMARK  status: ('A' for Active; 'I' for Inactive)
REMARK    1  A    between atoms: O_1  and  C_2
REMARK    2  A    between atoms: C_20  and  O_21
REMARK    3  A    between atoms: N_24  and  C_25
REMARK    4  A    between atoms: C_25  and  C_26
REMARK                            x       y       z     vdW  Elec       q    Type
REMARK                         _______ _______ _______ _____ _____    ______ ____
ROOT
ATOM      1  C   UNL     1       1.084   8.961  20.805  0.00  0.00    +0.000 A 
ATOM      2  C   UNL     1       1.273   9.030  19.406  0.00  0.00    +0.000 A 
ATOM      3  C   UNL     1       0.755  10.126  18.668  0.00  0.00    +0.000 A 
ATOM      4  C   UNL     1      -0.100  10.971  19.334  0.00  0.00    +0.000 A 
ATOM      5  C   UNL     1      -0.574  10.541  20.530  0.00  0.00    +0.000 A 
ATOM      6  C   UNL     1       0.186   9.835  21.366  0.00  0.00    +0.000 A 
ATOM      7  O   UNL     1       0.051  10.469  22.572  0.00  0.00    +0.000 OA
ATOM      8  C   UNL     1      -0.424  12.110  22.325  0.00  0.00    +0.000 C 
ATOM      9  C   UNL     1      -1.884  13.184  21.385  0.00  0.00    +0.000 A 
ATOM     10  O   UNL     1      -3.279  13.056  21.609  0.00  0.00    +0.000 OA
ATOM     11  C   UNL     1      -3.830  14.296  21.424  0.00  0.00    +0.000 A 
ATOM     12  C   UNL     1      -5.032  14.687  21.995  0.00  0.00    +0.000 A 
ATOM     13  C   UNL     1      -5.119  16.050  22.281  0.00  0.00    +0.000 A 
ATOM     14  C   UNL     1      -4.176  16.959  21.794  0.00  0.00    +0.000 A 
ATOM     15  C   UNL     1      -3.162  16.548  20.916  0.00  0.00    +0.000 A 
ATOM     16  C   UNL     1      -2.935  15.173  20.822  0.00  0.00    +0.000 A 
ATOM     17  C   UNL     1      -1.849  14.336  20.488  0.00  0.00    +0.000 A 
ATOM     18  C   UNL     1      -0.436  14.577  19.893  0.00  0.00    +0.000 C 
ATOM     19  C   UNL     1       0.329  12.810  20.636  0.00  0.00    +0.000 C 
ATOM     20  C   UNL     1       0.238  14.063  21.118  0.00  0.00    +0.000 C 
ATOM     21  C   UNL     1      -0.073  12.766  19.439  0.00  0.00    +0.000 C 
ATOM     22  N   UNL     1      -0.336  14.275  22.832  0.00  0.00    +0.000 NA
ATOM     23  C   UNL     1      -1.542  13.324  23.659  0.00  0.00    +0.000 C 
ATOM     24  C   UNL     1      -1.913  11.653  22.928  0.00  0.00    +0.000 C 
ATOM     25  C   UNL     1      -1.085  11.684  21.229  0.00  0.00    +0.000 C 
ENDROOT
BRANCH   1  26
ATOM     26  O   UNL     1       1.833   8.125  21.574  0.00  0.00    +0.000 OA
ATOM     27  H   UNL     1       2.528   7.750  21.024  0.00  0.00    +0.000 HD
ENDBRANCH   1  26
BRANCH  19  28
ATOM     28  O   UNL     1       1.795  12.524  20.775  0.00  0.00    +0.000 OA
ATOM     29  H   UNL     1       2.329  13.220  21.262  0.00  0.00    +0.000 HD
ENDBRANCH  19  28
BRANCH  22  30
ATOM     30  C   UNL     1      -0.572  15.722  23.053  0.00  0.00    +0.000 C 
BRANCH  30  31
ATOM     31  C   UNL     1       0.649  16.589  23.059  0.00  0.00    +0.000 C 
ATOM     32  C   UNL     1       0.751  17.647  22.006  0.00  0.00    +0.000 C 
ATOM     33  C   UNL     1       0.608  18.045  23.451  0.00  0.00    +0.000 C 
ENDBRANCH  30  31
ENDBRANCH  22  30
TORSDOF 4
ENDMDL
