MODEL 1
REMARK VINA RESULT:      -8.0      0.000      0.000
REMARK  Name = 
REMARK  3 active torsions:
REMARK  status: ('A' for Active; 'I' for Inactive)
REMARK    1  A    between atoms: C_2  and  C_12
REMARK    2  A    between atoms: N_3  and  C_4
REMARK    3  A    between atoms: C_4  and  C_5
REMARK                            x       y       z     vdW  Elec       q    Type
REMARK                         _______ _______ _______ _____ _____    ______ ____
ROOT
ATOM      1  O   UNL     1       2.530   8.504  17.099  0.00  0.00    +0.000 OA
ATOM      2  C   UNL     1       2.435   7.876  18.152  0.00  0.00    +0.000 C 
ATOM      3  N   UNL     1       1.765   8.359  19.242  0.00  0.00    +0.000 N 
ATOM      4  H   UNL     1       1.802   7.832  20.111  0.00  0.00    +0.000 HD
ENDROOT
BRANCH   2   5
ATOM      5  C   UNL     1       3.027   6.508  18.305  0.00  0.00    +0.000 C 
ATOM      6  C   UNL     1       2.203   5.530  18.735  0.00  0.00    +0.000 C 
ATOM      7  C   UNL     1       2.657   4.180  18.968  0.00  0.00    +0.000 C 
ATOM      8  C   UNL     1       3.953   3.888  18.815  0.00  0.00    +0.000 C 
ATOM      9  N   UNL     1       4.902   4.820  18.401  0.00  0.00    +0.000 N 
ATOM     10  C   UNL     1       6.296   4.386  18.289  0.00  0.00    +0.000 C 
ATOM     11  C   UNL     1       7.296   5.481  18.073  0.00  0.00    +0.000 C 
ATOM     12  S   UNL     1       6.704   6.676  16.939  0.00  0.00    +0.000 S 
ATOM     13  O   UNL     1       6.625   6.045  15.645  0.00  0.00    +0.000 OA
ATOM     14  O   UNL     1       7.523   7.863  17.131  0.00  0.00    +0.000 OA
ATOM     15  N   UNL     1       5.212   7.010  17.456  0.00  0.00    +0.000 NA
ATOM     16  C   UNL     1       4.479   6.108  18.033  0.00  0.00    +0.000 C 
ENDBRANCH   2   5
BRANCH   3  17
ATOM     17  C   UNL     1       1.118   9.648  19.267  0.00  0.00    +0.000 C 
BRANCH  17  18
ATOM     18  C   UNL     1       0.462   9.913  20.597  0.00  0.00    +0.000 A 
ATOM     19  C   UNL     1       0.200   8.823  21.447  0.00  0.00    +0.000 A 
ATOM     20  C   UNL     1      -0.428   9.008  22.679  0.00  0.00    +0.000 A 
ATOM     21  C   UNL     1      -0.810  10.284  23.080  0.00  0.00    +0.000 A 
ATOM     22  C   UNL     1      -0.567  11.375  22.246  0.00  0.00    +0.000 A 
ATOM     23  C   UNL     1       0.060  11.192  21.010  0.00  0.00    +0.000 A 
ATOM     24 CL   UNL     1       0.307  12.589  20.024  0.00  0.00    +0.000 Cl
ENDBRANCH  17  18
ENDBRANCH   3  17
TORSDOF 3
ENDMDL
MODEL 2
REMARK VINA RESULT:      -8.0      4.665      8.154
REMARK  Name = 
REMARK  3 active torsions:
REMARK  status: ('A' for Active; 'I' for Inactive)
REMARK    1  A    between atoms: C_2  and  C_12
REMARK    2  A    between atoms: N_3  and  C_4
REMARK    3  A    between atoms: C_4  and  C_5
REMARK                            x       y       z     vdW  Elec       q    Type
REMARK                         _______ _______ _______ _____ _____    ______ ____
ROOT
ATOM      1  O   UNL     1       6.759   6.603  17.969  0.00  0.00    +0.000 OA
ATOM      2  C   UNL     1       5.776   6.051  17.479  0.00  0.00    +0.000 C 
ATOM      3  N   UNL     1       5.823   5.373  16.292  0.00  0.00    +0.000 N 
ATOM      4  H   UNL     1       4.956   5.019  15.898  0.00  0.00    +0.000 HD
ENDROOT
BRANCH   2   5
ATOM      5  C   UNL     1       4.448   6.055  18.174  0.00  0.00    +0.000 C 
ATOM      6  C   UNL     1       3.688   7.160  18.035  0.00  0.00    +0.000 C 
ATOM      7  C   UNL     1       2.410   7.311  18.688  0.00  0.00    +0.000 C 
ATOM      8  C   UNL     1       1.979   6.352  19.515  0.00  0.00    +0.000 C 
ATOM      9  N   UNL     1       2.689   5.178  19.758  0.00  0.00    +0.000 N 
ATOM     10  C   UNL     1       2.124   4.210  20.701  0.00  0.00    +0.000 C 
ATOM     11  C   UNL     1       3.037   3.090  21.099  0.00  0.00    +0.000 C 
ATOM     12  S   UNL     1       3.946   2.485  19.731  0.00  0.00    +0.000 S 
ATOM     13  O   UNL     1       3.011   1.844  18.839  0.00  0.00    +0.000 OA
ATOM     14  O   UNL     1       5.067   1.741  20.281  0.00  0.00    +0.000 OA
ATOM     15  N   UNL     1       4.527   3.813  19.020  0.00  0.00    +0.000 NA
ATOM     16  C   UNL     1       3.870   4.931  19.038  0.00  0.00    +0.000 C 
ENDBRANCH   2   5
BRANCH   3  17
ATOM     17  C   UNL     1       7.022   5.250  15.498  0.00  0.00    +0.000 C 
BRANCH  17  18
ATOM     18  C   UNL     1       6.730   4.654  14.145  0.00  0.00    +0.000 A 
ATOM     19  C   UNL     1       5.628   3.789  14.014  0.00  0.00    +0.000 A 
ATOM     20  C   UNL     1       5.327   3.190  12.791  0.00  0.00    +0.000 A 
ATOM     21  C   UNL     1       6.126   3.440  11.679  0.00  0.00    +0.000 A 
ATOM     22  C   UNL     1       7.228   4.287  11.793  0.00  0.00    +0.000 A 
ATOM     23  C   UNL     1       7.533   4.887  13.019  0.00  0.00    +0.000 A 
ATOM     24 CL   UNL     1       8.926   5.907  13.085  0.00  0.00    +0.000 Cl
ENDBRANCH  17  18
ENDBRANCH   3  17
TORSDOF 3
ENDMDL
MODEL 3
REMARK VINA RESULT:      -7.9      1.901      2.266
REMARK  Name = 
REMARK  3 active torsions:
REMARK  status: ('A' for Active; 'I' for Inactive)
REMARK    1  A    between atoms: C_2  and  C_12
REMARK    2  A    between atoms: N_3  and  C_4
REMARK    3  A    between atoms: C_4  and  C_5
REMARK                            x       y       z     vdW  Elec       q    Type
REMARK                         _______ _______ _______ _____ _____    ______ ____
ROOT
ATOM      1  O   UNL     1       2.120   7.692  20.001  0.00  0.00    +0.000 OA
ATOM      2  C   UNL     1       2.283   7.532  18.793  0.00  0.00    +0.000 C 
ATOM      3  N   UNL     1       2.265   8.569  17.902  0.00  0.00    +0.000 N 
ATOM      4  H   UNL     1       2.314   8.359  16.908  0.00  0.00    +0.000 HD
ENDROOT
BRANCH   2   5
ATOM      5  C   UNL     1       2.550   6.177  18.210  0.00  0.00    +0.000 C 
ATOM      6  C   UNL     1       1.559   5.266  18.302  0.00  0.00    +0.000 C 
ATOM      7  C   UNL     1       1.702   3.912  17.823  0.00  0.00    +0.000 C 
ATOM      8  C   UNL     1       2.877   3.515  17.322  0.00  0.00    +0.000 C 
ATOM      9  N   UNL     1       3.979   4.358  17.201  0.00  0.00    +0.000 N 
ATOM     10  C   UNL     1       5.220   3.802  16.656  0.00  0.00    +0.000 C 
ATOM     11  C   UNL     1       6.426   4.683  16.770  0.00  0.00    +0.000 C 
ATOM     12  S   UNL     1       6.038   6.353  16.417  0.00  0.00    +0.000 S 
ATOM     13  O   UNL     1       5.706   6.433  15.016  0.00  0.00    +0.000 OA
ATOM     14  O   UNL     1       7.124   7.150  16.963  0.00  0.00    +0.000 OA
ATOM     15  N   UNL     1       4.713   6.647  17.290  0.00  0.00    +0.000 NA
ATOM     16  C   UNL     1       3.840   5.717  17.529  0.00  0.00    +0.000 C 
ENDBRANCH   2   5
BRANCH   3  17
ATOM     17  C   UNL     1       2.042   9.941  18.288  0.00  0.00    +0.000 C 
BRANCH  17  18
ATOM     18  C   UNL     1       0.574  10.238  18.454  0.00  0.00    +0.000 A 
ATOM     19  C   UNL     1      -0.326   9.738  17.496  0.00  0.00    +0.000 A 
ATOM     20  C   UNL     1      -1.693  10.003  17.587  0.00  0.00    +0.000 A 
ATOM     21  C   UNL     1      -2.182  10.778  18.635  0.00  0.00    +0.000 A 
ATOM     22  C   UNL     1      -1.303  11.290  19.588  0.00  0.00    +0.000 A 
ATOM     23  C   UNL     1       0.068  11.027  19.498  0.00  0.00    +0.000 A 
ATOM     24 CL   UNL     1       1.096  11.714  20.704  0.00  0.00    +0.000 Cl
ENDBRANCH  17  18
ENDBRANCH   3  17
TORSDOF 3
ENDMDL
MODEL 4
REMARK VINA RESULT:      -7.8      4.547      8.072
REMARK  Name = 
REMARK  3 active torsions:
REMARK  status: ('A' for Active; 'I' for Inactive)
REMARK    1  A    between atoms: C_2  and  C_12
REMARK    2  A    between atoms: N_3  and  C_4
REMARK    3  A    between atoms: C_4  and  C_5
REMARK                            x       y       z     vdW  Elec       q    Type
REMARK                         _______ _______ _______ _____ _____    ______ ____
ROOT
ATOM      1  O   UNL     1       5.132   7.047  15.286  0.00  0.00    +0.000 OA
ATOM      2  C   UNL     1       5.127   6.289  16.254  0.00  0.00    +0.000 C 
ATOM      3  N   UNL     1       6.111   5.366  16.476  0.00  0.00    +0.000 N 
ATOM      4  H   UNL     1       5.999   4.708  17.243  0.00  0.00    +0.000 HD
ENDROOT
BRANCH   2   5
ATOM      5  C   UNL     1       4.043   6.347  17.289  0.00  0.00    +0.000 C 
ATOM      6  C   UNL     1       3.574   7.568  17.614  0.00  0.00    +0.000 C 
ATOM      7  C   UNL     1       2.565   7.768  18.627  0.00  0.00    +0.000 C 
ATOM      8  C   UNL     1       2.114   6.716  19.320  0.00  0.00    +0.000 C 
ATOM      9  N   UNL     1       2.544   5.410  19.091  0.00  0.00    +0.000 N 
ATOM     10  C   UNL     1       1.993   4.343  19.929  0.00  0.00    +0.000 C 
ATOM     11  C   UNL     1       2.663   3.009  19.796  0.00  0.00    +0.000 C 
ATOM     12  S   UNL     1       3.043   2.644  18.127  0.00  0.00    +0.000 S 
ATOM     13  O   UNL     1       1.796   2.453  17.430  0.00  0.00    +0.000 OA
ATOM     14  O   UNL     1       4.040   1.585  18.157  0.00  0.00    +0.000 OA
ATOM     15  N   UNL     1       3.754   3.985  17.579  0.00  0.00    +0.000 NA
ATOM     16  C   UNL     1       3.422   5.157  18.024  0.00  0.00    +0.000 C 
ENDBRANCH   2   5
BRANCH   3  17
ATOM     17  C   UNL     1       7.239   5.185  15.595  0.00  0.00    +0.000 C 
BRANCH  17  18
ATOM     18  C   UNL     1       6.818   4.608  14.268  0.00  0.00    +0.000 A 
ATOM     19  C   UNL     1       5.722   3.728  14.235  0.00  0.00    +0.000 A 
ATOM     20  C   UNL     1       5.306   3.145  13.037  0.00  0.00    +0.000 A 
ATOM     21  C   UNL     1       5.982   3.429  11.854  0.00  0.00    +0.000 A 
ATOM     22  C   UNL     1       7.076   4.292  11.870  0.00  0.00    +0.000 A 
ATOM     23  C   UNL     1       7.497   4.875  13.070  0.00  0.00    +0.000 A 
ATOM     24 CL   UNL     1       8.874   5.917  13.013  0.00  0.00    +0.000 Cl
ENDBRANCH  17  18
ENDBRANCH   3  17
TORSDOF 3
ENDMDL
MODEL 5
REMARK VINA RESULT:      -7.7      3.862      7.483
REMARK  Name = 
REMARK  3 active torsions:
REMARK  status: ('A' for Active; 'I' for Inactive)
REMARK    1  A    between atoms: C_2  and  C_12
REMARK    2  A    between atoms: N_3  and  C_4
REMARK    3  A    between atoms: C_4  and  C_5
REMARK                            x       y       z     vdW  Elec       q    Type
REMARK                         _______ _______ _______ _____ _____    ______ ____
ROOT
ATOM      1  O   UNL     1       1.467   8.929  18.711  0.00  0.00    +0.000 OA
ATOM      2  C   UNL     1       1.464   8.571  19.888  0.00  0.00    +0.000 C 
ATOM      3  N   UNL     1       2.125   7.456  20.322  0.00  0.00    +0.000 N 
ATOM      4  H   UNL     1       2.007   7.164  21.289  0.00  0.00    +0.000 HD
ENDROOT
BRANCH   2   5
ATOM      5  C   UNL     1       0.752   9.360  20.946  0.00  0.00    +0.000 C 
ATOM      6  C   UNL     1       0.132   8.659  21.917  0.00  0.00    +0.000 C 
ATOM      7  C   UNL     1      -0.626   9.294  22.969  0.00  0.00    +0.000 C 
ATOM      8  C   UNL     1      -0.778  10.623  22.956  0.00  0.00    +0.000 C 
ATOM      9  N   UNL     1      -0.207  11.448  21.990  0.00  0.00    +0.000 N 
ATOM     10  C   UNL     1      -0.463  12.888  22.070  0.00  0.00    +0.000 C 
ATOM     11  C   UNL     1      -0.024  13.687  20.880  0.00  0.00    +0.000 C 
ATOM     12  S   UNL     1       1.532  13.150  20.284  0.00  0.00    +0.000 S 
ATOM     13  O   UNL     1       2.517  13.483  21.283  0.00  0.00    +0.000 OA
ATOM     14  O   UNL     1       1.651  13.668  18.930  0.00  0.00    +0.000 OA
ATOM     15  N   UNL     1       1.392  11.545  20.196  0.00  0.00    +0.000 NA
ATOM     16  C   UNL     1       0.649  10.884  21.029  0.00  0.00    +0.000 C 
ENDBRANCH   2   5
BRANCH   3  17
ATOM     17  C   UNL     1       2.877   6.590  19.447  0.00  0.00    +0.000 C 
BRANCH  17  18
ATOM     18  C   UNL     1       2.286   5.205  19.397  0.00  0.00    +0.000 A 
ATOM     19  C   UNL     1       1.403   4.813  20.419  0.00  0.00    +0.000 A 
ATOM     20  C   UNL     1       0.847   3.533  20.436  0.00  0.00    +0.000 A 
ATOM     21  C   UNL     1       1.168   2.623  19.435  0.00  0.00    +0.000 A 
ATOM     22  C   UNL     1       2.049   2.991  18.418  0.00  0.00    +0.000 A 
ATOM     23  C   UNL     1       2.610   4.272  18.400  0.00  0.00    +0.000 A 
ATOM     24 CL   UNL     1       3.709   4.646  17.121  0.00  0.00    +0.000 Cl
ENDBRANCH  17  18
ENDBRANCH   3  17
TORSDOF 3
ENDMDL
MODEL 6
REMARK VINA RESULT:      -7.7      3.967      7.747
REMARK  Name = 
REMARK  3 active torsions:
REMARK  status: ('A' for Active; 'I' for Inactive)
REMARK    1  A    between atoms: C_2  and  C_12
REMARK    2  A    between atoms: N_3  and  C_4
REMARK    3  A    between atoms: C_4  and  C_5
REMARK                            x       y       z     vdW  Elec       q    Type
REMARK                         _______ _______ _______ _____ _____    ______ ____
ROOT
ATOM      1  O   UNL     1       1.479   8.958  18.758  0.00  0.00    +0.000 OA
ATOM      2  C   UNL     1       1.410   8.578  19.925  0.00  0.00    +0.000 C 
ATOM      3  N   UNL     1       2.040   7.449  20.372  0.00  0.00    +0.000 N 
ATOM      4  H   UNL     1       1.868   7.139  21.326  0.00  0.00    +0.000 HD
ENDROOT
BRANCH   2   5
ATOM      5  C   UNL     1       0.648   9.351  20.959  0.00  0.00    +0.000 C 
ATOM      6  C   UNL     1       0.682   8.881  22.222  0.00  0.00    +0.000 C 
ATOM      7  C   UNL     1      -0.044   9.505  23.302  0.00  0.00    +0.000 C 
ATOM      8  C   UNL     1      -0.833  10.553  23.042  0.00  0.00    +0.000 C 
ATOM      9  N   UNL     1      -0.968  11.111  21.773  0.00  0.00    +0.000 N 
ATOM     10  C   UNL     1      -1.879  12.246  21.609  0.00  0.00    +0.000 C 
ATOM     11  C   UNL     1      -2.160  12.646  20.192  0.00  0.00    +0.000 C 
ATOM     12  S   UNL     1      -0.713  12.592  19.209  0.00  0.00    +0.000 S 
ATOM     13  O   UNL     1       0.166  13.635  19.675  0.00  0.00    +0.000 OA
ATOM     14  O   UNL     1      -1.159  12.568  17.825  0.00  0.00    +0.000 OA
ATOM     15  N   UNL     1      -0.055  11.157  19.548  0.00  0.00    +0.000 NA
ATOM     16  C   UNL     1      -0.175  10.620  20.723  0.00  0.00    +0.000 C 
ENDBRANCH   2   5
BRANCH   3  17
ATOM     17  C   UNL     1       2.832   6.595  19.522  0.00  0.00    +0.000 C 
BRANCH  17  18
ATOM     18  C   UNL     1       2.279   5.193  19.477  0.00  0.00    +0.000 A 
ATOM     19  C   UNL     1       1.421   4.775  20.509  0.00  0.00    +0.000 A 
ATOM     20  C   UNL     1       0.901   3.480  20.531  0.00  0.00    +0.000 A 
ATOM     21  C   UNL     1       1.235   2.581  19.523  0.00  0.00    +0.000 A 
ATOM     22  C   UNL     1       2.092   2.975  18.496  0.00  0.00    +0.000 A 
ATOM     23  C   UNL     1       2.616   4.272  18.474  0.00  0.00    +0.000 A 
ATOM     24 CL   UNL     1       3.688   4.679  17.182  0.00  0.00    +0.000 Cl
ENDBRANCH  17  18
ENDBRANCH   3  17
TORSDOF 3
ENDMDL
MODEL 7
REMARK VINA RESULT:      -7.6      2.051      2.653
REMARK  Name = 
REMARK  3 active torsions:
REMARK  status: ('A' for Active; 'I' for Inactive)
REMARK    1  A    between atoms: C_2  and  C_12
REMARK    2  A    between atoms: N_3  and  C_4
REMARK    3  A    between atoms: C_4  and  C_5
REMARK                            x       y       z     vdW  Elec       q    Type
REMARK                         _______ _______ _______ _____ _____    ______ ____
ROOT
ATOM      1  O   UNL     1       2.194   5.065  21.252  0.00  0.00    +0.000 OA
ATOM      2  C   UNL     1       2.371   5.501  20.116  0.00  0.00    +0.000 C 
ATOM      3  N   UNL     1       2.255   6.829  19.808  0.00  0.00    +0.000 N 
ATOM      4  H   UNL     1       2.322   7.111  18.834  0.00  0.00    +0.000 HD
ENDROOT
BRANCH   2   5
ATOM      5  C   UNL     1       2.763   4.602  18.983  0.00  0.00    +0.000 C 
ATOM      6  C   UNL     1       2.015   3.496  18.794  0.00  0.00    +0.000 C 
ATOM      7  C   UNL     1       2.311   2.524  17.769  0.00  0.00    +0.000 C 
ATOM      8  C   UNL     1       3.402   2.683  17.011  0.00  0.00    +0.000 C 
ATOM      9  N   UNL     1       4.263   3.771  17.131  0.00  0.00    +0.000 N 
ATOM     10  C   UNL     1       5.437   3.825  16.257  0.00  0.00    +0.000 C 
ATOM     11  C   UNL     1       6.442   4.884  16.594  0.00  0.00    +0.000 C 
ATOM     12  S   UNL     1       5.666   6.389  17.037  0.00  0.00    +0.000 S 
ATOM     13  O   UNL     1       5.025   6.910  15.855  0.00  0.00    +0.000 OA
ATOM     14  O   UNL     1       6.669   7.176  17.738  0.00  0.00    +0.000 OA
ATOM     15  N   UNL     1       4.535   5.955  18.102  0.00  0.00    +0.000 NA
ATOM     16  C   UNL     1       3.936   4.807  18.022  0.00  0.00    +0.000 C 
ENDBRANCH   2   5
BRANCH   3  17
ATOM     17  C   UNL     1       1.905   7.839  20.777  0.00  0.00    +0.000 C 
BRANCH  17  18
ATOM     18  C   UNL     1       1.051   8.920  20.166  0.00  0.00    +0.000 A 
ATOM     19  C   UNL     1       1.289   9.290  18.830  0.00  0.00    +0.000 A 
ATOM     20  C   UNL     1       0.545  10.302  18.222  0.00  0.00    +0.000 A 
ATOM     21  C   UNL     1      -0.445  10.964  18.942  0.00  0.00    +0.000 A 
ATOM     22  C   UNL     1      -0.689  10.616  20.270  0.00  0.00    +0.000 A 
ATOM     23  C   UNL     1       0.057   9.604  20.882  0.00  0.00    +0.000 A 
ATOM     24 CL   UNL     1      -0.288   9.245  22.536  0.00  0.00    +0.000 Cl
ENDBRANCH  17  18
ENDBRANCH   3  17
TORSDOF 3
ENDMDL
MODEL 8
REMARK VINA RESULT:      -7.5      2.495      3.442
REMARK  Name = 
REMARK  3 active torsions:
REMARK  status: ('A' for Active; 'I' for Inactive)
REMARK    1  A    between atoms: C_2  and  C_12
REMARK    2  A    between atoms: N_3  and  C_4
REMARK    3  A    between atoms: C_4  and  C_5
REMARK                            x       y       z     vdW  Elec       q    Type
REMARK                         _______ _______ _______ _____ _____    ______ ____
ROOT
ATOM      1  O   UNL     1       2.805   8.233  16.867  0.00  0.00    +0.000 OA
ATOM      2  C   UNL     1       2.887   7.712  17.977  0.00  0.00    +0.000 C 
ATOM      3  N   UNL     1       2.125   8.113  19.040  0.00  0.00    +0.000 N 
ATOM      4  H   UNL     1       2.307   7.704  19.953  0.00  0.00    +0.000 HD
ENDROOT
BRANCH   2   5
ATOM      5  C   UNL     1       3.816   6.564  18.238  0.00  0.00    +0.000 C 
ATOM      6  C   UNL     1       5.088   6.699  17.814  0.00  0.00    +0.000 C 
ATOM      7  C   UNL     1       6.071   5.652  17.961  0.00  0.00    +0.000 C 
ATOM      8  C   UNL     1       5.703   4.476  18.481  0.00  0.00    +0.000 C 
ATOM      9  N   UNL     1       4.411   4.211  18.930  0.00  0.00    +0.000 N 
ATOM     10  C   UNL     1       4.123   2.877  19.461  0.00  0.00    +0.000 C 
ATOM     11  C   UNL     1       2.674   2.579  19.704  0.00  0.00    +0.000 C 
ATOM     12  S   UNL     1       1.846   3.951  20.408  0.00  0.00    +0.000 S 
ATOM     13  O   UNL     1       2.369   4.138  21.738  0.00  0.00    +0.000 OA
ATOM     14  O   UNL     1       0.425   3.721  20.201  0.00  0.00    +0.000 OA
ATOM     15  N   UNL     1       2.290   5.200  19.487  0.00  0.00    +0.000 NA
ATOM     16  C   UNL     1       3.461   5.246  18.930  0.00  0.00    +0.000 C 
ENDBRANCH   2   5
BRANCH   3  17
ATOM     17  C   UNL     1       1.165   9.188  18.965  0.00  0.00    +0.000 C 
BRANCH  17  18
ATOM     18  C   UNL     1       0.626   9.544  20.327  0.00  0.00    +0.000 A 
ATOM     19  C   UNL     1       0.727   8.594  21.359  0.00  0.00    +0.000 A 
ATOM     20  C   UNL     1       0.222   8.862  22.632  0.00  0.00    +0.000 A 
ATOM     21  C   UNL     1      -0.397  10.081  22.892  0.00  0.00    +0.000 A 
ATOM     22  C   UNL     1      -0.514  11.030  21.878  0.00  0.00    +0.000 A 
ATOM     23  C   UNL     1      -0.011  10.763  20.601  0.00  0.00    +0.000 A 
ATOM     24 CL   UNL     1      -0.213  11.980  19.391  0.00  0.00    +0.000 Cl
ENDBRANCH  17  18
ENDBRANCH   3  17
TORSDOF 3
ENDMDL
MODEL 9
REMARK VINA RESULT:      -7.5      2.064      2.570
REMARK  Name = 
REMARK  3 active torsions:
REMARK  status: ('A' for Active; 'I' for Inactive)
REMARK    1  A    between atoms: C_2  and  C_12
REMARK    2  A    between atoms: N_3  and  C_4
REMARK    3  A    between atoms: C_4  and  C_5
REMARK                            x       y       z     vdW  Elec       q    Type
REMARK                         _______ _______ _______ _____ _____    ______ ____
ROOT
ATOM      1  O   UNL     1       1.667   8.558  20.857  0.00  0.00    +0.000 OA
ATOM      2  C   UNL     1       1.912   7.918  19.836  0.00  0.00    +0.000 C 
ATOM      3  N   UNL     1       1.956   8.493  18.596  0.00  0.00    +0.000 N 
ATOM      4  H   UNL     1       2.072   7.893  17.783  0.00  0.00    +0.000 HD
ENDROOT
BRANCH   2   5
ATOM      5  C   UNL     1       2.214   6.450  19.884  0.00  0.00    +0.000 C 
ATOM      6  C   UNL     1       1.370   5.676  20.596  0.00  0.00    +0.000 C 
ATOM      7  C   UNL     1       1.572   4.256  20.760  0.00  0.00    +0.000 C 
ATOM      8  C   UNL     1       2.665   3.685  20.244  0.00  0.00    +0.000 C 
ATOM      9  N   UNL     1       3.620   4.388  19.511  0.00  0.00    +0.000 N 
ATOM     10  C   UNL     1       4.787   3.656  19.013  0.00  0.00    +0.000 C 
ATOM     11  C   UNL     1       5.884   4.504  18.444  0.00  0.00    +0.000 C 
ATOM     12  S   UNL     1       5.246   5.813  17.473  0.00  0.00    +0.000 S 
ATOM     13  O   UNL     1       4.643   5.228  16.301  0.00  0.00    +0.000 OA
ATOM     14  O   UNL     1       6.319   6.785  17.342  0.00  0.00    +0.000 OA
ATOM     15  N   UNL     1       4.090   6.464  18.392  0.00  0.00    +0.000 NA
ATOM     16  C   UNL     1       3.392   5.741  19.213  0.00  0.00    +0.000 C 
ENDBRANCH   2   5
BRANCH   3  17
ATOM     17  C   UNL     1       1.712   9.896  18.365  0.00  0.00    +0.000 C 
BRANCH  17  18
ATOM     18  C   UNL     1       0.240  10.217  18.420  0.00  0.00    +0.000 A 
ATOM     19  C   UNL     1      -0.610   9.646  17.456  0.00  0.00    +0.000 A 
ATOM     20  C   UNL     1      -1.976   9.929  17.445  0.00  0.00    +0.000 A 
ATOM     21  C   UNL     1      -2.514  10.793  18.394  0.00  0.00    +0.000 A 
ATOM     22  C   UNL     1      -1.685  11.376  19.352  0.00  0.00    +0.000 A 
ATOM     23  C   UNL     1      -0.315  11.095  19.363  0.00  0.00    +0.000 A 
ATOM     24 CL   UNL     1       0.651  11.872  20.567  0.00  0.00    +0.000 Cl
ENDBRANCH  17  18
ENDBRANCH   3  17
TORSDOF 3
ENDMDL
