MODEL 1
REMARK VINA RESULT:      -8.5      0.000      0.000
REMARK  Name = 
REMARK  9 active torsions:
REMARK  status: ('A' for Active; 'I' for Inactive)
REMARK    1  A    between atoms: C_1  and  C_2
REMARK    2  A    between atoms: C_2  and  O_5
REMARK    3  A    between atoms: O_5  and  C_6
REMARK    4  A    between atoms: C_9  and  N_10
REMARK    5  A    between atoms: C_11  and  C_13
REMARK    6  A    between atoms: C_16  and  N_17
REMARK    7  A    between atoms: C_20  and  O_21
REMARK    8  A    between atoms: C_23  and  C_24
REMARK    9  A    between atoms: C_28  and  C_29
REMARK                            x       y       z     vdW  Elec       q    Type
REMARK                         _______ _______ _______ _____ _____    ______ ____
ROOT
ATOM      1  C   UNL     1       2.372   7.973  18.320  0.00  0.00    +0.000 A 
ATOM      2  C   UNL     1       3.429   8.415  17.549  0.00  0.00    +0.000 A 
ATOM      3  N   UNL     1       4.339   7.589  16.976  0.00  0.00    +0.000 NA
ATOM      4  C   UNL     1       4.234   6.247  17.171  0.00  0.00    +0.000 A 
ATOM      5  C   UNL     1       3.211   5.701  17.993  0.00  0.00    +0.000 A 
ATOM      6  C   UNL     1       2.283   6.601  18.551  0.00  0.00    +0.000 A 
ENDROOT
BRANCH   5   7
ATOM      7  C   UNL     1       3.119   4.269  18.363  0.00  0.00    +0.000 A 
ATOM      8  C   UNL     1       2.263   3.378  17.710  0.00  0.00    +0.000 A 
ATOM      9  N   UNL     1       2.167   2.053  17.984  0.00  0.00    +0.000 NA
ATOM     10  C   UNL     1       2.982   1.567  18.947  0.00  0.00    +0.000 A 
ATOM     11  C   UNL     1       3.865   2.349  19.666  0.00  0.00    +0.000 A 
ATOM     12  C   UNL     1       3.893   3.717  19.396  0.00  0.00    +0.000 A 
BRANCH  11  13
ATOM     13  C   UNL     1       4.745   1.771  20.631  0.00  0.00    +0.000 C 
ATOM     14  N   UNL     1       5.462   1.285  21.404  0.00  0.00    +0.000 NA
ENDBRANCH  11  13
ENDBRANCH   5   7
BRANCH   4  15
ATOM     15  N   UNL     1       5.206   5.438  16.602  0.00  0.00    +0.000 N 
ATOM     16  C   UNL     1       6.431   5.139  17.345  0.00  0.00    +0.000 C 
ATOM     17  C   UNL     1       7.444   4.688  16.279  0.00  0.00    +0.000 C 
ATOM     18  C   UNL     1       6.624   4.518  15.006  0.00  0.00    +0.000 C 
ATOM     19  C   UNL     1       5.518   5.569  15.174  0.00  0.00    +0.000 C 
BRANCH  18  20
ATOM     20  O   UNL     1       6.077   3.198  14.954  0.00  0.00    +0.000 OA
ATOM     21  H   UNL     1       5.269   3.245  14.412  0.00  0.00    +0.000 HD
ENDBRANCH  18  20
ENDBRANCH   4  15
BRANCH   1  23
ATOM     22  N   UNL     1       1.477   8.982  20.351  0.00  0.00    +0.000 N 
ATOM     23  C   UNL     1       1.385   8.864  18.974  0.00  0.00    +0.000 C 
ATOM     24  O   UNL     1       0.600   9.452  18.242  0.00  0.00    +0.000 OA
ATOM     25  H   UNL     1       2.212   8.479  20.828  0.00  0.00    +0.000 HD
BRANCH  22  29
ATOM     26  C   UNL     1      -0.832  11.587  22.760  0.00  0.00    +0.000 A 
ATOM     27  C   UNL     1      -0.830  10.221  23.029  0.00  0.00    +0.000 A 
ATOM     28  C   UNL     1      -0.074   9.340  22.253  0.00  0.00    +0.000 A 
ATOM     29  C   UNL     1       0.679   9.809  21.176  0.00  0.00    +0.000 A 
ATOM     30  C   UNL     1       0.646  11.180  20.885  0.00  0.00    +0.000 A 
ATOM     31  C   UNL     1      -0.113  12.063  21.667  0.00  0.00    +0.000 A 
BRANCH  26  32
ATOM     32  O   UNL     1      -1.574  12.334  23.625  0.00  0.00    +0.000 OA
BRANCH  32  34
ATOM     33  C   UNL     1      -3.355  13.933  23.575  0.00  0.00    +0.000 C 
ATOM     34  C   UNL     1      -2.962  12.492  23.351  0.00  0.00    +0.000 C 
ATOM     35  F   UNL     1      -3.669  11.679  24.170  0.00  0.00    +0.000 F 
ATOM     36  F   UNL     1      -3.253  12.154  22.070  0.00  0.00    +0.000 F 
ENDBRANCH  32  34
ENDBRANCH  26  32
ENDBRANCH  22  29
ENDBRANCH   1  23
TORSDOF 8
ENDMDL
MODEL 2
REMARK VINA RESULT:      -8.4      3.093      4.789
REMARK  Name = 
REMARK  9 active torsions:
REMARK  status: ('A' for Active; 'I' for Inactive)
REMARK    1  A    between atoms: C_1  and  C_2
REMARK    2  A    between atoms: C_2  and  O_5
REMARK    3  A    between atoms: O_5  and  C_6
REMARK    4  A    between atoms: C_9  and  N_10
REMARK    5  A    between atoms: C_11  and  C_13
REMARK    6  A    between atoms: C_16  and  N_17
REMARK    7  A    between atoms: C_20  and  O_21
REMARK    8  A    between atoms: C_23  and  C_24
REMARK    9  A    between atoms: C_28  and  C_29
REMARK                            x       y       z     vdW  Elec       q    Type
REMARK                         _______ _______ _______ _____ _____    ______ ____
ROOT
ATOM      1  C   UNL     1       2.390   7.842  18.449  0.00  0.00    +0.000 A 
ATOM      2  C   UNL     1       1.705   6.914  19.207  0.00  0.00    +0.000 A 
ATOM      3  N   UNL     1       2.107   5.628  19.366  0.00  0.00    +0.000 NA
ATOM      4  C   UNL     1       3.238   5.203  18.740  0.00  0.00    +0.000 A 
ATOM      5  C   UNL     1       3.981   6.072  17.896  0.00  0.00    +0.000 A 
ATOM      6  C   UNL     1       3.530   7.400  17.777  0.00  0.00    +0.000 A 
ENDROOT
BRANCH   5   7
ATOM      7  C   UNL     1       5.137   5.642  17.074  0.00  0.00    +0.000 A 
ATOM      8  C   UNL     1       6.454   5.707  17.537  0.00  0.00    +0.000 A 
ATOM      9  N   UNL     1       7.543   5.294  16.842  0.00  0.00    +0.000 NA
ATOM     10  C   UNL     1       7.321   4.760  15.620  0.00  0.00    +0.000 A 
ATOM     11  C   UNL     1       6.066   4.648  15.052  0.00  0.00    +0.000 A 
ATOM     12  C   UNL     1       4.978   5.138  15.773  0.00  0.00    +0.000 A 
BRANCH  11  13
ATOM     13  C   UNL     1       5.886   4.021  13.782  0.00  0.00    +0.000 C 
ATOM     14  N   UNL     1       5.758   3.509  12.747  0.00  0.00    +0.000 NA
ENDBRANCH  11  13
ENDBRANCH   5   7
BRANCH   4  15
ATOM     15  N   UNL     1       3.595   3.873  18.894  0.00  0.00    +0.000 N 
ATOM     16  C   UNL     1       3.346   2.921  17.810  0.00  0.00    +0.000 C 
ATOM     17  C   UNL     1       3.375   1.537  18.480  0.00  0.00    +0.000 C 
ATOM     18  C   UNL     1       3.902   1.793  19.887  0.00  0.00    +0.000 C 
ATOM     19  C   UNL     1       3.390   3.208  20.187  0.00  0.00    +0.000 C 
BRANCH  18  20
ATOM     20  O   UNL     1       5.331   1.751  19.884  0.00  0.00    +0.000 OA
ATOM     21  H   UNL     1       5.634   2.419  19.244  0.00  0.00    +0.000 HD
ENDBRANCH  18  20
ENDBRANCH   4  15
BRANCH   1  23
ATOM     22  N   UNL     1       1.184   9.801  19.255  0.00  0.00    +0.000 N 
ATOM     23  C   UNL     1       1.950   9.242  18.245  0.00  0.00    +0.000 C 
ATOM     24  O   UNL     1       2.332   9.800  17.225  0.00  0.00    +0.000 OA
ATOM     25  H   UNL     1       0.985   9.242  20.072  0.00  0.00    +0.000 HD
BRANCH  22  29
ATOM     26  C   UNL     1      -0.203  13.791  19.537  0.00  0.00    +0.000 A 
ATOM     27  C   UNL     1      -0.724  12.948  18.558  0.00  0.00    +0.000 A 
ATOM     28  C   UNL     1      -0.288  11.627  18.447  0.00  0.00    +0.000 A 
ATOM     29  C   UNL     1       0.698  11.129  19.300  0.00  0.00    +0.000 A 
ATOM     30  C   UNL     1       1.246  11.991  20.260  0.00  0.00    +0.000 A 
ATOM     31  C   UNL     1       0.805  13.318  20.372  0.00  0.00    +0.000 A 
BRANCH  26  32
ATOM     32  O   UNL     1      -0.754  15.037  19.564  0.00  0.00    +0.000 OA
BRANCH  32  34
ATOM     33  C   UNL     1       0.232  17.189  19.920  0.00  0.00    +0.000 C 
ATOM     34  C   UNL     1      -0.049  16.094  18.920  0.00  0.00    +0.000 C 
ATOM     35  F   UNL     1      -0.802  16.568  17.900  0.00  0.00    +0.000 F 
ATOM     36  F   UNL     1       1.128  15.658  18.406  0.00  0.00    +0.000 F 
ENDBRANCH  32  34
ENDBRANCH  26  32
ENDBRANCH  22  29
ENDBRANCH   1  23
TORSDOF 8
ENDMDL
MODEL 3
REMARK VINA RESULT:      -8.3      3.233      3.524
REMARK  Name = 
REMARK  9 active torsions:
REMARK  status: ('A' for Active; 'I' for Inactive)
REMARK    1  A    between atoms: C_1  and  C_2
REMARK    2  A    between atoms: C_2  and  O_5
REMARK    3  A    between atoms: O_5  and  C_6
REMARK    4  A    between atoms: C_9  and  N_10
REMARK    5  A    between atoms: C_11  and  C_13
REMARK    6  A    between atoms: C_16  and  N_17
REMARK    7  A    between atoms: C_20  and  O_21
REMARK    8  A    between atoms: C_23  and  C_24
REMARK    9  A    between atoms: C_28  and  C_29
REMARK                            x       y       z     vdW  Elec       q    Type
REMARK                         _______ _______ _______ _____ _____    ______ ____
ROOT
ATOM      1  C   UNL     1       1.932   8.552  17.887  0.00  0.00    +0.000 A 
ATOM      2  C   UNL     1       3.234   8.873  17.556  0.00  0.00    +0.000 A 
ATOM      3  N   UNL     1       4.216   7.952  17.388  0.00  0.00    +0.000 NA
ATOM      4  C   UNL     1       3.929   6.635  17.565  0.00  0.00    +0.000 A 
ATOM      5  C   UNL     1       2.630   6.211  17.959  0.00  0.00    +0.000 A 
ATOM      6  C   UNL     1       1.644   7.205  18.105  0.00  0.00    +0.000 A 
ENDROOT
BRANCH   5   7
ATOM      7  C   UNL     1       2.283   4.813  18.306  0.00  0.00    +0.000 A 
ATOM      8  C   UNL     1       2.272   3.785  17.361  0.00  0.00    +0.000 A 
ATOM      9  N   UNL     1       1.998   2.484  17.631  0.00  0.00    +0.000 NA
ATOM     10  C   UNL     1       1.738   2.169  18.920  0.00  0.00    +0.000 A 
ATOM     11  C   UNL     1       1.713   3.099  19.942  0.00  0.00    +0.000 A 
ATOM     12  C   UNL     1       1.943   4.435  19.615  0.00  0.00    +0.000 A 
BRANCH  11  13
ATOM     13  C   UNL     1       1.493   2.700  21.296  0.00  0.00    +0.000 C 
ATOM     14  N   UNL     1       1.317   2.394  22.402  0.00  0.00    +0.000 NA
ENDBRANCH  11  13
ENDBRANCH   5   7
BRANCH   4  15
ATOM     15  N   UNL     1       4.967   5.727  17.423  0.00  0.00    +0.000 N 
ATOM     16  C   UNL     1       5.813   5.403  18.574  0.00  0.00    +0.000 C 
ATOM     17  C   UNL     1       7.099   4.813  17.968  0.00  0.00    +0.000 C 
ATOM     18  C   UNL     1       6.780   4.608  16.492  0.00  0.00    +0.000 C 
ATOM     19  C   UNL     1       5.782   5.737  16.202  0.00  0.00    +0.000 C 
BRANCH  18  20
ATOM     20  O   UNL     1       6.178   3.325  16.301  0.00  0.00    +0.000 OA
ATOM     21  H   UNL     1       5.966   3.248  15.354  0.00  0.00    +0.000 HD
ENDBRANCH  18  20
ENDBRANCH   4  15
BRANCH   1  23
ATOM     22  N   UNL     1      -0.356   9.289  17.479  0.00  0.00    +0.000 N 
ATOM     23  C   UNL     1       0.855   9.548  18.100  0.00  0.00    +0.000 C 
ATOM     24  O   UNL     1       1.111  10.491  18.836  0.00  0.00    +0.000 OA
ATOM     25  H   UNL     1      -0.447   8.439  16.940  0.00  0.00    +0.000 HD
BRANCH  22  29
ATOM     26  C   UNL     1      -3.897  11.605  17.623  0.00  0.00    +0.000 A 
ATOM     27  C   UNL     1      -3.039  11.587  18.721  0.00  0.00    +0.000 A 
ATOM     28  C   UNL     1      -1.863  10.836  18.697  0.00  0.00    +0.000 A 
ATOM     29  C   UNL     1      -1.532  10.067  17.581  0.00  0.00    +0.000 A 
ATOM     30  C   UNL     1      -2.416  10.058  16.492  0.00  0.00    +0.000 A 
ATOM     31  C   UNL     1      -3.596  10.815  16.517  0.00  0.00    +0.000 A 
BRANCH  26  32
ATOM     32  O   UNL     1      -4.981  12.418  17.764  0.00  0.00    +0.000 OA
BRANCH  32  34
ATOM     33  C   UNL     1      -7.365  12.580  17.914  0.00  0.00    +0.000 C 
ATOM     34  C   UNL     1      -6.122  11.900  18.438  0.00  0.00    +0.000 C 
ATOM     35  F   UNL     1      -5.988  12.121  19.766  0.00  0.00    +0.000 F 
ATOM     36  F   UNL     1      -6.243  10.562  18.246  0.00  0.00    +0.000 F 
ENDBRANCH  32  34
ENDBRANCH  26  32
ENDBRANCH  22  29
ENDBRANCH   1  23
TORSDOF 8
ENDMDL
MODEL 4
REMARK VINA RESULT:      -8.2      3.220      3.532
REMARK  Name = 
REMARK  9 active torsions:
REMARK  status: ('A' for Active; 'I' for Inactive)
REMARK    1  A    between atoms: C_1  and  C_2
REMARK    2  A    between atoms: C_2  and  O_5
REMARK    3  A    between atoms: O_5  and  C_6
REMARK    4  A    between atoms: C_9  and  N_10
REMARK    5  A    between atoms: C_11  and  C_13
REMARK    6  A    between atoms: C_16  and  N_17
REMARK    7  A    between atoms: C_20  and  O_21
REMARK    8  A    between atoms: C_23  and  C_24
REMARK    9  A    between atoms: C_28  and  C_29
REMARK                            x       y       z     vdW  Elec       q    Type
REMARK                         _______ _______ _______ _____ _____    ______ ____
ROOT
ATOM      1  C   UNL     1       1.875   8.517  17.904  0.00  0.00    +0.000 A 
ATOM      2  C   UNL     1       3.170   8.847  17.555  0.00  0.00    +0.000 A 
ATOM      3  N   UNL     1       4.157   7.933  17.376  0.00  0.00    +0.000 NA
ATOM      4  C   UNL     1       3.882   6.613  17.560  0.00  0.00    +0.000 A 
ATOM      5  C   UNL     1       2.592   6.181  17.971  0.00  0.00    +0.000 A 
ATOM      6  C   UNL     1       1.600   7.168  18.128  0.00  0.00    +0.000 A 
ENDROOT
BRANCH   5   7
ATOM      7  C   UNL     1       2.259   4.781  18.326  0.00  0.00    +0.000 A 
ATOM      8  C   UNL     1       2.274   3.745  17.389  0.00  0.00    +0.000 A 
ATOM      9  N   UNL     1       2.015   2.443  17.666  0.00  0.00    +0.000 NA
ATOM     10  C   UNL     1       1.744   2.135  18.955  0.00  0.00    +0.000 A 
ATOM     11  C   UNL     1       1.693   3.073  19.969  0.00  0.00    +0.000 A 
ATOM     12  C   UNL     1       1.908   4.409  19.633  0.00  0.00    +0.000 A 
BRANCH  11  13
ATOM     13  C   UNL     1       1.462   2.682  21.323  0.00  0.00    +0.000 C 
ATOM     14  N   UNL     1       1.278   2.346  22.419  0.00  0.00    +0.000 NA
ENDBRANCH  11  13
ENDBRANCH   5   7
BRANCH   4  15
ATOM     15  N   UNL     1       4.925   5.713  17.406  0.00  0.00    +0.000 N 
ATOM     16  C   UNL     1       5.793   5.403  18.544  0.00  0.00    +0.000 C 
ATOM     17  C   UNL     1       7.073   4.820  17.921  0.00  0.00    +0.000 C 
ATOM     18  C   UNL     1       6.731   4.603  16.452  0.00  0.00    +0.000 C 
ATOM     19  C   UNL     1       5.719   5.722  16.171  0.00  0.00    +0.000 C 
BRANCH  18  20
ATOM     20  O   UNL     1       6.136   3.314  16.278  0.00  0.00    +0.000 OA
ATOM     21  H   UNL     1       6.658   2.686  16.810  0.00  0.00    +0.000 HD
ENDBRANCH  18  20
ENDBRANCH   4  15
BRANCH   1  23
ATOM     22  N   UNL     1      -0.379   9.308  17.418  0.00  0.00    +0.000 N 
ATOM     23  C   UNL     1       0.794   9.505  18.129  0.00  0.00    +0.000 C 
ATOM     24  O   UNL     1       1.011  10.385  18.951  0.00  0.00    +0.000 OA
ATOM     25  H   UNL     1      -0.443   8.504  16.810  0.00  0.00    +0.000 HD
BRANCH  22  29
ATOM     26  C   UNL     1      -3.874  11.657  17.853  0.00  0.00    +0.000 A 
ATOM     27  C   UNL     1      -3.655  10.961  16.667  0.00  0.00    +0.000 A 
ATOM     28  C   UNL     1      -2.513  10.175  16.500  0.00  0.00    +0.000 A 
ATOM     29  C   UNL     1      -1.554  10.089  17.510  0.00  0.00    +0.000 A 
ATOM     30  C   UNL     1      -1.761  10.820  18.688  0.00  0.00    +0.000 A 
ATOM     31  C   UNL     1      -2.910  11.607  18.856  0.00  0.00    +0.000 A 
BRANCH  26  32
ATOM     32  O   UNL     1      -5.050  12.342  17.899  0.00  0.00    +0.000 OA
BRANCH  32  34
ATOM     33  C   UNL     1      -6.591  12.284  19.730  0.00  0.00    +0.000 C 
ATOM     34  C   UNL     1      -6.197  11.670  18.408  0.00  0.00    +0.000 C 
ATOM     35  F   UNL     1      -5.906  10.358  18.565  0.00  0.00    +0.000 F 
ATOM     36  F   UNL     1      -7.245  11.768  17.551  0.00  0.00    +0.000 F 
ENDBRANCH  32  34
ENDBRANCH  26  32
ENDBRANCH  22  29
ENDBRANCH   1  23
TORSDOF 8
ENDMDL
MODEL 5
REMARK VINA RESULT:      -8.2      0.722      1.252
REMARK  Name = 
REMARK  9 active torsions:
REMARK  status: ('A' for Active; 'I' for Inactive)
REMARK    1  A    between atoms: C_1  and  C_2
REMARK    2  A    between atoms: C_2  and  O_5
REMARK    3  A    between atoms: O_5  and  C_6
REMARK    4  A    between atoms: C_9  and  N_10
REMARK    5  A    between atoms: C_11  and  C_13
REMARK    6  A    between atoms: C_16  and  N_17
REMARK    7  A    between atoms: C_20  and  O_21
REMARK    8  A    between atoms: C_23  and  C_24
REMARK    9  A    between atoms: C_28  and  C_29
REMARK                            x       y       z     vdW  Elec       q    Type
REMARK                         _______ _______ _______ _____ _____    ______ ____
ROOT
ATOM      1  C   UNL     1       2.130   8.321  18.404  0.00  0.00    +0.000 A 
ATOM      2  C   UNL     1       3.209   8.765  17.664  0.00  0.00    +0.000 A 
ATOM      3  N   UNL     1       4.124   7.939  17.099  0.00  0.00    +0.000 NA
ATOM      4  C   UNL     1       4.003   6.595  17.271  0.00  0.00    +0.000 A 
ATOM      5  C   UNL     1       2.957   6.046  18.061  0.00  0.00    +0.000 A 
ATOM      6  C   UNL     1       2.024   6.946  18.612  0.00  0.00    +0.000 A 
ENDROOT
BRANCH   5   7
ATOM      7  C   UNL     1       2.844   4.610  18.407  0.00  0.00    +0.000 A 
ATOM      8  C   UNL     1       1.899   3.767  17.817  0.00  0.00    +0.000 A 
ATOM      9  N   UNL     1       1.776   2.440  18.069  0.00  0.00    +0.000 NA
ATOM     10  C   UNL     1       2.655   1.900  18.944  0.00  0.00    +0.000 A 
ATOM     11  C   UNL     1       3.629   2.632  19.596  0.00  0.00    +0.000 A 
ATOM     12  C   UNL     1       3.685   4.004  19.354  0.00  0.00    +0.000 A 
BRANCH  11  13
ATOM     13  C   UNL     1       4.570   1.999  20.464  0.00  0.00    +0.000 C 
ATOM     14  N   UNL     1       5.321   1.470  21.174  0.00  0.00    +0.000 NA
ENDBRANCH  11  13
ENDBRANCH   5   7
BRANCH   4  15
ATOM     15  N   UNL     1       4.980   5.786  16.712  0.00  0.00    +0.000 N 
ATOM     16  C   UNL     1       4.592   4.615  15.922  0.00  0.00    +0.000 C 
ATOM     17  C   UNL     1       5.838   3.714  15.907  0.00  0.00    +0.000 C 
ATOM     18  C   UNL     1       6.952   4.575  16.491  0.00  0.00    +0.000 C 
ATOM     19  C   UNL     1       6.198   5.482  17.472  0.00  0.00    +0.000 C 
BRANCH  18  20
ATOM     20  O   UNL     1       7.570   5.339  15.451  0.00  0.00    +0.000 OA
ATOM     21  H   UNL     1       7.137   5.085  14.617  0.00  0.00    +0.000 HD
ENDBRANCH  18  20
ENDBRANCH   4  15
BRANCH   1  23
ATOM     22  N   UNL     1       1.313   9.456  20.401  0.00  0.00    +0.000 N 
ATOM     23  C   UNL     1       1.137   9.211  19.048  0.00  0.00    +0.000 C 
ATOM     24  O   UNL     1       0.271   9.687  18.327  0.00  0.00    +0.000 OA
ATOM     25  H   UNL     1       2.107   9.039  20.865  0.00  0.00    +0.000 HD
BRANCH  22  29
ATOM     26  C   UNL     1      -1.129  11.876  22.871  0.00  0.00    +0.000 A 
ATOM     27  C   UNL     1      -0.380  12.464  21.854  0.00  0.00    +0.000 A 
ATOM     28  C   UNL     1       0.429  11.688  21.022  0.00  0.00    +0.000 A 
ATOM     29  C   UNL     1       0.523  10.308  21.207  0.00  0.00    +0.000 A 
ATOM     30  C   UNL     1      -0.203   9.725  22.254  0.00  0.00    +0.000 A 
ATOM     31  C   UNL     1      -1.018  10.506  23.088  0.00  0.00    +0.000 A 
BRANCH  26  32
ATOM     32  O   UNL     1      -1.911  12.744  23.572  0.00  0.00    +0.000 OA
BRANCH  32  34
ATOM     33  C   UNL     1      -3.951  13.996  23.624  0.00  0.00    +0.000 C 
ATOM     34  C   UNL     1      -3.323  12.636  23.430  0.00  0.00    +0.000 C 
ATOM     35  F   UNL     1      -3.794  11.764  24.352  0.00  0.00    +0.000 F 
ATOM     36  F   UNL     1      -3.660  12.170  22.202  0.00  0.00    +0.000 F 
ENDBRANCH  32  34
ENDBRANCH  26  32
ENDBRANCH  22  29
ENDBRANCH   1  23
TORSDOF 8
ENDMDL
MODEL 6
REMARK VINA RESULT:      -8.2      1.511      1.709
REMARK  Name = 
REMARK  9 active torsions:
REMARK  status: ('A' for Active; 'I' for Inactive)
REMARK    1  A    between atoms: C_1  and  C_2
REMARK    2  A    between atoms: C_2  and  O_5
REMARK    3  A    between atoms: O_5  and  C_6
REMARK    4  A    between atoms: C_9  and  N_10
REMARK    5  A    between atoms: C_11  and  C_13
REMARK    6  A    between atoms: C_16  and  N_17
REMARK    7  A    between atoms: C_20  and  O_21
REMARK    8  A    between atoms: C_23  and  C_24
REMARK    9  A    between atoms: C_28  and  C_29
REMARK                            x       y       z     vdW  Elec       q    Type
REMARK                         _______ _______ _______ _____ _____    ______ ____
ROOT
ATOM      1  C   UNL     1       2.482   7.814  18.405  0.00  0.00    +0.000 A 
ATOM      2  C   UNL     1       3.481   8.301  17.585  0.00  0.00    +0.000 A 
ATOM      3  N   UNL     1       4.376   7.512  16.940  0.00  0.00    +0.000 NA
ATOM      4  C   UNL     1       4.313   6.163  17.107  0.00  0.00    +0.000 A 
ATOM      5  C   UNL     1       3.353   5.572  17.972  0.00  0.00    +0.000 A 
ATOM      6  C   UNL     1       2.438   6.435  18.605  0.00  0.00    +0.000 A 
ENDROOT
BRANCH   5   7
ATOM      7  C   UNL     1       3.316   4.130  18.310  0.00  0.00    +0.000 A 
ATOM      8  C   UNL     1       2.573   3.204  17.573  0.00  0.00    +0.000 A 
ATOM      9  N   UNL     1       2.533   1.871  17.816  0.00  0.00    +0.000 NA
ATOM     10  C   UNL     1       3.292   1.413  18.838  0.00  0.00    +0.000 A 
ATOM     11  C   UNL     1       4.063   2.230  19.642  0.00  0.00    +0.000 A 
ATOM     12  C   UNL     1       4.031   3.603  19.397  0.00  0.00    +0.000 A 
BRANCH  11  13
ATOM     13  C   UNL     1       4.891   1.685  20.670  0.00  0.00    +0.000 C 
ATOM     14  N   UNL     1       5.555   1.252  21.518  0.00  0.00    +0.000 NA
ENDBRANCH  11  13
ENDBRANCH   5   7
BRANCH   4  15
ATOM     15  N   UNL     1       5.269   5.392  16.462  0.00  0.00    +0.000 N 
ATOM     16  C   UNL     1       6.493   5.008  17.169  0.00  0.00    +0.000 C 
ATOM     17  C   UNL     1       7.492   4.637  16.060  0.00  0.00    +0.000 C 
ATOM     18  C   UNL     1       6.664   4.594  14.782  0.00  0.00    +0.000 C 
ATOM     19  C   UNL     1       5.577   5.644  15.049  0.00  0.00    +0.000 C 
BRANCH  18  20
ATOM     20  O   UNL     1       6.095   3.293  14.617  0.00  0.00    +0.000 OA
ATOM     21  H   UNL     1       6.828   2.654  14.662  0.00  0.00    +0.000 HD
ENDBRANCH  18  20
ENDBRANCH   4  15
BRANCH   1  23
ATOM     22  N   UNL     1       1.006   9.754  18.447  0.00  0.00    +0.000 N 
ATOM     23  C   UNL     1       1.514   8.665  19.136  0.00  0.00    +0.000 C 
ATOM     24  O   UNL     1       1.214   8.313  20.269  0.00  0.00    +0.000 OA
ATOM     25  H   UNL     1       1.300   9.898  17.492  0.00  0.00    +0.000 HD
BRANCH  22  29
ATOM     26  C   UNL     1      -1.788  12.537  19.988  0.00  0.00    +0.000 A 
ATOM     27  C   UNL     1      -2.213  11.556  19.096  0.00  0.00    +0.000 A 
ATOM     28  C   UNL     1      -1.313  10.622  18.578  0.00  0.00    +0.000 A 
ATOM     29  C   UNL     1       0.038  10.668  18.924  0.00  0.00    +0.000 A 
ATOM     30  C   UNL     1       0.469  11.680  19.793  0.00  0.00    +0.000 A 
ATOM     31  C   UNL     1      -0.437  12.616  20.315  0.00  0.00    +0.000 A 
BRANCH  26  32
ATOM     32  O   UNL     1      -2.778  13.349  20.453  0.00  0.00    +0.000 OA
BRANCH  32  34
ATOM     33  C   UNL     1      -4.818  12.721  21.537  0.00  0.00    +0.000 C 
ATOM     34  C   UNL     1      -3.354  13.044  21.718  0.00  0.00    +0.000 C 
ATOM     35  F   UNL     1      -3.205  14.110  22.539  0.00  0.00    +0.000 F 
ATOM     36  F   UNL     1      -2.740  11.981  22.295  0.00  0.00    +0.000 F 
ENDBRANCH  32  34
ENDBRANCH  26  32
ENDBRANCH  22  29
ENDBRANCH   1  23
TORSDOF 8
ENDMDL
MODEL 7
REMARK VINA RESULT:      -8.1      0.748      1.034
REMARK  Name = 
REMARK  9 active torsions:
REMARK  status: ('A' for Active; 'I' for Inactive)
REMARK    1  A    between atoms: C_1  and  C_2
REMARK    2  A    between atoms: C_2  and  O_5
REMARK    3  A    between atoms: O_5  and  C_6
REMARK    4  A    between atoms: C_9  and  N_10
REMARK    5  A    between atoms: C_11  and  C_13
REMARK    6  A    between atoms: C_16  and  N_17
REMARK    7  A    between atoms: C_20  and  O_21
REMARK    8  A    between atoms: C_23  and  C_24
REMARK    9  A    between atoms: C_28  and  C_29
REMARK                            x       y       z     vdW  Elec       q    Type
REMARK                         _______ _______ _______ _____ _____    ______ ____
ROOT
ATOM      1  C   UNL     1       2.285   8.103  18.297  0.00  0.00    +0.000 A 
ATOM      2  C   UNL     1       3.333   8.594  17.542  0.00  0.00    +0.000 A 
ATOM      3  N   UNL     1       4.256   7.807  16.936  0.00  0.00    +0.000 NA
ATOM      4  C   UNL     1       4.175   6.457  17.079  0.00  0.00    +0.000 A 
ATOM      5  C   UNL     1       3.163   5.861  17.879  0.00  0.00    +0.000 A 
ATOM      6  C   UNL     1       2.220   6.722  18.473  0.00  0.00    +0.000 A 
ENDROOT
BRANCH   5   7
ATOM      7  C   UNL     1       3.097   4.414  18.193  0.00  0.00    +0.000 A 
ATOM      8  C   UNL     1       2.289   3.527  17.478  0.00  0.00    +0.000 A 
ATOM      9  N   UNL     1       2.218   2.191  17.699  0.00  0.00    +0.000 NA
ATOM     10  C   UNL     1       3.011   1.689  18.673  0.00  0.00    +0.000 A 
ATOM     11  C   UNL     1       3.847   2.467  19.452  0.00  0.00    +0.000 A 
ATOM     12  C   UNL     1       3.848   3.844  19.233  0.00  0.00    +0.000 A 
BRANCH  11  13
ATOM     13  C   UNL     1       4.708   1.875  20.426  0.00  0.00    +0.000 C 
ATOM     14  N   UNL     1       5.391   1.389  21.228  0.00  0.00    +0.000 NA
ENDBRANCH  11  13
ENDBRANCH   5   7
BRANCH   4  15
ATOM     15  N   UNL     1       5.159   5.688  16.477  0.00  0.00    +0.000 N 
ATOM     16  C   UNL     1       4.782   4.537  15.653  0.00  0.00    +0.000 C 
ATOM     17  C   UNL     1       6.047   3.664  15.587  0.00  0.00    +0.000 C 
ATOM     18  C   UNL     1       7.152   4.526  16.184  0.00  0.00    +0.000 C 
ATOM     19  C   UNL     1       6.395   5.383  17.208  0.00  0.00    +0.000 C 
BRANCH  18  20
ATOM     20  O   UNL     1       7.738   5.338  15.163  0.00  0.00    +0.000 OA
ATOM     21  H   UNL     1       8.208   4.739  14.558  0.00  0.00    +0.000 HD
ENDBRANCH  18  20
ENDBRANCH   4  15
BRANCH   1  23
ATOM     22  N   UNL     1       1.376   9.017  20.367  0.00  0.00    +0.000 N 
ATOM     23  C   UNL     1       1.284   8.951  18.986  0.00  0.00    +0.000 C 
ATOM     24  O   UNL     1       0.488   9.553  18.278  0.00  0.00    +0.000 OA
ATOM     25  H   UNL     1       2.121   8.509  20.823  0.00  0.00    +0.000 HD
BRANCH  22  29
ATOM     26  C   UNL     1      -0.978  11.486  22.873  0.00  0.00    +0.000 A 
ATOM     27  C   UNL     1      -0.911  10.116  23.120  0.00  0.00    +0.000 A 
ATOM     28  C   UNL     1      -0.138   9.281  22.312  0.00  0.00    +0.000 A 
ATOM     29  C   UNL     1       0.566   9.797  21.224  0.00  0.00    +0.000 A 
ATOM     30  C   UNL     1       0.468  11.169  20.956  0.00  0.00    +0.000 A 
ATOM     31  C   UNL     1      -0.307  12.008  21.771  0.00  0.00    +0.000 A 
BRANCH  26  32
ATOM     32  O   UNL     1      -1.728  12.187  23.768  0.00  0.00    +0.000 OA
BRANCH  32  34
ATOM     33  C   UNL     1      -3.994  12.630  24.401  0.00  0.00    +0.000 C 
ATOM     34  C   UNL     1      -2.951  12.756  23.315  0.00  0.00    +0.000 C 
ATOM     35  F   UNL     1      -3.353  12.105  22.198  0.00  0.00    +0.000 F 
ATOM     36  F   UNL     1      -2.800  14.068  23.006  0.00  0.00    +0.000 F 
ENDBRANCH  32  34
ENDBRANCH  26  32
ENDBRANCH  22  29
ENDBRANCH   1  23
TORSDOF 8
ENDMDL
MODEL 8
REMARK VINA RESULT:      -8.1      2.671      4.495
REMARK  Name = 
REMARK  9 active torsions:
REMARK  status: ('A' for Active; 'I' for Inactive)
REMARK    1  A    between atoms: C_1  and  C_2
REMARK    2  A    between atoms: C_2  and  O_5
REMARK    3  A    between atoms: O_5  and  C_6
REMARK    4  A    between atoms: C_9  and  N_10
REMARK    5  A    between atoms: C_11  and  C_13
REMARK    6  A    between atoms: C_16  and  N_17
REMARK    7  A    between atoms: C_20  and  O_21
REMARK    8  A    between atoms: C_23  and  C_24
REMARK    9  A    between atoms: C_28  and  C_29
REMARK                            x       y       z     vdW  Elec       q    Type
REMARK                         _______ _______ _______ _____ _____    ______ ____
ROOT
ATOM      1  C   UNL     1       2.410   7.819  18.438  0.00  0.00    +0.000 A 
ATOM      2  C   UNL     1       1.721   6.894  19.198  0.00  0.00    +0.000 A 
ATOM      3  N   UNL     1       2.120   5.608  19.362  0.00  0.00    +0.000 NA
ATOM      4  C   UNL     1       3.252   5.179  18.740  0.00  0.00    +0.000 A 
ATOM      5  C   UNL     1       3.999   6.043  17.895  0.00  0.00    +0.000 A 
ATOM      6  C   UNL     1       3.550   7.372  17.771  0.00  0.00    +0.000 A 
ENDROOT
BRANCH   5   7
ATOM      7  C   UNL     1       5.157   5.609  17.078  0.00  0.00    +0.000 A 
ATOM      8  C   UNL     1       6.470   5.651  17.553  0.00  0.00    +0.000 A 
ATOM      9  N   UNL     1       7.560   5.232  16.863  0.00  0.00    +0.000 NA
ATOM     10  C   UNL     1       7.342   4.717  15.631  0.00  0.00    +0.000 A 
ATOM     11  C   UNL     1       6.091   4.629  15.051  0.00  0.00    +0.000 A 
ATOM     12  C   UNL     1       5.003   5.124  15.769  0.00  0.00    +0.000 A 
BRANCH  11  13
ATOM     13  C   UNL     1       5.913   4.020  13.772  0.00  0.00    +0.000 C 
ATOM     14  N   UNL     1       5.753   3.515  12.739  0.00  0.00    +0.000 NA
ENDBRANCH  11  13
ENDBRANCH   5   7
BRANCH   4  15
ATOM     15  N   UNL     1       3.606   3.848  18.900  0.00  0.00    +0.000 N 
ATOM     16  C   UNL     1       3.367   2.896  17.813  0.00  0.00    +0.000 C 
ATOM     17  C   UNL     1       3.388   1.512  18.486  0.00  0.00    +0.000 C 
ATOM     18  C   UNL     1       3.901   1.769  19.897  0.00  0.00    +0.000 C 
ATOM     19  C   UNL     1       3.387   3.186  20.190  0.00  0.00    +0.000 C 
BRANCH  18  20
ATOM     20  O   UNL     1       5.330   1.726  19.909  0.00  0.00    +0.000 OA
ATOM     21  H   UNL     1       5.586   0.789  19.983  0.00  0.00    +0.000 HD
ENDBRANCH  18  20
ENDBRANCH   4  15
BRANCH   1  23
ATOM     22  N   UNL     1       1.214   9.786  19.240  0.00  0.00    +0.000 N 
ATOM     23  C   UNL     1       1.973   9.219  18.229  0.00  0.00    +0.000 C 
ATOM     24  O   UNL     1       2.351   9.770  17.204  0.00  0.00    +0.000 OA
ATOM     25  H   UNL     1       1.018   9.232  20.062  0.00  0.00    +0.000 HD
BRANCH  22  29
ATOM     26  C   UNL     1      -0.355  13.718  19.272  0.00  0.00    +0.000 A 
ATOM     27  C   UNL     1       0.966  13.500  19.655  0.00  0.00    +0.000 A 
ATOM     28  C   UNL     1       1.510  12.214  19.648  0.00  0.00    +0.000 A 
ATOM     29  C   UNL     1       0.732  11.115  19.280  0.00  0.00    +0.000 A 
ATOM     30  C   UNL     1      -0.607  11.334  18.930  0.00  0.00    +0.000 A 
ATOM     31  C   UNL     1      -1.151  12.627  18.936  0.00  0.00    +0.000 A 
BRANCH  26  32
ATOM     32  O   UNL     1      -0.739  15.025  19.278  0.00  0.00    +0.000 OA
BRANCH  32  34
ATOM     33  C   UNL     1      -2.254  16.589  20.273  0.00  0.00    +0.000 C 
ATOM     34  C   UNL     1      -1.141  15.598  20.518  0.00  0.00    +0.000 C 
ATOM     35  F   UNL     1      -0.078  16.215  21.085  0.00  0.00    +0.000 F 
ATOM     36  F   UNL     1      -1.584  14.648  21.378  0.00  0.00    +0.000 F 
ENDBRANCH  32  34
ENDBRANCH  26  32
ENDBRANCH  22  29
ENDBRANCH   1  23
TORSDOF 8
ENDMDL
MODEL 9
REMARK VINA RESULT:      -8.0      1.268      1.541
REMARK  Name = 
REMARK  9 active torsions:
REMARK  status: ('A' for Active; 'I' for Inactive)
REMARK    1  A    between atoms: C_1  and  C_2
REMARK    2  A    between atoms: C_2  and  O_5
REMARK    3  A    between atoms: O_5  and  C_6
REMARK    4  A    between atoms: C_9  and  N_10
REMARK    5  A    between atoms: C_11  and  C_13
REMARK    6  A    between atoms: C_16  and  N_17
REMARK    7  A    between atoms: C_20  and  O_21
REMARK    8  A    between atoms: C_23  and  C_24
REMARK    9  A    between atoms: C_28  and  C_29
REMARK                            x       y       z     vdW  Elec       q    Type
REMARK                         _______ _______ _______ _____ _____    ______ ____
ROOT
ATOM      1  C   UNL     1       2.068   8.335  18.251  0.00  0.00    +0.000 A 
ATOM      2  C   UNL     1       3.275   8.680  17.675  0.00  0.00    +0.000 A 
ATOM      3  N   UNL     1       4.198   7.775  17.265  0.00  0.00    +0.000 NA
ATOM      4  C   UNL     1       3.949   6.449  17.433  0.00  0.00    +0.000 A 
ATOM      5  C   UNL     1       2.758   5.998  18.063  0.00  0.00    +0.000 A 
ATOM      6  C   UNL     1       1.826   6.978  18.457  0.00  0.00    +0.000 A 
ENDROOT
BRANCH   5   7
ATOM      7  C   UNL     1       2.484   4.583  18.406  0.00  0.00    +0.000 A 
ATOM      8  C   UNL     1       2.647   3.543  17.488  0.00  0.00    +0.000 A 
ATOM      9  N   UNL     1       2.446   2.229  17.759  0.00  0.00    +0.000 NA
ATOM     10  C   UNL     1       2.082   1.914  19.023  0.00  0.00    +0.000 A 
ATOM     11  C   UNL     1       1.883   2.854  20.016  0.00  0.00    +0.000 A 
ATOM     12  C   UNL     1       2.043   4.199  19.682  0.00  0.00    +0.000 A 
BRANCH  11  13
ATOM     13  C   UNL     1       1.558   2.460  21.349  0.00  0.00    +0.000 C 
ATOM     14  N   UNL     1       1.302   2.123  22.430  0.00  0.00    +0.000 NA
ENDBRANCH  11  13
ENDBRANCH   5   7
BRANCH   4  15
ATOM     15  N   UNL     1       4.933   5.556  17.037  0.00  0.00    +0.000 N 
ATOM     16  C   UNL     1       6.083   5.306  17.908  0.00  0.00    +0.000 C 
ATOM     17  C   UNL     1       7.161   4.713  16.984  0.00  0.00    +0.000 C 
ATOM     18  C   UNL     1       6.440   4.428  15.672  0.00  0.00    +0.000 C 
ATOM     19  C   UNL     1       5.363   5.521  15.634  0.00  0.00    +0.000 C 
BRANCH  18  20
ATOM     20  O   UNL     1       5.851   3.125  15.716  0.00  0.00    +0.000 OA
ATOM     21  H   UNL     1       4.886   3.248  15.697  0.00  0.00    +0.000 HD
ENDBRANCH  18  20
ENDBRANCH   4  15
BRANCH   1  23
ATOM     22  N   UNL     1       1.102   9.633  20.075  0.00  0.00    +0.000 N 
ATOM     23  C   UNL     1       1.061   9.312  18.728  0.00  0.00    +0.000 C 
ATOM     24  O   UNL     1       0.307   9.785  17.888  0.00  0.00    +0.000 OA
ATOM     25  H   UNL     1       1.817   9.207  20.648  0.00  0.00    +0.000 HD
BRANCH  22  29
ATOM     26  C   UNL     1      -1.412  12.326  22.160  0.00  0.00    +0.000 A 
ATOM     27  C   UNL     1      -0.900  12.684  20.915  0.00  0.00    +0.000 A 
ATOM     28  C   UNL     1      -0.073  11.812  20.205  0.00  0.00    +0.000 A 
ATOM     29  C   UNL     1       0.278  10.572  20.738  0.00  0.00    +0.000 A 
ATOM     30  C   UNL     1      -0.209  10.230  22.007  0.00  0.00    +0.000 A 
ATOM     31  C   UNL     1      -1.042  11.106  22.719  0.00  0.00    +0.000 A 
BRANCH  26  32
ATOM     32  O   UNL     1      -2.243  13.250  22.719  0.00  0.00    +0.000 OA
BRANCH  32  34
ATOM     33  C   UNL     1      -4.406  14.274  22.668  0.00  0.00    +0.000 C 
ATOM     34  C   UNL     1      -3.639  12.975  22.727  0.00  0.00    +0.000 C 
ATOM     35  F   UNL     1      -3.949  12.296  23.856  0.00  0.00    +0.000 F 
ATOM     36  F   UNL     1      -3.996  12.209  21.665  0.00  0.00    +0.000 F 
ENDBRANCH  32  34
ENDBRANCH  26  32
ENDBRANCH  22  29
ENDBRANCH   1  23
TORSDOF 8
ENDMDL
