MODEL 1
REMARK VINA RESULT:      -6.9      0.000      0.000
REMARK  Name = 
REMARK  4 active torsions:
REMARK  status: ('A' for Active; 'I' for Inactive)
REMARK    1  A    between atoms: C_2  and  C_3
REMARK    2  A    between atoms: C_3  and  N_4
REMARK    3  A    between atoms: N_11  and  C_12
REMARK    4  A    between atoms: C_15  and  N_16
REMARK                            x       y       z     vdW  Elec       q    Type
REMARK                         _______ _______ _______ _____ _____    ______ ____
ROOT
ATOM      1  O   UNL     1       3.688   7.070  17.289  0.00  0.00    +0.000 OA
ATOM      2  C   UNL     1       3.930   6.153  18.081  0.00  0.00    +0.000 C 
ATOM      3  N   UNL     1       4.746   5.084  17.773  0.00  0.00    +0.000 N 
ATOM      4  H   UNL     1       4.554   4.214  18.264  0.00  0.00    +0.000 HD
ENDROOT
BRANCH   3   5
ATOM      5  C   UNL     1       5.540   5.031  16.600  0.00  0.00    +0.000 A 
ATOM      6  C   UNL     1       5.051   4.408  15.445  0.00  0.00    +0.000 A 
ATOM      7  C   UNL     1       5.791   4.424  14.253  0.00  0.00    +0.000 A 
ATOM      8  C   UNL     1       7.040   5.053  14.230  0.00  0.00    +0.000 A 
ATOM      9  C   UNL     1       7.559   5.646  15.386  0.00  0.00    +0.000 A 
ATOM     10  C   UNL     1       6.800   5.645  16.561  0.00  0.00    +0.000 A 
ATOM     11 CL   UNL     1       7.501   6.323  17.990  0.00  0.00    +0.000 Cl
BRANCH   8  12
ATOM     12  N   UNL     1       7.810   5.091  12.977  0.00  0.00    +0.000 N 
ATOM     13  O   UNL     1       8.804   5.833  12.932  0.00  0.00    +0.000 OA
ATOM     14  O   UNL     1       7.431   4.368  12.047  0.00  0.00    +0.000 OA
ENDBRANCH   8  12
ENDBRANCH   3   5
BRANCH   2  15
ATOM     15  C   UNL     1       3.239   6.118  19.446  0.00  0.00    +0.000 C 
BRANCH  15  16
ATOM     16  N   UNL     1       2.708   4.786  19.842  0.00  0.00    +0.000 NA
ATOM     17  C   UNL     1       2.062   4.804  21.161  0.00  0.00    +0.000 C 
ATOM     18  C   UNL     1       2.263   3.446  21.842  0.00  0.00    +0.000 C 
ATOM     19  C   UNL     1       1.314   2.338  21.397  0.00  0.00    +0.000 C 
ATOM     20  C   UNL     1       1.278   2.069  19.896  0.00  0.00    +0.000 C 
ATOM     21  C   UNL     1       0.748   3.255  19.101  0.00  0.00    +0.000 C 
ATOM     22  C   UNL     1       1.801   4.321  18.770  0.00  0.00    +0.000 C 
ENDBRANCH  15  16
ENDBRANCH   2  15
TORSDOF 4
ENDMDL
MODEL 2
REMARK VINA RESULT:      -6.9      3.840      7.596
REMARK  Name = 
REMARK  4 active torsions:
REMARK  status: ('A' for Active; 'I' for Inactive)
REMARK    1  A    between atoms: C_2  and  C_3
REMARK    2  A    between atoms: C_3  and  N_4
REMARK    3  A    between atoms: N_11  and  C_12
REMARK    4  A    between atoms: C_15  and  N_16
REMARK                            x       y       z     vdW  Elec       q    Type
REMARK                         _______ _______ _______ _____ _____    ______ ____
ROOT
ATOM      1  O   UNL     1       1.644   4.952  18.817  0.00  0.00    +0.000 OA
ATOM      2  C   UNL     1       2.672   5.189  19.462  0.00  0.00    +0.000 C 
ATOM      3  N   UNL     1       2.972   6.434  19.974  0.00  0.00    +0.000 N 
ATOM      4  H   UNL     1       3.960   6.647  20.089  0.00  0.00    +0.000 HD
ENDROOT
BRANCH   3   5
ATOM      5  C   UNL     1       2.049   7.508  19.984  0.00  0.00    +0.000 A 
ATOM      6  C   UNL     1       1.227   7.720  21.098  0.00  0.00    +0.000 A 
ATOM      7  C   UNL     1       0.370   8.830  21.157  0.00  0.00    +0.000 A 
ATOM      8  C   UNL     1       0.326   9.720  20.079  0.00  0.00    +0.000 A 
ATOM      9  C   UNL     1       1.112   9.500  18.943  0.00  0.00    +0.000 A 
ATOM     10  C   UNL     1       1.980   8.404  18.907  0.00  0.00    +0.000 A 
ATOM     11 CL   UNL     1       2.884   8.120  17.460  0.00  0.00    +0.000 Cl
BRANCH   8  12
ATOM     12  N   UNL     1      -0.555  10.897  20.145  0.00  0.00    +0.000 N 
ATOM     13  O   UNL     1      -1.455  10.993  19.297  0.00  0.00    +0.000 OA
ATOM     14  O   UNL     1      -0.355  11.712  21.054  0.00  0.00    +0.000 OA
ENDBRANCH   8  12
ENDBRANCH   3   5
BRANCH   2  15
ATOM     15  C   UNL     1       3.730   4.097  19.643  0.00  0.00    +0.000 C 
BRANCH  15  16
ATOM     16  N   UNL     1       4.844   4.139  18.658  0.00  0.00    +0.000 NA
ATOM     17  C   UNL     1       4.410   4.600  17.333  0.00  0.00    +0.000 C 
ATOM     18  C   UNL     1       5.253   3.910  16.255  0.00  0.00    +0.000 C 
ATOM     19  C   UNL     1       6.632   4.513  16.010  0.00  0.00    +0.000 C 
ATOM     20  C   UNL     1       7.523   4.639  17.243  0.00  0.00    +0.000 C 
ATOM     21  C   UNL     1       6.955   5.599  18.279  0.00  0.00    +0.000 C 
ATOM     22  C   UNL     1       5.923   4.975  19.228  0.00  0.00    +0.000 C 
ENDBRANCH  15  16
ENDBRANCH   2  15
TORSDOF 4
ENDMDL
MODEL 3
REMARK VINA RESULT:      -6.8      4.364      8.128
REMARK  Name = 
REMARK  4 active torsions:
REMARK  status: ('A' for Active; 'I' for Inactive)
REMARK    1  A    between atoms: C_2  and  C_3
REMARK    2  A    between atoms: C_3  and  N_4
REMARK    3  A    between atoms: N_11  and  C_12
REMARK    4  A    between atoms: C_15  and  N_16
REMARK                            x       y       z     vdW  Elec       q    Type
REMARK                         _______ _______ _______ _____ _____    ______ ____
ROOT
ATOM      1  O   UNL     1       1.288   5.236  20.535  0.00  0.00    +0.000 OA
ATOM      2  C   UNL     1       2.366   5.661  20.105  0.00  0.00    +0.000 C 
ATOM      3  N   UNL     1       2.620   7.000  19.893  0.00  0.00    +0.000 N 
ATOM      4  H   UNL     1       3.304   7.221  19.173  0.00  0.00    +0.000 HD
ENDROOT
BRANCH   3   5
ATOM      5  C   UNL     1       1.750   8.030  20.330  0.00  0.00    +0.000 A 
ATOM      6  C   UNL     1       1.385   8.120  21.679  0.00  0.00    +0.000 A 
ATOM      7  C   UNL     1       0.595   9.184  22.139  0.00  0.00    +0.000 A 
ATOM      8  C   UNL     1       0.152  10.152  21.232  0.00  0.00    +0.000 A 
ATOM      9  C   UNL     1       0.477  10.055  19.874  0.00  0.00    +0.000 A 
ATOM     10  C   UNL     1       1.286   9.003  19.433  0.00  0.00    +0.000 A 
ATOM     11 CL   UNL     1       1.608   8.872  17.738  0.00  0.00    +0.000 Cl
BRANCH   8  12
ATOM     12  N   UNL     1      -0.658  11.281  21.714  0.00  0.00    +0.000 N 
ATOM     13  O   UNL     1      -0.483  11.661  22.882  0.00  0.00    +0.000 OA
ATOM     14  O   UNL     1      -1.453  11.798  20.918  0.00  0.00    +0.000 OA
ENDBRANCH   8  12
ENDBRANCH   3   5
BRANCH   2  15
ATOM     15  C   UNL     1       3.465   4.679  19.691  0.00  0.00    +0.000 C 
BRANCH  15  16
ATOM     16  N   UNL     1       4.338   5.152  18.583  0.00  0.00    +0.000 NA
ATOM     17  C   UNL     1       5.766   4.949  18.861  0.00  0.00    +0.000 C 
ATOM     18  C   UNL     1       6.576   6.067  18.196  0.00  0.00    +0.000 C 
ATOM     19  C   UNL     1       6.845   5.889  16.706  0.00  0.00    +0.000 C 
ATOM     20  C   UNL     1       5.610   5.673  15.837  0.00  0.00    +0.000 C 
ATOM     21  C   UNL     1       4.883   4.377  16.167  0.00  0.00    +0.000 C 
ATOM     22  C   UNL     1       3.899   4.480  17.341  0.00  0.00    +0.000 C 
ENDBRANCH  15  16
ENDBRANCH   2  15
TORSDOF 4
ENDMDL
MODEL 4
REMARK VINA RESULT:      -6.7      4.518      5.798
REMARK  Name = 
REMARK  4 active torsions:
REMARK  status: ('A' for Active; 'I' for Inactive)
REMARK    1  A    between atoms: C_2  and  C_3
REMARK    2  A    between atoms: C_3  and  N_4
REMARK    3  A    between atoms: N_11  and  C_12
REMARK    4  A    between atoms: C_15  and  N_16
REMARK                            x       y       z     vdW  Elec       q    Type
REMARK                         _______ _______ _______ _____ _____    ______ ____
ROOT
ATOM      1  O   UNL     1       2.346   8.853  17.234  0.00  0.00    +0.000 OA
ATOM      2  C   UNL     1       2.212   8.342  18.351  0.00  0.00    +0.000 C 
ATOM      3  N   UNL     1       2.766   7.127  18.698  0.00  0.00    +0.000 N 
ATOM      4  H   UNL     1       2.279   6.601  19.420  0.00  0.00    +0.000 HD
ENDROOT
BRANCH   3   5
ATOM      5  C   UNL     1       3.699   6.442  17.882  0.00  0.00    +0.000 A 
ATOM      6  C   UNL     1       4.890   7.069  17.493  0.00  0.00    +0.000 A 
ATOM      7  C   UNL     1       5.860   6.373  16.758  0.00  0.00    +0.000 A 
ATOM      8  C   UNL     1       5.622   5.044  16.392  0.00  0.00    +0.000 A 
ATOM      9  C   UNL     1       4.421   4.417  16.739  0.00  0.00    +0.000 A 
ATOM     10  C   UNL     1       3.472   5.114  17.494  0.00  0.00    +0.000 A 
ATOM     11 CL   UNL     1       1.968   4.333  17.845  0.00  0.00    +0.000 Cl
BRANCH   8  12
ATOM     12  N   UNL     1       6.646   4.303  15.640  0.00  0.00    +0.000 N 
ATOM     13  O   UNL     1       6.274   3.632  14.665  0.00  0.00    +0.000 OA
ATOM     14  O   UNL     1       7.821   4.407  16.014  0.00  0.00    +0.000 OA
ENDBRANCH   8  12
ENDBRANCH   3   5
BRANCH   2  15
ATOM     15  C   UNL     1       1.323   9.016  19.399  0.00  0.00    +0.000 C 
BRANCH  15  16
ATOM     16  N   UNL     1       0.502  10.146  18.886  0.00  0.00    +0.000 NA
ATOM     17  C   UNL     1      -0.921  10.011  19.222  0.00  0.00    +0.000 C 
ATOM     18  C   UNL     1      -1.767  10.636  18.108  0.00  0.00    +0.000 C 
ATOM     19  C   UNL     1      -1.904  12.154  18.157  0.00  0.00    +0.000 C 
ATOM     20  C   UNL     1      -0.591  12.931  18.194  0.00  0.00    +0.000 C 
ATOM     21  C   UNL     1       0.213  12.662  19.458  0.00  0.00    +0.000 C 
ATOM     22  C   UNL     1       1.091  11.403  19.398  0.00  0.00    +0.000 C 
ENDBRANCH  15  16
ENDBRANCH   2  15
TORSDOF 4
ENDMDL
MODEL 5
REMARK VINA RESULT:      -6.7      4.121      5.470
REMARK  Name = 
REMARK  4 active torsions:
REMARK  status: ('A' for Active; 'I' for Inactive)
REMARK    1  A    between atoms: C_2  and  C_3
REMARK    2  A    between atoms: C_3  and  N_4
REMARK    3  A    between atoms: N_11  and  C_12
REMARK    4  A    between atoms: C_15  and  N_16
REMARK                            x       y       z     vdW  Elec       q    Type
REMARK                         _______ _______ _______ _____ _____    ______ ____
ROOT
ATOM      1  O   UNL     1       2.263   8.126  18.989  0.00  0.00    +0.000 OA
ATOM      2  C   UNL     1       2.173   7.352  19.949  0.00  0.00    +0.000 C 
ATOM      3  N   UNL     1       2.779   6.114  19.981  0.00  0.00    +0.000 N 
ATOM      4  H   UNL     1       2.329   5.406  20.557  0.00  0.00    +0.000 HD
ENDROOT
BRANCH   3   5
ATOM      5  C   UNL     1       3.720   5.689  19.010  0.00  0.00    +0.000 A 
ATOM      6  C   UNL     1       5.077   6.001  19.160  0.00  0.00    +0.000 A 
ATOM      7  C   UNL     1       6.030   5.514  18.252  0.00  0.00    +0.000 A 
ATOM      8  C   UNL     1       5.611   4.724  17.176  0.00  0.00    +0.000 A 
ATOM      9  C   UNL     1       4.255   4.437  16.991  0.00  0.00    +0.000 A 
ATOM     10  C   UNL     1       3.318   4.908  17.917  0.00  0.00    +0.000 A 
ATOM     11 CL   UNL     1       1.643   4.595  17.620  0.00  0.00    +0.000 Cl
BRANCH   8  12
ATOM     12  N   UNL     1       6.609   4.193  16.234  0.00  0.00    +0.000 N 
ATOM     13  O   UNL     1       6.195   3.671  15.188  0.00  0.00    +0.000 OA
ATOM     14  O   UNL     1       7.803   4.314  16.534  0.00  0.00    +0.000 OA
ENDBRANCH   8  12
ENDBRANCH   3   5
BRANCH   2  15
ATOM     15  C   UNL     1       1.282   7.712  21.140  0.00  0.00    +0.000 C 
BRANCH  15  16
ATOM     16  N   UNL     1       0.756   9.103  21.128  0.00  0.00    +0.000 NA
ATOM     17  C   UNL     1      -0.373   9.274  20.205  0.00  0.00    +0.000 C 
ATOM     18  C   UNL     1      -0.349  10.695  19.632  0.00  0.00    +0.000 C 
ATOM     19  C   UNL     1      -0.928  11.779  20.534  0.00  0.00    +0.000 C 
ATOM     20  C   UNL     1      -0.320  11.865  21.931  0.00  0.00    +0.000 C 
ATOM     21  C   UNL     1      -0.581  10.615  22.760  0.00  0.00    +0.000 C 
ATOM     22  C   UNL     1       0.416   9.472  22.519  0.00  0.00    +0.000 C 
ENDBRANCH  15  16
ENDBRANCH   2  15
TORSDOF 4
ENDMDL
MODEL 6
REMARK VINA RESULT:      -6.5      4.964      7.480
REMARK  Name = 
REMARK  4 active torsions:
REMARK  status: ('A' for Active; 'I' for Inactive)
REMARK    1  A    between atoms: C_2  and  C_3
REMARK    2  A    between atoms: C_3  and  N_4
REMARK    3  A    between atoms: N_11  and  C_12
REMARK    4  A    between atoms: C_15  and  N_16
REMARK                            x       y       z     vdW  Elec       q    Type
REMARK                         _______ _______ _______ _____ _____    ______ ____
ROOT
ATOM      1  O   UNL     1      -0.218   7.986  21.243  0.00  0.00    +0.000 OA
ATOM      2  C   UNL     1       0.934   8.434  21.278  0.00  0.00    +0.000 C 
ATOM      3  N   UNL     1       2.039   7.709  20.882  0.00  0.00    +0.000 N 
ATOM      4  H   UNL     1       2.921   7.955  21.326  0.00  0.00    +0.000 HD
ENDROOT
BRANCH   3   5
ATOM      5  C   UNL     1       1.947   6.462  20.215  0.00  0.00    +0.000 A 
ATOM      6  C   UNL     1       1.554   5.316  20.917  0.00  0.00    +0.000 A 
ATOM      7  C   UNL     1       1.376   4.093  20.251  0.00  0.00    +0.000 A 
ATOM      8  C   UNL     1       1.615   4.020  18.875  0.00  0.00    +0.000 A 
ATOM      9  C   UNL     1       2.046   5.148  18.168  0.00  0.00    +0.000 A 
ATOM     10  C   UNL     1       2.196   6.366  18.839  0.00  0.00    +0.000 A 
ATOM     11 CL   UNL     1       2.799   7.723  17.950  0.00  0.00    +0.000 Cl
BRANCH   8  12
ATOM     12  N   UNL     1       1.409   2.746  18.169  0.00  0.00    +0.000 N 
ATOM     13  O   UNL     1       2.280   2.385  17.363  0.00  0.00    +0.000 OA
ATOM     14  O   UNL     1       0.386   2.102  18.434  0.00  0.00    +0.000 OA
ENDBRANCH   8  12
ENDBRANCH   3   5
BRANCH   2  15
ATOM     15  C   UNL     1       1.197   9.822  21.866  0.00  0.00    +0.000 C 
BRANCH  15  16
ATOM     16  N   UNL     1       0.750  10.956  21.012  0.00  0.00    +0.000 NA
ATOM     17  C   UNL     1       0.913  10.683  19.579  0.00  0.00    +0.000 C 
ATOM     18  C   UNL     1       1.222  11.993  18.846  0.00  0.00    +0.000 C 
ATOM     19  C   UNL     1       0.018  12.876  18.537  0.00  0.00    +0.000 C 
ATOM     20  C   UNL     1      -0.851  13.244  19.735  0.00  0.00    +0.000 C 
ATOM     21  C   UNL     1      -1.522  12.032  20.367  0.00  0.00    +0.000 C 
ATOM     22  C   UNL     1      -0.648  11.274  21.376  0.00  0.00    +0.000 C 
ENDBRANCH  15  16
ENDBRANCH   2  15
TORSDOF 4
ENDMDL
MODEL 7
REMARK VINA RESULT:      -6.5      3.075      4.104
REMARK  Name = 
REMARK  4 active torsions:
REMARK  status: ('A' for Active; 'I' for Inactive)
REMARK    1  A    between atoms: C_2  and  C_3
REMARK    2  A    between atoms: C_3  and  N_4
REMARK    3  A    between atoms: N_11  and  C_12
REMARK    4  A    between atoms: C_15  and  N_16
REMARK                            x       y       z     vdW  Elec       q    Type
REMARK                         _______ _______ _______ _____ _____    ______ ____
ROOT
ATOM      1  O   UNL     1       1.805   5.258  18.683  0.00  0.00    +0.000 OA
ATOM      2  C   UNL     1       2.524   5.951  19.412  0.00  0.00    +0.000 C 
ATOM      3  N   UNL     1       3.864   6.167  19.168  0.00  0.00    +0.000 N 
ATOM      4  H   UNL     1       4.445   6.355  19.981  0.00  0.00    +0.000 HD
ENDROOT
BRANCH   3   5
ATOM      5  C   UNL     1       4.501   5.782  17.962  0.00  0.00    +0.000 A 
ATOM      6  C   UNL     1       4.600   6.687  16.898  0.00  0.00    +0.000 A 
ATOM      7  C   UNL     1       5.303   6.349  15.731  0.00  0.00    +0.000 A 
ATOM      8  C   UNL     1       5.892   5.085  15.628  0.00  0.00    +0.000 A 
ATOM      9  C   UNL     1       5.769   4.156  16.667  0.00  0.00    +0.000 A 
ATOM     10  C   UNL     1       5.087   4.515  17.834  0.00  0.00    +0.000 A 
ATOM     11 CL   UNL     1       4.891   3.319  19.069  0.00  0.00    +0.000 Cl
BRANCH   8  12
ATOM     12  N   UNL     1       6.649   4.733  14.416  0.00  0.00    +0.000 N 
ATOM     13  O   UNL     1       7.686   5.373  14.177  0.00  0.00    +0.000 OA
ATOM     14  O   UNL     1       6.216   3.809  13.717  0.00  0.00    +0.000 OA
ENDBRANCH   8  12
ENDBRANCH   3   5
BRANCH   2  15
ATOM     15  C   UNL     1       1.957   6.542  20.705  0.00  0.00    +0.000 C 
BRANCH  15  16
ATOM     16  N   UNL     1       1.122   7.759  20.521  0.00  0.00    +0.000 NA
ATOM     17  C   UNL     1       1.116   8.627  21.706  0.00  0.00    +0.000 C 
ATOM     18  C   UNL     1      -0.240   9.332  21.812  0.00  0.00    +0.000 C 
ATOM     19  C   UNL     1      -0.417  10.556  20.920  0.00  0.00    +0.000 C 
ATOM     20  C   UNL     1      -0.162  10.328  19.433  0.00  0.00    +0.000 C 
ATOM     21  C   UNL     1       1.283   9.950  19.139  0.00  0.00    +0.000 C 
ATOM     22  C   UNL     1       1.598   8.457  19.307  0.00  0.00    +0.000 C 
ENDBRANCH  15  16
ENDBRANCH   2  15
TORSDOF 4
ENDMDL
MODEL 8
REMARK VINA RESULT:      -6.5      3.092      4.382
REMARK  Name = 
REMARK  4 active torsions:
REMARK  status: ('A' for Active; 'I' for Inactive)
REMARK    1  A    between atoms: C_2  and  C_3
REMARK    2  A    between atoms: C_3  and  N_4
REMARK    3  A    between atoms: N_11  and  C_12
REMARK    4  A    between atoms: C_15  and  N_16
REMARK                            x       y       z     vdW  Elec       q    Type
REMARK                         _______ _______ _______ _____ _____    ______ ____
ROOT
ATOM      1  O   UNL     1       1.862   5.224  18.563  0.00  0.00    +0.000 OA
ATOM      2  C   UNL     1       2.495   6.069  19.206  0.00  0.00    +0.000 C 
ATOM      3  N   UNL     1       3.808   6.395  18.939  0.00  0.00    +0.000 N 
ATOM      4  H   UNL     1       4.357   6.736  19.725  0.00  0.00    +0.000 HD
ENDROOT
BRANCH   3   5
ATOM      5  C   UNL     1       4.496   5.945  17.785  0.00  0.00    +0.000 A 
ATOM      6  C   UNL     1       4.558   6.750  16.641  0.00  0.00    +0.000 A 
ATOM      7  C   UNL     1       5.308   6.353  15.524  0.00  0.00    +0.000 A 
ATOM      8  C   UNL     1       5.983   5.129  15.550  0.00  0.00    +0.000 A 
ATOM      9  C   UNL     1       5.899   4.295  16.671  0.00  0.00    +0.000 A 
ATOM     10  C   UNL     1       5.169   4.714  17.788  0.00  0.00    +0.000 A 
ATOM     11 CL   UNL     1       5.026   3.629  19.128  0.00  0.00    +0.000 Cl
BRANCH   8  12
ATOM     12  N   UNL     1       6.789   4.718  14.390  0.00  0.00    +0.000 N 
ATOM     13  O   UNL     1       7.804   5.381  14.128  0.00  0.00    +0.000 OA
ATOM     14  O   UNL     1       6.415   3.725  13.753  0.00  0.00    +0.000 OA
ENDBRANCH   8  12
ENDBRANCH   3   5
BRANCH   2  15
ATOM     15  C   UNL     1       1.854   6.741  20.423  0.00  0.00    +0.000 C 
BRANCH  15  16
ATOM     16  N   UNL     1       1.655   8.210  20.291  0.00  0.00    +0.000 NA
ATOM     17  C   UNL     1       1.154   8.596  18.965  0.00  0.00    +0.000 C 
ATOM     18  C   UNL     1       1.701   9.980  18.600  0.00  0.00    +0.000 C 
ATOM     19  C   UNL     1       0.964  11.163  19.218  0.00  0.00    +0.000 C 
ATOM     20  C   UNL     1       0.834  11.135  20.739  0.00  0.00    +0.000 C 
ATOM     21  C   UNL     1      -0.008   9.967  21.232  0.00  0.00    +0.000 C 
ATOM     22  C   UNL     1       0.762   8.647  21.386  0.00  0.00    +0.000 C 
ENDBRANCH  15  16
ENDBRANCH   2  15
TORSDOF 4
ENDMDL
MODEL 9
REMARK VINA RESULT:      -6.4      4.358      8.265
REMARK  Name = 
REMARK  4 active torsions:
REMARK  status: ('A' for Active; 'I' for Inactive)
REMARK    1  A    between atoms: C_2  and  C_3
REMARK    2  A    between atoms: C_3  and  N_4
REMARK    3  A    between atoms: N_11  and  C_12
REMARK    4  A    between atoms: C_15  and  N_16
REMARK                            x       y       z     vdW  Elec       q    Type
REMARK                         _______ _______ _______ _____ _____    ______ ____
ROOT
ATOM      1  O   UNL     1       1.394   5.298  19.852  0.00  0.00    +0.000 OA
ATOM      2  C   UNL     1       2.388   5.824  19.337  0.00  0.00    +0.000 C 
ATOM      3  N   UNL     1       2.585   7.188  19.296  0.00  0.00    +0.000 N 
ATOM      4  H   UNL     1       3.148   7.539  18.525  0.00  0.00    +0.000 HD
ENDROOT
BRANCH   3   5
ATOM      5  C   UNL     1       1.776   8.108  20.009  0.00  0.00    +0.000 A 
ATOM      6  C   UNL     1       1.610   7.975  21.393  0.00  0.00    +0.000 A 
ATOM      7  C   UNL     1       0.883   8.927  22.123  0.00  0.00    +0.000 A 
ATOM      8  C   UNL     1       0.301  10.008  21.451  0.00  0.00    +0.000 A 
ATOM      9  C   UNL     1       0.425  10.132  20.063  0.00  0.00    +0.000 A 
ATOM     10  C   UNL     1       1.174   9.190  19.351  0.00  0.00    +0.000 A 
ATOM     11 CL   UNL     1       1.247   9.333  17.629  0.00  0.00    +0.000 Cl
BRANCH   8  12
ATOM     12  N   UNL     1      -0.444  11.021  22.215  0.00  0.00    +0.000 N 
ATOM     13  O   UNL     1      -1.040  11.903  21.577  0.00  0.00    +0.000 OA
ATOM     14  O   UNL     1      -0.447  10.922  23.449  0.00  0.00    +0.000 OA
ENDBRANCH   8  12
ENDBRANCH   3   5
BRANCH   2  15
ATOM     15  C   UNL     1       3.426   4.957  18.620  0.00  0.00    +0.000 C 
BRANCH  15  16
ATOM     16  N   UNL     1       4.767   5.585  18.472  0.00  0.00    +0.000 NA
ATOM     17  C   UNL     1       5.844   4.755  19.028  0.00  0.00    +0.000 C 
ATOM     18  C   UNL     1       6.951   5.662  19.577  0.00  0.00    +0.000 C 
ATOM     19  C   UNL     1       7.920   6.220  18.540  0.00  0.00    +0.000 C 
ATOM     20  C   UNL     1       7.279   6.973  17.379  0.00  0.00    +0.000 C 
ATOM     21  C   UNL     1       6.399   6.079  16.516  0.00  0.00    +0.000 C 
ATOM     22  C   UNL     1       4.968   5.895  17.040  0.00  0.00    +0.000 C 
ENDBRANCH  15  16
ENDBRANCH   2  15
TORSDOF 4
ENDMDL
