MODEL 1
REMARK VINA RESULT:      -7.0      0.000      0.000
REMARK  Name = 
REMARK  7 active torsions:
REMARK  status: ('A' for Active; 'I' for Inactive)
REMARK    1  A    between atoms: C_1  and  C_2
REMARK    2  A    between atoms: C_2  and  C_3
REMARK    3  A    between atoms: C_3  and  C_6
REMARK    4  A    between atoms: N_4  and  O_5
REMARK    5  A    between atoms: C_6  and  C_7
REMARK    6  A    between atoms: C_8  and  C_9
REMARK    7  A    between atoms: C_14  and  C_15
REMARK                            x       y       z     vdW  Elec       q    Type
REMARK                         _______ _______ _______ _____ _____    ______ ____
ROOT
ATOM      1  C   UNL     1       5.000   5.762  17.202  0.00  0.00    +0.000 C 
ATOM      2  C   UNL     1       4.104   6.926  17.501  0.00  0.00    +0.000 C 
ATOM      3  C   UNL     1       4.698   4.489  17.530  0.00  0.00    +0.000 C 
ENDROOT
BRANCH   3   4
ATOM      4  C   UNL     1       3.459   4.094  18.204  0.00  0.00    +0.000 A 
ATOM      5  C   UNL     1       2.301   3.833  17.460  0.00  0.00    +0.000 A 
ATOM      6  C   UNL     1       1.135   3.416  18.104  0.00  0.00    +0.000 A 
ATOM      7  C   UNL     1       1.129   3.259  19.487  0.00  0.00    +0.000 A 
ATOM      8  F   UNL     1       0.001   2.845  20.082  0.00  0.00    +0.000 F 
ATOM      9  C   UNL     1       2.270   3.517  20.251  0.00  0.00    +0.000 A 
ATOM     10  C   UNL     1       2.273   3.333  21.737  0.00  0.00    +0.000 C 
ATOM     11  C   UNL     1       3.436   3.945  19.597  0.00  0.00    +0.000 A 
ENDBRANCH   3   4
BRANCH   1  12
ATOM     12  C   UNL     1       6.338   5.994  16.528  0.00  0.00    +0.000 C 
ATOM     13  N   UNL     1       6.551   5.429  15.368  0.00  0.00    +0.000 NA
BRANCH  12  15
ATOM     14  C   UNL     1       7.781   6.327  18.611  0.00  0.00    +0.000 C 
ATOM     15  C   UNL     1       7.384   6.859  17.244  0.00  0.00    +0.000 C 
ENDBRANCH  12  15
BRANCH  13  16
ATOM     16  O   UNL     1       7.817   5.702  14.850  0.00  0.00    +0.000 OA
ATOM     17  H   UNL     1       8.374   5.695  15.651  0.00  0.00    +0.000 HD
ENDBRANCH  13  16
ENDBRANCH   1  12
TORSDOF 4
ENDMDL
MODEL 2
REMARK VINA RESULT:      -6.9      3.854      6.079
REMARK  Name = 
REMARK  7 active torsions:
REMARK  status: ('A' for Active; 'I' for Inactive)
REMARK    1  A    between atoms: C_1  and  C_2
REMARK    2  A    between atoms: C_2  and  C_3
REMARK    3  A    between atoms: C_3  and  C_6
REMARK    4  A    between atoms: N_4  and  O_5
REMARK    5  A    between atoms: C_6  and  C_7
REMARK    6  A    between atoms: C_8  and  C_9
REMARK    7  A    between atoms: C_14  and  C_15
REMARK                            x       y       z     vdW  Elec       q    Type
REMARK                         _______ _______ _______ _____ _____    ______ ____
ROOT
ATOM      1  C   UNL     1       2.656   4.494  18.982  0.00  0.00    +0.000 C 
ATOM      2  C   UNL     1       2.564   5.810  19.693  0.00  0.00    +0.000 C 
ATOM      3  C   UNL     1       3.675   4.162  18.162  0.00  0.00    +0.000 C 
ENDROOT
BRANCH   3   4
ATOM      4  C   UNL     1       4.811   5.042  17.879  0.00  0.00    +0.000 A 
ATOM      5  C   UNL     1       4.764   5.933  16.799  0.00  0.00    +0.000 A 
ATOM      6  C   UNL     1       5.832   6.799  16.560  0.00  0.00    +0.000 A 
ATOM      7  C   UNL     1       6.941   6.774  17.400  0.00  0.00    +0.000 A 
ATOM      8  F   UNL     1       7.950   7.625  17.158  0.00  0.00    +0.000 F 
ATOM      9  C   UNL     1       7.013   5.892  18.481  0.00  0.00    +0.000 A 
ATOM     10  C   UNL     1       8.198   5.874  19.397  0.00  0.00    +0.000 C 
ATOM     11  C   UNL     1       5.940   5.018  18.709  0.00  0.00    +0.000 A 
ENDBRANCH   3   4
BRANCH   1  12
ATOM     12  C   UNL     1       1.548   3.472  19.143  0.00  0.00    +0.000 C 
ATOM     13  N   UNL     1       1.247   2.721  18.114  0.00  0.00    +0.000 NA
BRANCH  12  15
ATOM     14  C   UNL     1       1.642   2.714  21.581  0.00  0.00    +0.000 C 
ATOM     15  C   UNL     1       0.820   3.379  20.490  0.00  0.00    +0.000 C 
ENDBRANCH  12  15
BRANCH  13  16
ATOM     16  O   UNL     1       0.208   1.827  18.374  0.00  0.00    +0.000 OA
ATOM     17  H   UNL     1       0.690   1.009  18.600  0.00  0.00    +0.000 HD
ENDBRANCH  13  16
ENDBRANCH   1  12
TORSDOF 4
ENDMDL
MODEL 3
REMARK VINA RESULT:      -6.8      1.569      2.173
REMARK  Name = 
REMARK  7 active torsions:
REMARK  status: ('A' for Active; 'I' for Inactive)
REMARK    1  A    between atoms: C_1  and  C_2
REMARK    2  A    between atoms: C_2  and  C_3
REMARK    3  A    between atoms: C_3  and  C_6
REMARK    4  A    between atoms: N_4  and  O_5
REMARK    5  A    between atoms: C_6  and  C_7
REMARK    6  A    between atoms: C_8  and  C_9
REMARK    7  A    between atoms: C_14  and  C_15
REMARK                            x       y       z     vdW  Elec       q    Type
REMARK                         _______ _______ _______ _____ _____    ______ ____
ROOT
ATOM      1  C   UNL     1       5.138   4.896  16.324  0.00  0.00    +0.000 C 
ATOM      2  C   UNL     1       4.790   6.216  16.942  0.00  0.00    +0.000 C 
ATOM      3  C   UNL     1       4.544   3.735  16.669  0.00  0.00    +0.000 C 
ENDROOT
BRANCH   3   4
ATOM      4  C   UNL     1       3.486   3.630  17.677  0.00  0.00    +0.000 A 
ATOM      5  C   UNL     1       2.159   3.929  17.342  0.00  0.00    +0.000 A 
ATOM      6  C   UNL     1       1.149   3.786  18.294  0.00  0.00    +0.000 A 
ATOM      7  C   UNL     1       1.466   3.343  19.575  0.00  0.00    +0.000 A 
ATOM      8  F   UNL     1       0.476   3.201  20.469  0.00  0.00    +0.000 F 
ATOM      9  C   UNL     1       2.782   3.042  19.933  0.00  0.00    +0.000 A 
ATOM     10  C   UNL     1       3.125   2.550  21.305  0.00  0.00    +0.000 C 
ATOM     11  C   UNL     1       3.793   3.198  18.973  0.00  0.00    +0.000 A 
ENDBRANCH   3   4
BRANCH   1  12
ATOM     12  C   UNL     1       6.234   4.818  15.279  0.00  0.00    +0.000 C 
ATOM     13  N   UNL     1       7.155   5.747  15.280  0.00  0.00    +0.000 NA
BRANCH  12  15
ATOM     14  C   UNL     1       5.318   3.954  13.055  0.00  0.00    +0.000 C 
ATOM     15  C   UNL     1       6.201   3.672  14.260  0.00  0.00    +0.000 C 
ENDBRANCH  12  15
BRANCH  13  16
ATOM     16  O   UNL     1       8.102   5.581  14.269  0.00  0.00    +0.000 OA
ATOM     17  H   UNL     1       8.598   6.420  14.310  0.00  0.00    +0.000 HD
ENDBRANCH  13  16
ENDBRANCH   1  12
TORSDOF 4
ENDMDL
MODEL 4
REMARK VINA RESULT:      -6.8      1.859      2.545
REMARK  Name = 
REMARK  7 active torsions:
REMARK  status: ('A' for Active; 'I' for Inactive)
REMARK    1  A    between atoms: C_1  and  C_2
REMARK    2  A    between atoms: C_2  and  C_3
REMARK    3  A    between atoms: C_3  and  C_6
REMARK    4  A    between atoms: N_4  and  O_5
REMARK    5  A    between atoms: C_6  and  C_7
REMARK    6  A    between atoms: C_8  and  C_9
REMARK    7  A    between atoms: C_14  and  C_15
REMARK                            x       y       z     vdW  Elec       q    Type
REMARK                         _______ _______ _______ _____ _____    ______ ____
ROOT
ATOM      1  C   UNL     1       5.699   4.440  16.543  0.00  0.00    +0.000 C 
ATOM      2  C   UNL     1       6.476   4.415  17.825  0.00  0.00    +0.000 C 
ATOM      3  C   UNL     1       4.398   4.096  16.456  0.00  0.00    +0.000 C 
ENDROOT
BRANCH   3   4
ATOM      4  C   UNL     1       3.591   3.670  17.602  0.00  0.00    +0.000 A 
ATOM      5  C   UNL     1       3.420   2.307  17.879  0.00  0.00    +0.000 A 
ATOM      6  C   UNL     1       2.686   1.908  18.997  0.00  0.00    +0.000 A 
ATOM      7  C   UNL     1       2.127   2.868  19.834  0.00  0.00    +0.000 A 
ATOM      8  F   UNL     1       1.436   2.460  20.909  0.00  0.00    +0.000 F 
ATOM      9  C   UNL     1       2.281   4.233  19.577  0.00  0.00    +0.000 A 
ATOM     10  C   UNL     1       1.695   5.270  20.485  0.00  0.00    +0.000 C 
ATOM     11  C   UNL     1       3.012   4.626  18.446  0.00  0.00    +0.000 A 
ENDBRANCH   3   4
BRANCH   1  12
ATOM     12  C   UNL     1       6.389   4.833  15.251  0.00  0.00    +0.000 C 
ATOM     13  N   UNL     1       7.599   5.325  15.322  0.00  0.00    +0.000 NA
BRANCH  12  15
ATOM     14  C   UNL     1       6.087   3.449  13.124  0.00  0.00    +0.000 C 
ATOM     15  C   UNL     1       5.633   4.656  13.928  0.00  0.00    +0.000 C 
ENDBRANCH  12  15
BRANCH  13  16
ATOM     16  O   UNL     1       8.128   5.662  14.076  0.00  0.00    +0.000 OA
ATOM     17  H   UNL     1       8.595   6.497  14.268  0.00  0.00    +0.000 HD
ENDBRANCH  13  16
ENDBRANCH   1  12
TORSDOF 4
ENDMDL
MODEL 5
REMARK VINA RESULT:      -6.7      1.828      2.746
REMARK  Name = 
REMARK  7 active torsions:
REMARK  status: ('A' for Active; 'I' for Inactive)
REMARK    1  A    between atoms: C_1  and  C_2
REMARK    2  A    between atoms: C_2  and  C_3
REMARK    3  A    between atoms: C_3  and  C_6
REMARK    4  A    between atoms: N_4  and  O_5
REMARK    5  A    between atoms: C_6  and  C_7
REMARK    6  A    between atoms: C_8  and  C_9
REMARK    7  A    between atoms: C_14  and  C_15
REMARK                            x       y       z     vdW  Elec       q    Type
REMARK                         _______ _______ _______ _____ _____    ______ ____
ROOT
ATOM      1  C   UNL     1       5.788   4.658  16.618  0.00  0.00    +0.000 C 
ATOM      2  C   UNL     1       6.448   4.376  17.934  0.00  0.00    +0.000 C 
ATOM      3  C   UNL     1       4.457   4.822  16.475  0.00  0.00    +0.000 C 
ENDROOT
BRANCH   3   4
ATOM      4  C   UNL     1       3.505   4.754  17.586  0.00  0.00    +0.000 A 
ATOM      5  C   UNL     1       3.396   5.819  18.490  0.00  0.00    +0.000 A 
ATOM      6  C   UNL     1       2.457   5.767  19.522  0.00  0.00    +0.000 A 
ATOM      7  C   UNL     1       1.629   4.656  19.645  0.00  0.00    +0.000 A 
ATOM      8  F   UNL     1       0.726   4.634  20.636  0.00  0.00    +0.000 F 
ATOM      9  C   UNL     1       1.721   3.581  18.758  0.00  0.00    +0.000 A 
ATOM     10  C   UNL     1       0.820   2.390  18.878  0.00  0.00    +0.000 C 
ATOM     11  C   UNL     1       2.674   3.636  17.730  0.00  0.00    +0.000 A 
ENDBRANCH   3   4
BRANCH   1  12
ATOM     12  C   UNL     1       6.625   4.736  15.356  0.00  0.00    +0.000 C 
ATOM     13  N   UNL     1       7.489   5.713  15.248  0.00  0.00    +0.000 NA
BRANCH  12  15
ATOM     14  C   UNL     1       5.346   4.076  13.245  0.00  0.00    +0.000 C 
ATOM     15  C   UNL     1       6.407   3.685  14.261  0.00  0.00    +0.000 C 
ENDBRANCH  12  15
BRANCH  13  16
ATOM     16  O   UNL     1       8.193   5.691  14.043  0.00  0.00    +0.000 OA
ATOM     17  H   UNL     1       7.686   6.321  13.497  0.00  0.00    +0.000 HD
ENDBRANCH  13  16
ENDBRANCH   1  12
TORSDOF 4
ENDMDL
MODEL 6
REMARK VINA RESULT:      -6.6      1.792      2.719
REMARK  Name = 
REMARK  7 active torsions:
REMARK  status: ('A' for Active; 'I' for Inactive)
REMARK    1  A    between atoms: C_1  and  C_2
REMARK    2  A    between atoms: C_2  and  C_3
REMARK    3  A    between atoms: C_3  and  C_6
REMARK    4  A    between atoms: N_4  and  O_5
REMARK    5  A    between atoms: C_6  and  C_7
REMARK    6  A    between atoms: C_8  and  C_9
REMARK    7  A    between atoms: C_14  and  C_15
REMARK                            x       y       z     vdW  Elec       q    Type
REMARK                         _______ _______ _______ _____ _____    ______ ____
ROOT
ATOM      1  C   UNL     1       5.355   5.167  16.064  0.00  0.00    +0.000 C 
ATOM      2  C   UNL     1       4.799   6.546  16.255  0.00  0.00    +0.000 C 
ATOM      3  C   UNL     1       4.980   4.106  16.808  0.00  0.00    +0.000 C 
ENDROOT
BRANCH   3   4
ATOM      4  C   UNL     1       3.984   4.174  17.879  0.00  0.00    +0.000 A 
ATOM      5  C   UNL     1       4.140   5.083  18.933  0.00  0.00    +0.000 A 
ATOM      6  C   UNL     1       3.165   5.174  19.928  0.00  0.00    +0.000 A 
ATOM      7  C   UNL     1       2.039   4.360  19.867  0.00  0.00    +0.000 A 
ATOM      8  F   UNL     1       1.110   4.474  20.828  0.00  0.00    +0.000 F 
ATOM      9  C   UNL     1       1.863   3.443  18.828  0.00  0.00    +0.000 A 
ATOM     10  C   UNL     1       0.644   2.576  18.749  0.00  0.00    +0.000 C 
ATOM     11  C   UNL     1       2.851   3.351  17.837  0.00  0.00    +0.000 A 
ENDBRANCH   3   4
BRANCH   1  12
ATOM     12  C   UNL     1       6.419   4.922  15.012  0.00  0.00    +0.000 C 
ATOM     13  N   UNL     1       7.413   5.768  14.931  0.00  0.00    +0.000 NA
BRANCH  12  15
ATOM     14  C   UNL     1       5.230   3.906  12.991  0.00  0.00    +0.000 C 
ATOM     15  C   UNL     1       6.271   3.711  14.081  0.00  0.00    +0.000 C 
ENDBRANCH  12  15
BRANCH  13  16
ATOM     16  O   UNL     1       8.323   5.450  13.923  0.00  0.00    +0.000 OA
ATOM     17  H   UNL     1       8.549   6.329  13.563  0.00  0.00    +0.000 HD
ENDBRANCH  13  16
ENDBRANCH   1  12
TORSDOF 4
ENDMDL
MODEL 7
REMARK VINA RESULT:      -6.6      4.201      6.423
REMARK  Name = 
REMARK  7 active torsions:
REMARK  status: ('A' for Active; 'I' for Inactive)
REMARK    1  A    between atoms: C_1  and  C_2
REMARK    2  A    between atoms: C_2  and  C_3
REMARK    3  A    between atoms: C_3  and  C_6
REMARK    4  A    between atoms: N_4  and  O_5
REMARK    5  A    between atoms: C_6  and  C_7
REMARK    6  A    between atoms: C_8  and  C_9
REMARK    7  A    between atoms: C_14  and  C_15
REMARK                            x       y       z     vdW  Elec       q    Type
REMARK                         _______ _______ _______ _____ _____    ______ ____
ROOT
ATOM      1  C   UNL     1       3.461   3.214  19.692  0.00  0.00    +0.000 C 
ATOM      2  C   UNL     1       4.630   2.290  19.853  0.00  0.00    +0.000 C 
ATOM      3  C   UNL     1       3.434   4.230  18.804  0.00  0.00    +0.000 C 
ENDROOT
BRANCH   3   4
ATOM      4  C   UNL     1       4.535   4.540  17.889  0.00  0.00    +0.000 A 
ATOM      5  C   UNL     1       4.624   3.898  16.647  0.00  0.00    +0.000 A 
ATOM      6  C   UNL     1       5.651   4.230  15.762  0.00  0.00    +0.000 A 
ATOM      7  C   UNL     1       6.582   5.201  16.117  0.00  0.00    +0.000 A 
ATOM      8  F   UNL     1       7.552   5.511  15.244  0.00  0.00    +0.000 F 
ATOM      9  C   UNL     1       6.516   5.852  17.351  0.00  0.00    +0.000 A 
ATOM     10  C   UNL     1       7.506   6.909  17.731  0.00  0.00    +0.000 C 
ATOM     11  C   UNL     1       5.486   5.506  18.240  0.00  0.00    +0.000 A 
ENDBRANCH   3   4
BRANCH   1  12
ATOM     12  C   UNL     1       2.244   3.051  20.580  0.00  0.00    +0.000 C 
ATOM     13  N   UNL     1       2.432   2.704  21.828  0.00  0.00    +0.000 NA
BRANCH  12  15
ATOM     14  C   UNL     1       0.538   2.351  18.812  0.00  0.00    +0.000 C 
ATOM     15  C   UNL     1       0.853   3.278  19.974  0.00  0.00    +0.000 C 
ENDBRANCH  12  15
BRANCH  13  16
ATOM     16  O   UNL     1       1.242   2.573  22.545  0.00  0.00    +0.000 OA
ATOM     17  H   UNL     1       1.465   1.874  23.189  0.00  0.00    +0.000 HD
ENDBRANCH  13  16
ENDBRANCH   1  12
TORSDOF 4
ENDMDL
MODEL 8
REMARK VINA RESULT:      -6.5      4.188      6.432
REMARK  Name = 
REMARK  7 active torsions:
REMARK  status: ('A' for Active; 'I' for Inactive)
REMARK    1  A    between atoms: C_1  and  C_2
REMARK    2  A    between atoms: C_2  and  C_3
REMARK    3  A    between atoms: C_3  and  C_6
REMARK    4  A    between atoms: N_4  and  O_5
REMARK    5  A    between atoms: C_6  and  C_7
REMARK    6  A    between atoms: C_8  and  C_9
REMARK    7  A    between atoms: C_14  and  C_15
REMARK                            x       y       z     vdW  Elec       q    Type
REMARK                         _______ _______ _______ _____ _____    ______ ____
ROOT
ATOM      1  C   UNL     1       3.092   4.330  19.212  0.00  0.00    +0.000 C 
ATOM      2  C   UNL     1       2.744   5.690  18.686  0.00  0.00    +0.000 C 
ATOM      3  C   UNL     1       4.156   3.619  18.785  0.00  0.00    +0.000 C 
ENDROOT
BRANCH   3   4
ATOM      4  C   UNL     1       5.098   4.094  17.769  0.00  0.00    +0.000 A 
ATOM      5  C   UNL     1       6.285   4.733  18.149  0.00  0.00    +0.000 A 
ATOM      6  C   UNL     1       7.199   5.145  17.178  0.00  0.00    +0.000 A 
ATOM      7  C   UNL     1       6.926   4.917  15.833  0.00  0.00    +0.000 A 
ATOM      8  F   UNL     1       7.825   5.311  14.919  0.00  0.00    +0.000 F 
ATOM      9  C   UNL     1       5.747   4.286  15.429  0.00  0.00    +0.000 A 
ATOM     10  C   UNL     1       5.457   4.024  13.984  0.00  0.00    +0.000 C 
ATOM     11  C   UNL     1       4.829   3.883  16.411  0.00  0.00    +0.000 A 
ENDBRANCH   3   4
BRANCH   1  12
ATOM     12  C   UNL     1       2.206   3.675  20.254  0.00  0.00    +0.000 C 
ATOM     13  N   UNL     1       2.712   3.445  21.438  0.00  0.00    +0.000 NA
BRANCH  12  15
ATOM     14  C   UNL     1       0.695   2.286  18.731  0.00  0.00    +0.000 C 
ATOM     15  C   UNL     1       0.771   3.293  19.867  0.00  0.00    +0.000 C 
ENDBRANCH  12  15
BRANCH  13  16
ATOM     16  O   UNL     1       1.812   2.829  22.308  0.00  0.00    +0.000 OA
ATOM     17  H   UNL     1       1.896   3.376  23.113  0.00  0.00    +0.000 HD
ENDBRANCH  13  16
ENDBRANCH   1  12
TORSDOF 4
ENDMDL
MODEL 9
REMARK VINA RESULT:      -6.5      1.865      2.487
REMARK  Name = 
REMARK  7 active torsions:
REMARK  status: ('A' for Active; 'I' for Inactive)
REMARK    1  A    between atoms: C_1  and  C_2
REMARK    2  A    between atoms: C_2  and  C_3
REMARK    3  A    between atoms: C_3  and  C_6
REMARK    4  A    between atoms: N_4  and  O_5
REMARK    5  A    between atoms: C_6  and  C_7
REMARK    6  A    between atoms: C_8  and  C_9
REMARK    7  A    between atoms: C_14  and  C_15
REMARK                            x       y       z     vdW  Elec       q    Type
REMARK                         _______ _______ _______ _____ _____    ______ ____
ROOT
ATOM      1  C   UNL     1       5.141   5.069  15.954  0.00  0.00    +0.000 C 
ATOM      2  C   UNL     1       4.746   6.458  16.357  0.00  0.00    +0.000 C 
ATOM      3  C   UNL     1       4.548   3.959  16.438  0.00  0.00    +0.000 C 
ENDROOT
BRANCH   3   4
ATOM      4  C   UNL     1       3.446   3.979  17.403  0.00  0.00    +0.000 A 
ATOM      5  C   UNL     1       2.534   2.917  17.457  0.00  0.00    +0.000 A 
ATOM      6  C   UNL     1       1.511   2.921  18.406  0.00  0.00    +0.000 A 
ATOM      7  C   UNL     1       1.403   3.983  19.299  0.00  0.00    +0.000 A 
ATOM      8  F   UNL     1       0.420   3.959  20.210  0.00  0.00    +0.000 F 
ATOM      9  C   UNL     1       2.298   5.055  19.262  0.00  0.00    +0.000 A 
ATOM     10  C   UNL     1       2.195   6.192  20.231  0.00  0.00    +0.000 C 
ATOM     11  C   UNL     1       3.318   5.048  18.298  0.00  0.00    +0.000 A 
ENDBRANCH   3   4
BRANCH   1  12
ATOM     12  C   UNL     1       6.285   4.864  14.981  0.00  0.00    +0.000 C 
ATOM     13  N   UNL     1       7.267   5.729  14.991  0.00  0.00    +0.000 NA
BRANCH  12  15
ATOM     14  C   UNL     1       5.272   3.868  12.857  0.00  0.00    +0.000 C 
ATOM     15  C   UNL     1       6.230   3.669  14.020  0.00  0.00    +0.000 C 
ENDBRANCH  12  15
BRANCH  13  16
ATOM     16  O   UNL     1       8.255   5.446  14.047  0.00  0.00    +0.000 OA
ATOM     17  H   UNL     1       9.053   5.359  14.603  0.00  0.00    +0.000 HD
ENDBRANCH  13  16
ENDBRANCH   1  12
TORSDOF 4
ENDMDL
