MODEL 1
REMARK VINA RESULT:      -7.8      0.000      0.000
REMARK  Name = 
REMARK  7 active torsions:
REMARK  status: ('A' for Active; 'I' for Inactive)
REMARK    1  A    between atoms: C_1  and  C_2
REMARK    2  A    between atoms: C_2  and  C_3
REMARK    3  A    between atoms: C_3  and  C_4
REMARK    4  A    between atoms: C_4  and  N_5
REMARK    5  A    between atoms: C_6  and  C_8
REMARK    6  A    between atoms: C_13  and  C_14
REMARK    7  A    between atoms: C_18  and  C_19
REMARK                            x       y       z     vdW  Elec       q    Type
REMARK                         _______ _______ _______ _____ _____    ______ ____
ROOT
ATOM      1  N   UNL     1       6.490   5.904  17.805  0.00  0.00    +0.000 N 
ATOM      2  C   UNL     1       5.615   5.346  18.773  0.00  0.00    +0.000 C 
ATOM      3  O   UNL     1       5.883   5.396  19.966  0.00  0.00    +0.000 OA
ATOM      4  C   UNL     1       6.279   5.689  16.457  0.00  0.00    +0.000 A 
ATOM      5  N   UNL     1       5.808   6.568  15.603  0.00  0.00    +0.000 NA
ATOM      6  N   UNL     1       5.513   5.979  14.394  0.00  0.00    +0.000 NA
ATOM      7  C   UNL     1       5.897   4.715  14.335  0.00  0.00    +0.000 A 
ATOM      8  S   UNL     1       6.645   4.164  15.793  0.00  0.00    +0.000 S 
ENDROOT
BRANCH   2   9
ATOM      9  C   UNL     1       4.300   4.681  18.363  0.00  0.00    +0.000 A 
ATOM     10  C   UNL     1       4.258   3.283  18.217  0.00  0.00    +0.000 A 
ATOM     11  C   UNL     1       3.054   2.591  18.082  0.00  0.00    +0.000 A 
ATOM     12  C   UNL     1       1.872   3.299  17.958  0.00  0.00    +0.000 A 
ATOM     13  C   UNL     1       1.907   4.689  17.926  0.00  0.00    +0.000 A 
ATOM     14  C   UNL     1       3.115   5.404  18.101  0.00  0.00    +0.000 A 
ATOM     15  C   UNL     1       3.022   6.903  18.010  0.00  0.00    +0.000 C 
ENDBRANCH   2   9
BRANCH   7  16
ATOM     16  C   UNL     1       5.751   3.869  13.148  0.00  0.00    +0.000 A 
ATOM     17  C   UNL     1       4.538   3.634  12.489  0.00  0.00    +0.000 A 
ATOM     18  C   UNL     1       4.500   2.792  11.378  0.00  0.00    +0.000 A 
ATOM     19  C   UNL     1       5.679   2.208  10.948  0.00  0.00    +0.000 A 
ATOM     20  N   UNL     1       6.873   2.422  11.538  0.00  0.00    +0.000 NA
ATOM     21  C   UNL     1       6.879   3.244  12.615  0.00  0.00    +0.000 A 
ENDBRANCH   7  16
BRANCH   1  22
ATOM     22  C   UNL     1       7.707   6.616  18.230  0.00  0.00    +0.000 C 
BRANCH  22  23
ATOM     23  C   UNL     1       7.819   8.070  17.759  0.00  0.00    +0.000 C 
BRANCH  23  25
ATOM     24  C   UNL     1       8.865  10.339  18.108  0.00  0.00    +0.000 C 
ATOM     25  C   UNL     1       8.662   8.944  18.687  0.00  0.00    +0.000 C 
ENDBRANCH  23  25
ENDBRANCH  22  23
ENDBRANCH   1  22
TORSDOF 5
ENDMDL
MODEL 2
REMARK VINA RESULT:      -6.8      3.400      6.654
REMARK  Name = 
REMARK  7 active torsions:
REMARK  status: ('A' for Active; 'I' for Inactive)
REMARK    1  A    between atoms: C_1  and  C_2
REMARK    2  A    between atoms: C_2  and  C_3
REMARK    3  A    between atoms: C_3  and  C_4
REMARK    4  A    between atoms: C_4  and  N_5
REMARK    5  A    between atoms: C_6  and  C_8
REMARK    6  A    between atoms: C_13  and  C_14
REMARK    7  A    between atoms: C_18  and  C_19
REMARK                            x       y       z     vdW  Elec       q    Type
REMARK                         _______ _______ _______ _____ _____    ______ ____
ROOT
ATOM      1  N   UNL     1       4.277   3.547  17.562  0.00  0.00    +0.000 N 
ATOM      2  C   UNL     1       3.648   2.398  18.108  0.00  0.00    +0.000 C 
ATOM      3  O   UNL     1       3.757   1.306  17.569  0.00  0.00    +0.000 OA
ATOM      4  C   UNL     1       4.007   4.805  18.065  0.00  0.00    +0.000 A 
ATOM      5  N   UNL     1       4.806   5.516  18.825  0.00  0.00    +0.000 NA
ATOM      6  N   UNL     1       4.159   6.621  19.333  0.00  0.00    +0.000 NA
ATOM      7  C   UNL     1       2.945   6.775  18.831  0.00  0.00    +0.000 A 
ATOM      8  S   UNL     1       2.518   5.544  17.696  0.00  0.00    +0.000 S 
ENDROOT
BRANCH   2   9
ATOM      9  C   UNL     1       2.829   2.481  19.398  0.00  0.00    +0.000 A 
ATOM     10  C   UNL     1       3.498   2.468  20.634  0.00  0.00    +0.000 A 
ATOM     11  C   UNL     1       2.848   2.777  21.830  0.00  0.00    +0.000 A 
ATOM     12  C   UNL     1       1.479   2.977  21.827  0.00  0.00    +0.000 A 
ATOM     13  C   UNL     1       0.767   2.824  20.642  0.00  0.00    +0.000 A 
ATOM     14  C   UNL     1       1.418   2.550  19.416  0.00  0.00    +0.000 A 
ATOM     15  C   UNL     1       0.530   2.372  18.215  0.00  0.00    +0.000 C 
ENDBRANCH   2   9
BRANCH   7  16
ATOM     16  C   UNL     1       2.060   7.895  19.160  0.00  0.00    +0.000 A 
ATOM     17  C   UNL     1       1.637   8.865  18.244  0.00  0.00    +0.000 A 
ATOM     18  C   UNL     1       0.811   9.909  18.663  0.00  0.00    +0.000 A 
ATOM     19  C   UNL     1       0.423   9.953  19.991  0.00  0.00    +0.000 A 
ATOM     20  N   UNL     1       0.788   9.030  20.904  0.00  0.00    +0.000 NA
ATOM     21  C   UNL     1       1.590   8.029  20.468  0.00  0.00    +0.000 A 
ENDBRANCH   7  16
BRANCH   1  22
ATOM     22  C   UNL     1       5.132   3.426  16.369  0.00  0.00    +0.000 C 
BRANCH  22  23
ATOM     23  C   UNL     1       5.423   4.737  15.631  0.00  0.00    +0.000 C 
BRANCH  23  25
ATOM     24  C   UNL     1       6.134   3.763  13.415  0.00  0.00    +0.000 C 
ATOM     25  C   UNL     1       6.552   4.616  14.607  0.00  0.00    +0.000 C 
ENDBRANCH  23  25
ENDBRANCH  22  23
ENDBRANCH   1  22
TORSDOF 5
ENDMDL
MODEL 3
REMARK VINA RESULT:      -6.7      3.452      7.383
REMARK  Name = 
REMARK  7 active torsions:
REMARK  status: ('A' for Active; 'I' for Inactive)
REMARK    1  A    between atoms: C_1  and  C_2
REMARK    2  A    between atoms: C_2  and  C_3
REMARK    3  A    between atoms: C_3  and  C_4
REMARK    4  A    between atoms: C_4  and  N_5
REMARK    5  A    between atoms: C_6  and  C_8
REMARK    6  A    between atoms: C_13  and  C_14
REMARK    7  A    between atoms: C_18  and  C_19
REMARK                            x       y       z     vdW  Elec       q    Type
REMARK                         _______ _______ _______ _____ _____    ______ ____
ROOT
ATOM      1  N   UNL     1       3.299   3.549  18.859  0.00  0.00    +0.000 N 
ATOM      2  C   UNL     1       4.712   3.419  18.888  0.00  0.00    +0.000 C 
ATOM      3  O   UNL     1       5.240   2.390  19.285  0.00  0.00    +0.000 OA
ATOM      4  C   UNL     1       2.708   4.767  18.585  0.00  0.00    +0.000 A 
ATOM      5  N   UNL     1       2.121   5.101  17.460  0.00  0.00    +0.000 NA
ATOM      6  N   UNL     1       1.832   6.447  17.428  0.00  0.00    +0.000 NA
ATOM      7  C   UNL     1       2.085   7.050  18.578  0.00  0.00    +0.000 A 
ATOM      8  S   UNL     1       2.715   5.980  19.781  0.00  0.00    +0.000 S 
ENDROOT
BRANCH   2   9
ATOM      9  C   UNL     1       5.622   4.551  18.407  0.00  0.00    +0.000 A 
ATOM     10  C   UNL     1       6.282   5.348  19.359  0.00  0.00    +0.000 A 
ATOM     11  C   UNL     1       7.301   6.232  19.003  0.00  0.00    +0.000 A 
ATOM     12  C   UNL     1       7.590   6.434  17.665  0.00  0.00    +0.000 A 
ATOM     13  C   UNL     1       6.831   5.786  16.696  0.00  0.00    +0.000 A 
ATOM     14  C   UNL     1       5.823   4.857  17.043  0.00  0.00    +0.000 A 
ATOM     15  C   UNL     1       5.052   4.252  15.901  0.00  0.00    +0.000 C 
ENDBRANCH   2   9
BRANCH   7  16
ATOM     16  C   UNL     1       1.821   8.467  18.833  0.00  0.00    +0.000 A 
ATOM     17  C   UNL     1       2.077   9.497  17.921  0.00  0.00    +0.000 A 
ATOM     18  C   UNL     1       1.812  10.822  18.270  0.00  0.00    +0.000 A 
ATOM     19  C   UNL     1       1.290  11.084  19.525  0.00  0.00    +0.000 A 
ATOM     20  N   UNL     1       1.007  10.123  20.428  0.00  0.00    +0.000 NA
ATOM     21  C   UNL     1       1.275   8.846  20.061  0.00  0.00    +0.000 A 
ENDBRANCH   7  16
BRANCH   1  22
ATOM     22  C   UNL     1       2.444   2.414  19.244  0.00  0.00    +0.000 C 
BRANCH  22  23
ATOM     23  C   UNL     1       1.073   2.786  19.821  0.00  0.00    +0.000 C 
BRANCH  23  25
ATOM     24  C   UNL     1       2.451   2.623  21.928  0.00  0.00    +0.000 C 
ATOM     25  C   UNL     1       1.075   2.919  21.344  0.00  0.00    +0.000 C 
ENDBRANCH  23  25
ENDBRANCH  22  23
ENDBRANCH   1  22
TORSDOF 5
ENDMDL
MODEL 4
REMARK VINA RESULT:      -6.7      0.436      1.420
REMARK  Name = 
REMARK  7 active torsions:
REMARK  status: ('A' for Active; 'I' for Inactive)
REMARK    1  A    between atoms: C_1  and  C_2
REMARK    2  A    between atoms: C_2  and  C_3
REMARK    3  A    between atoms: C_3  and  C_4
REMARK    4  A    between atoms: C_4  and  N_5
REMARK    5  A    between atoms: C_6  and  C_8
REMARK    6  A    between atoms: C_13  and  C_14
REMARK    7  A    between atoms: C_18  and  C_19
REMARK                            x       y       z     vdW  Elec       q    Type
REMARK                         _______ _______ _______ _____ _____    ______ ____
ROOT
ATOM      1  N   UNL     1       6.474   5.932  17.941  0.00  0.00    +0.000 N 
ATOM      2  C   UNL     1       5.611   5.394  18.931  0.00  0.00    +0.000 C 
ATOM      3  O   UNL     1       5.915   5.429  20.115  0.00  0.00    +0.000 OA
ATOM      4  C   UNL     1       6.218   5.730  16.599  0.00  0.00    +0.000 A 
ATOM      5  N   UNL     1       5.749   6.627  15.763  0.00  0.00    +0.000 NA
ATOM      6  N   UNL     1       5.402   6.054  14.559  0.00  0.00    +0.000 NA
ATOM      7  C   UNL     1       5.747   4.779  14.484  0.00  0.00    +0.000 A 
ATOM      8  S   UNL     1       6.520   4.199  15.917  0.00  0.00    +0.000 S 
ENDROOT
BRANCH   2   9
ATOM      9  C   UNL     1       4.266   4.769  18.556  0.00  0.00    +0.000 A 
ATOM     10  C   UNL     1       3.229   5.602  18.101  0.00  0.00    +0.000 A 
ATOM     11  C   UNL     1       2.069   5.088  17.520  0.00  0.00    +0.000 A 
ATOM     12  C   UNL     1       1.865   3.720  17.505  0.00  0.00    +0.000 A 
ATOM     13  C   UNL     1       2.799   2.882  18.106  0.00  0.00    +0.000 A 
ATOM     14  C   UNL     1       3.997   3.387  18.663  0.00  0.00    +0.000 A 
ATOM     15  C   UNL     1       4.906   2.379  19.314  0.00  0.00    +0.000 C 
ENDBRANCH   2   9
BRANCH   7  16
ATOM     16  C   UNL     1       5.542   3.946  13.297  0.00  0.00    +0.000 A 
ATOM     17  C   UNL     1       4.344   3.878  12.575  0.00  0.00    +0.000 A 
ATOM     18  C   UNL     1       4.242   3.032  11.470  0.00  0.00    +0.000 A 
ATOM     19  C   UNL     1       5.345   2.277  11.110  0.00  0.00    +0.000 A 
ATOM     20  N   UNL     1       6.524   2.325  11.763  0.00  0.00    +0.000 NA
ATOM     21  C   UNL     1       6.594   3.155  12.832  0.00  0.00    +0.000 A 
ENDBRANCH   7  16
BRANCH   1  22
ATOM     22  C   UNL     1       7.723   6.605  18.334  0.00  0.00    +0.000 C 
BRANCH  22  23
ATOM     23  C   UNL     1       7.888   8.040  17.820  0.00  0.00    +0.000 C 
BRANCH  23  25
ATOM     24  C   UNL     1       8.873  10.332  18.190  0.00  0.00    +0.000 C 
ATOM     25  C   UNL     1       8.734   8.918  18.742  0.00  0.00    +0.000 C 
ENDBRANCH  23  25
ENDBRANCH  22  23
ENDBRANCH   1  22
TORSDOF 5
ENDMDL
MODEL 5
REMARK VINA RESULT:      -6.6      3.521      6.494
REMARK  Name = 
REMARK  7 active torsions:
REMARK  status: ('A' for Active; 'I' for Inactive)
REMARK    1  A    between atoms: C_1  and  C_2
REMARK    2  A    between atoms: C_2  and  C_3
REMARK    3  A    between atoms: C_3  and  C_4
REMARK    4  A    between atoms: C_4  and  N_5
REMARK    5  A    between atoms: C_6  and  C_8
REMARK    6  A    between atoms: C_13  and  C_14
REMARK    7  A    between atoms: C_18  and  C_19
REMARK                            x       y       z     vdW  Elec       q    Type
REMARK                         _______ _______ _______ _____ _____    ______ ____
ROOT
ATOM      1  N   UNL     1       4.267   3.514  17.625  0.00  0.00    +0.000 N 
ATOM      2  C   UNL     1       3.621   2.368  18.157  0.00  0.00    +0.000 C 
ATOM      3  O   UNL     1       3.725   1.278  17.610  0.00  0.00    +0.000 OA
ATOM      4  C   UNL     1       4.004   4.770  18.136  0.00  0.00    +0.000 A 
ATOM      5  N   UNL     1       4.802   5.469  18.909  0.00  0.00    +0.000 NA
ATOM      6  N   UNL     1       4.160   6.575  19.419  0.00  0.00    +0.000 NA
ATOM      7  C   UNL     1       2.953   6.746  18.906  0.00  0.00    +0.000 A 
ATOM      8  S   UNL     1       2.525   5.527  17.757  0.00  0.00    +0.000 S 
ENDROOT
BRANCH   2   9
ATOM      9  C   UNL     1       2.790   2.448  19.438  0.00  0.00    +0.000 A 
ATOM     10  C   UNL     1       3.447   2.429  20.681  0.00  0.00    +0.000 A 
ATOM     11  C   UNL     1       2.786   2.736  21.871  0.00  0.00    +0.000 A 
ATOM     12  C   UNL     1       1.418   2.940  21.856  0.00  0.00    +0.000 A 
ATOM     13  C   UNL     1       0.717   2.793  20.663  0.00  0.00    +0.000 A 
ATOM     14  C   UNL     1       1.379   2.521  19.443  0.00  0.00    +0.000 A 
ATOM     15  C   UNL     1       0.503   2.350  18.232  0.00  0.00    +0.000 C 
ENDBRANCH   2   9
BRANCH   7  16
ATOM     16  C   UNL     1       2.076   7.871  19.235  0.00  0.00    +0.000 A 
ATOM     17  C   UNL     1       1.508   8.090  20.496  0.00  0.00    +0.000 A 
ATOM     18  C   UNL     1       0.664   9.181  20.702  0.00  0.00    +0.000 A 
ATOM     19  C   UNL     1       0.413  10.033  19.640  0.00  0.00    +0.000 A 
ATOM     20  N   UNL     1       0.953   9.875  18.415  0.00  0.00    +0.000 NA
ATOM     21  C   UNL     1       1.769   8.806  18.245  0.00  0.00    +0.000 A 
ENDBRANCH   7  16
BRANCH   1  22
ATOM     22  C   UNL     1       5.133   3.394  16.441  0.00  0.00    +0.000 C 
BRANCH  22  23
ATOM     23  C   UNL     1       5.353   4.688  15.650  0.00  0.00    +0.000 C 
BRANCH  23  25
ATOM     24  C   UNL     1       7.566   4.581  16.854  0.00  0.00    +0.000 C 
ATOM     25  C   UNL     1       6.802   5.174  15.677  0.00  0.00    +0.000 C 
ENDBRANCH  23  25
ENDBRANCH  22  23
ENDBRANCH   1  22
TORSDOF 5
ENDMDL
MODEL 6
REMARK VINA RESULT:      -6.4      3.362      6.761
REMARK  Name = 
REMARK  7 active torsions:
REMARK  status: ('A' for Active; 'I' for Inactive)
REMARK    1  A    between atoms: C_1  and  C_2
REMARK    2  A    between atoms: C_2  and  C_3
REMARK    3  A    between atoms: C_3  and  C_4
REMARK    4  A    between atoms: C_4  and  N_5
REMARK    5  A    between atoms: C_6  and  C_8
REMARK    6  A    between atoms: C_13  and  C_14
REMARK    7  A    between atoms: C_18  and  C_19
REMARK                            x       y       z     vdW  Elec       q    Type
REMARK                         _______ _______ _______ _____ _____    ______ ____
ROOT
ATOM      1  N   UNL     1       4.009   3.909  17.275  0.00  0.00    +0.000 N 
ATOM      2  C   UNL     1       3.449   2.758  17.888  0.00  0.00    +0.000 C 
ATOM      3  O   UNL     1       3.518   1.662  17.349  0.00  0.00    +0.000 OA
ATOM      4  C   UNL     1       3.774   5.168  17.793  0.00  0.00    +0.000 A 
ATOM      5  N   UNL     1       4.633   5.895  18.467  0.00  0.00    +0.000 NA
ATOM      6  N   UNL     1       4.024   6.996  19.027  0.00  0.00    +0.000 NA
ATOM      7  C   UNL     1       2.766   7.133  18.643  0.00  0.00    +0.000 A 
ATOM      8  S   UNL     1       2.247   5.887  17.563  0.00  0.00    +0.000 S 
ENDROOT
BRANCH   2   9
ATOM      9  C   UNL     1       2.756   2.842  19.249  0.00  0.00    +0.000 A 
ATOM     10  C   UNL     1       1.432   3.311  19.315  0.00  0.00    +0.000 A 
ATOM     11  C   UNL     1       0.663   3.191  20.473  0.00  0.00    +0.000 A 
ATOM     12  C   UNL     1       1.249   2.719  21.633  0.00  0.00    +0.000 A 
ATOM     13  C   UNL     1       2.606   2.411  21.638  0.00  0.00    +0.000 A 
ATOM     14  C   UNL     1       3.388   2.489  20.463  0.00  0.00    +0.000 A 
ATOM     15  C   UNL     1       4.850   2.164  20.611  0.00  0.00    +0.000 C 
ENDBRANCH   2   9
BRANCH   7  16
ATOM     16  C   UNL     1       1.904   8.245  19.047  0.00  0.00    +0.000 A 
ATOM     17  C   UNL     1       1.452   9.251  18.184  0.00  0.00    +0.000 A 
ATOM     18  C   UNL     1       0.651  10.283  18.673  0.00  0.00    +0.000 A 
ATOM     19  C   UNL     1       0.317  10.282  20.016  0.00  0.00    +0.000 A 
ATOM     20  N   UNL     1       0.711   9.325  20.880  0.00  0.00    +0.000 NA
ATOM     21  C   UNL     1       1.488   8.335  20.377  0.00  0.00    +0.000 A 
ENDBRANCH   7  16
BRANCH   1  22
ATOM     22  C   UNL     1       4.747   3.787  16.007  0.00  0.00    +0.000 C 
BRANCH  22  23
ATOM     23  C   UNL     1       6.242   4.119  16.079  0.00  0.00    +0.000 C 
BRANCH  23  25
ATOM     24  C   UNL     1       6.032   3.857  13.579  0.00  0.00    +0.000 C 
ATOM     25  C   UNL     1       6.854   4.449  14.717  0.00  0.00    +0.000 C 
ENDBRANCH  23  25
ENDBRANCH  22  23
ENDBRANCH   1  22
TORSDOF 5
ENDMDL
MODEL 7
REMARK VINA RESULT:      -6.4      2.226      6.519
REMARK  Name = 
REMARK  7 active torsions:
REMARK  status: ('A' for Active; 'I' for Inactive)
REMARK    1  A    between atoms: C_1  and  C_2
REMARK    2  A    between atoms: C_2  and  C_3
REMARK    3  A    between atoms: C_3  and  C_4
REMARK    4  A    between atoms: C_4  and  N_5
REMARK    5  A    between atoms: C_6  and  C_8
REMARK    6  A    between atoms: C_13  and  C_14
REMARK    7  A    between atoms: C_18  and  C_19
REMARK                            x       y       z     vdW  Elec       q    Type
REMARK                         _______ _______ _______ _____ _____    ______ ____
ROOT
ATOM      1  N   UNL     1       6.033   4.840  16.600  0.00  0.00    +0.000 N 
ATOM      2  C   UNL     1       4.621   4.902  16.732  0.00  0.00    +0.000 C 
ATOM      3  O   UNL     1       3.895   4.190  16.052  0.00  0.00    +0.000 OA
ATOM      4  C   UNL     1       6.840   5.766  17.232  0.00  0.00    +0.000 A 
ATOM      5  N   UNL     1       7.571   5.548  18.299  0.00  0.00    +0.000 NA
ATOM      6  N   UNL     1       8.083   6.723  18.802  0.00  0.00    +0.000 NA
ATOM      7  C   UNL     1       7.835   7.762  18.022  0.00  0.00    +0.000 A 
ATOM      8  S   UNL     1       6.932   7.348  16.607  0.00  0.00    +0.000 S 
ENDROOT
BRANCH   2   9
ATOM      9  C   UNL     1       3.959   5.846  17.737  0.00  0.00    +0.000 A 
ATOM     10  C   UNL     1       3.622   7.149  17.332  0.00  0.00    +0.000 A 
ATOM     11  C   UNL     1       2.810   7.977  18.108  0.00  0.00    +0.000 A 
ATOM     12  C   UNL     1       2.425   7.564  19.370  0.00  0.00    +0.000 A 
ATOM     13  C   UNL     1       2.890   6.349  19.863  0.00  0.00    +0.000 A 
ATOM     14  C   UNL     1       3.681   5.482  19.073  0.00  0.00    +0.000 A 
ATOM     15  C   UNL     1       4.148   4.215  19.738  0.00  0.00    +0.000 C 
ENDBRANCH   2   9
BRANCH   7  16
ATOM     16  C   UNL     1       8.309   9.121  18.294  0.00  0.00    +0.000 A 
ATOM     17  C   UNL     1       8.044  10.229  17.481  0.00  0.00    +0.000 A 
ATOM     18  C   UNL     1       8.563  11.480  17.814  0.00  0.00    +0.000 A 
ATOM     19  C   UNL     1       9.331  11.594  18.960  0.00  0.00    +0.000 A 
ATOM     20  N   UNL     1       9.596  10.560  19.784  0.00  0.00    +0.000 NA
ATOM     21  C   UNL     1       9.079   9.357  19.434  0.00  0.00    +0.000 A 
ENDBRANCH   7  16
BRANCH   1  22
ATOM     22  C   UNL     1       6.649   3.862  15.689  0.00  0.00    +0.000 C 
BRANCH  22  23
ATOM     23  C   UNL     1       6.853   4.342  14.247  0.00  0.00    +0.000 C 
BRANCH  23  25
ATOM     24  C   UNL     1       6.646   3.421  11.908  0.00  0.00    +0.000 C 
ATOM     25  C   UNL     1       5.941   3.640  13.241  0.00  0.00    +0.000 C 
ENDBRANCH  23  25
ENDBRANCH  22  23
ENDBRANCH   1  22
TORSDOF 5
ENDMDL
MODEL 8
REMARK VINA RESULT:      -6.2      2.082      6.407
REMARK  Name = 
REMARK  7 active torsions:
REMARK  status: ('A' for Active; 'I' for Inactive)
REMARK    1  A    between atoms: C_1  and  C_2
REMARK    2  A    between atoms: C_2  and  C_3
REMARK    3  A    between atoms: C_3  and  C_4
REMARK    4  A    between atoms: C_4  and  N_5
REMARK    5  A    between atoms: C_6  and  C_8
REMARK    6  A    between atoms: C_13  and  C_14
REMARK    7  A    between atoms: C_18  and  C_19
REMARK                            x       y       z     vdW  Elec       q    Type
REMARK                         _______ _______ _______ _____ _____    ______ ____
ROOT
ATOM      1  N   UNL     1       5.753   4.544  16.370  0.00  0.00    +0.000 N 
ATOM      2  C   UNL     1       4.367   4.561  16.673  0.00  0.00    +0.000 C 
ATOM      3  O   UNL     1       3.573   3.897  16.022  0.00  0.00    +0.000 OA
ATOM      4  C   UNL     1       6.619   5.427  16.985  0.00  0.00    +0.000 A 
ATOM      5  N   UNL     1       7.476   5.129  17.933  0.00  0.00    +0.000 NA
ATOM      6  N   UNL     1       8.031   6.265  18.480  0.00  0.00    +0.000 NA
ATOM      7  C   UNL     1       7.678   7.365  17.836  0.00  0.00    +0.000 A 
ATOM      8  S   UNL     1       6.616   7.062  16.506  0.00  0.00    +0.000 S 
ENDROOT
BRANCH   2   9
ATOM      9  C   UNL     1       3.819   5.392  17.835  0.00  0.00    +0.000 A 
ATOM     10  C   UNL     1       3.389   6.709  17.590  0.00  0.00    +0.000 A 
ATOM     11  C   UNL     1       2.665   7.437  18.535  0.00  0.00    +0.000 A 
ATOM     12  C   UNL     1       2.471   6.908  19.798  0.00  0.00    +0.000 A 
ATOM     13  C   UNL     1       3.036   5.679  20.120  0.00  0.00    +0.000 A 
ATOM     14  C   UNL     1       3.739   4.912  19.161  0.00  0.00    +0.000 A 
ATOM     15  C   UNL     1       4.332   3.618  19.647  0.00  0.00    +0.000 C 
ENDBRANCH   2   9
BRANCH   7  16
ATOM     16  C   UNL     1       8.165   8.703  18.175  0.00  0.00    +0.000 A 
ATOM     17  C   UNL     1       8.998   8.990  19.263  0.00  0.00    +0.000 A 
ATOM     18  C   UNL     1       9.388  10.305  19.517  0.00  0.00    +0.000 A 
ATOM     19  C   UNL     1       8.939  11.304  18.670  0.00  0.00    +0.000 A 
ATOM     20  N   UNL     1       8.153  11.073  17.599  0.00  0.00    +0.000 NA
ATOM     21  C   UNL     1       7.790   9.786  17.378  0.00  0.00    +0.000 A 
ENDBRANCH   7  16
BRANCH   1  22
ATOM     22  C   UNL     1       6.266   3.668  15.304  0.00  0.00    +0.000 C 
BRANCH  22  23
ATOM     23  C   UNL     1       6.446   4.333  13.934  0.00  0.00    +0.000 C 
BRANCH  23  25
ATOM     24  C   UNL     1       4.929   3.474  12.110  0.00  0.00    +0.000 C 
ATOM     25  C   UNL     1       6.300   3.358  12.766  0.00  0.00    +0.000 C 
ENDBRANCH  23  25
ENDBRANCH  22  23
ENDBRANCH   1  22
TORSDOF 5
ENDMDL
MODEL 9
REMARK VINA RESULT:      -6.1      2.826      5.420
REMARK  Name = 
REMARK  7 active torsions:
REMARK  status: ('A' for Active; 'I' for Inactive)
REMARK    1  A    between atoms: C_1  and  C_2
REMARK    2  A    between atoms: C_2  and  C_3
REMARK    3  A    between atoms: C_3  and  C_4
REMARK    4  A    between atoms: C_4  and  N_5
REMARK    5  A    between atoms: C_6  and  C_8
REMARK    6  A    between atoms: C_13  and  C_14
REMARK    7  A    between atoms: C_18  and  C_19
REMARK                            x       y       z     vdW  Elec       q    Type
REMARK                         _______ _______ _______ _____ _____    ______ ____
ROOT
ATOM      1  N   UNL     1       2.850   4.814  20.461  0.00  0.00    +0.000 N 
ATOM      2  C   UNL     1       1.868   5.837  20.410  0.00  0.00    +0.000 C 
ATOM      3  O   UNL     1       0.846   5.760  21.078  0.00  0.00    +0.000 OA
ATOM      4  C   UNL     1       3.912   4.813  19.577  0.00  0.00    +0.000 A 
ATOM      5  N   UNL     1       5.152   5.133  19.864  0.00  0.00    +0.000 NA
ATOM      6  N   UNL     1       5.916   5.241  18.723  0.00  0.00    +0.000 NA
ATOM      7  C   UNL     1       5.263   4.866  17.635  0.00  0.00    +0.000 A 
ATOM      8  S   UNL     1       3.641   4.363  17.956  0.00  0.00    +0.000 S 
ENDROOT
BRANCH   2   9
ATOM      9  C   UNL     1       2.059   7.078  19.537  0.00  0.00    +0.000 A 
ATOM     10  C   UNL     1       2.609   6.931  18.252  0.00  0.00    +0.000 A 
ATOM     11  C   UNL     1       2.592   7.968  17.318  0.00  0.00    +0.000 A 
ATOM     12  C   UNL     1       2.142   9.220  17.699  0.00  0.00    +0.000 A 
ATOM     13  C   UNL     1       1.754   9.435  19.018  0.00  0.00    +0.000 A 
ATOM     14  C   UNL     1       1.728   8.384  19.964  0.00  0.00    +0.000 A 
ATOM     15  C   UNL     1       1.323   8.757  21.364  0.00  0.00    +0.000 C 
ENDBRANCH   2   9
BRANCH   7  16
ATOM     16  C   UNL     1       5.856   4.833  16.296  0.00  0.00    +0.000 A 
ATOM     17  C   UNL     1       5.319   4.132  15.210  0.00  0.00    +0.000 A 
ATOM     18  C   UNL     1       5.974   4.143  13.979  0.00  0.00    +0.000 A 
ATOM     19  C   UNL     1       7.151   4.863  13.861  0.00  0.00    +0.000 A 
ATOM     20  N   UNL     1       7.694   5.569  14.873  0.00  0.00    +0.000 NA
ATOM     21  C   UNL     1       7.036   5.539  16.058  0.00  0.00    +0.000 A 
ENDBRANCH   7  16
BRANCH   1  22
ATOM     22  C   UNL     1       2.684   3.672  21.375  0.00  0.00    +0.000 C 
BRANCH  22  23
ATOM     23  C   UNL     1       2.090   2.406  20.747  0.00  0.00    +0.000 C 
BRANCH  23  25
ATOM     24  C   UNL     1       0.764   2.285  18.605  0.00  0.00    +0.000 C 
ATOM     25  C   UNL     1       0.731   2.639  20.087  0.00  0.00    +0.000 C 
ENDBRANCH  23  25
ENDBRANCH  22  23
ENDBRANCH   1  22
TORSDOF 5
ENDMDL
