MODEL 1
REMARK VINA RESULT:      -5.6      0.000      0.000
REMARK  Name = 
REMARK  6 active torsions:
REMARK  status: ('A' for Active; 'I' for Inactive)
REMARK    1  A    between atoms: C_1  and  N_2
REMARK    2  A    between atoms: N_2  and  C_3
REMARK    3  A    between atoms: C_3  and  C_4
REMARK    4  A    between atoms: C_3  and  C_5
REMARK    5  A    between atoms: C_5  and  O_6
REMARK    6  A    between atoms: O_6  and  C_7
REMARK                            x       y       z     vdW  Elec       q    Type
REMARK                         _______ _______ _______ _____ _____    ______ ____
ROOT
ATOM      1  O   UNL     1       5.140   5.900  18.508  0.00  0.00    +0.000 OA
ENDROOT
BRANCH   1   2
ATOM      2  C   UNL     1       4.018   5.118  18.491  0.00  0.00    +0.000 A 
ATOM      3  C   UNL     1       2.782   5.469  17.949  0.00  0.00    +0.000 A 
ATOM      4  C   UNL     1       1.721   4.565  18.003  0.00  0.00    +0.000 A 
ATOM      5  C   UNL     1       1.940   3.338  18.604  0.00  0.00    +0.000 A 
ATOM      6 CL   UNL     1       0.686   2.174  18.701  0.00  0.00    +0.000 Cl
ATOM      7  N   UNL     1       3.114   2.957  19.147  0.00  0.00    +0.000 NA
ATOM      8  C   UNL     1       4.122   3.860  19.076  0.00  0.00    +0.000 A 
ENDBRANCH   1   2
BRANCH   1   9
ATOM      9  C   UNL     1       6.294   5.323  19.135  0.00  0.00    +0.000 C 
BRANCH   9  10
ATOM     10  C   UNL     1       7.550   5.556  18.263  0.00  0.00    +0.000 C 
ATOM     11  C   UNL     1       7.381   6.872  17.498  0.00  0.00    +0.000 C 
BRANCH  10  13
ATOM     12  C   UNL     1       7.059   4.568  16.078  0.00  0.00    +0.000 C 
ATOM     13  N   UNL     1       7.736   4.407  17.357  0.00  0.00    +0.000 NA
ATOM     14  H   UNL     1       8.741   4.301  17.191  0.00  0.00    +0.000 HD
ENDBRANCH  10  13
ENDBRANCH   9  10
ENDBRANCH   1   9
TORSDOF 4
ENDMDL
MODEL 2
REMARK VINA RESULT:      -5.5      1.717      2.221
REMARK  Name = 
REMARK  6 active torsions:
REMARK  status: ('A' for Active; 'I' for Inactive)
REMARK    1  A    between atoms: C_1  and  N_2
REMARK    2  A    between atoms: N_2  and  C_3
REMARK    3  A    between atoms: C_3  and  C_4
REMARK    4  A    between atoms: C_3  and  C_5
REMARK    5  A    between atoms: C_5  and  O_6
REMARK    6  A    between atoms: O_6  and  C_7
REMARK                            x       y       z     vdW  Elec       q    Type
REMARK                         _______ _______ _______ _____ _____    ______ ____
ROOT
ATOM      1  O   UNL     1       4.244   4.073  16.529  0.00  0.00    +0.000 OA
ENDROOT
BRANCH   1   2
ATOM      2  C   UNL     1       3.435   3.793  17.595  0.00  0.00    +0.000 A 
ATOM      3  C   UNL     1       2.047   3.919  17.628  0.00  0.00    +0.000 A 
ATOM      4  C   UNL     1       1.350   3.594  18.791  0.00  0.00    +0.000 A 
ATOM      5  C   UNL     1       2.075   3.155  19.885  0.00  0.00    +0.000 A 
ATOM      6 CL   UNL     1       1.286   2.730  21.347  0.00  0.00    +0.000 Cl
ATOM      7  N   UNL     1       3.417   3.023  19.903  0.00  0.00    +0.000 NA
ATOM      8  C   UNL     1       4.061   3.347  18.755  0.00  0.00    +0.000 A 
ENDBRANCH   1   2
BRANCH   1   9
ATOM      9  C   UNL     1       4.947   5.322  16.589  0.00  0.00    +0.000 C 
BRANCH   9  10
ATOM     10  C   UNL     1       6.192   5.280  15.672  0.00  0.00    +0.000 C 
ATOM     11  C   UNL     1       6.243   3.919  14.973  0.00  0.00    +0.000 C 
BRANCH  10  13
ATOM     12  C   UNL     1       7.553   4.615  17.596  0.00  0.00    +0.000 C 
ATOM     13  N   UNL     1       7.402   5.535  16.478  0.00  0.00    +0.000 NA
ATOM     14  H   UNL     1       8.213   5.445  15.860  0.00  0.00    +0.000 HD
ENDBRANCH  10  13
ENDBRANCH   9  10
ENDBRANCH   1   9
TORSDOF 4
ENDMDL
MODEL 3
REMARK VINA RESULT:      -5.4      1.692      1.988
REMARK  Name = 
REMARK  6 active torsions:
REMARK  status: ('A' for Active; 'I' for Inactive)
REMARK    1  A    between atoms: C_1  and  N_2
REMARK    2  A    between atoms: N_2  and  C_3
REMARK    3  A    between atoms: C_3  and  C_4
REMARK    4  A    between atoms: C_3  and  C_5
REMARK    5  A    between atoms: C_5  and  O_6
REMARK    6  A    between atoms: O_6  and  C_7
REMARK                            x       y       z     vdW  Elec       q    Type
REMARK                         _______ _______ _______ _____ _____    ______ ____
ROOT
ATOM      1  O   UNL     1       5.047   5.433  18.027  0.00  0.00    +0.000 OA
ENDROOT
BRANCH   1   2
ATOM      2  C   UNL     1       4.157   4.908  18.922  0.00  0.00    +0.000 A 
ATOM      3  C   UNL     1       3.192   5.620  19.634  0.00  0.00    +0.000 A 
ATOM      4  C   UNL     1       2.348   4.948  20.518  0.00  0.00    +0.000 A 
ATOM      5  C   UNL     1       2.505   3.580  20.657  0.00  0.00    +0.000 A 
ATOM      6 CL   UNL     1       1.499   2.686  21.719  0.00  0.00    +0.000 Cl
ATOM      7  N   UNL     1       3.426   2.851  19.996  0.00  0.00    +0.000 NA
ATOM      8  C   UNL     1       4.229   3.536  19.146  0.00  0.00    +0.000 A 
ENDBRANCH   1   2
BRANCH   1   9
ATOM      9  C   UNL     1       6.152   4.589  17.676  0.00  0.00    +0.000 C 
BRANCH   9  10
ATOM     10  C   UNL     1       7.477   5.385  17.744  0.00  0.00    +0.000 C 
ATOM     11  C   UNL     1       7.736   5.787  19.198  0.00  0.00    +0.000 C 
BRANCH  10  13
ATOM     12  C   UNL     1       7.661   7.817  17.528  0.00  0.00    +0.000 C 
ATOM     13  N   UNL     1       7.389   6.557  16.851  0.00  0.00    +0.000 NA
ATOM     14  H   UNL     1       8.072   6.428  16.100  0.00  0.00    +0.000 HD
ENDBRANCH  10  13
ENDBRANCH   9  10
ENDBRANCH   1   9
TORSDOF 4
ENDMDL
MODEL 4
REMARK VINA RESULT:      -5.4      1.439      1.443
REMARK  Name = 
REMARK  6 active torsions:
REMARK  status: ('A' for Active; 'I' for Inactive)
REMARK    1  A    between atoms: C_1  and  N_2
REMARK    2  A    between atoms: N_2  and  C_3
REMARK    3  A    between atoms: C_3  and  C_4
REMARK    4  A    between atoms: C_3  and  C_5
REMARK    5  A    between atoms: C_5  and  O_6
REMARK    6  A    between atoms: O_6  and  C_7
REMARK                            x       y       z     vdW  Elec       q    Type
REMARK                         _______ _______ _______ _____ _____    ______ ____
ROOT
ATOM      1  O   UNL     1       5.310   5.578  18.701  0.00  0.00    +0.000 OA
ENDROOT
BRANCH   1   2
ATOM      2  C   UNL     1       4.281   4.991  19.384  0.00  0.00    +0.000 A 
ATOM      3  C   UNL     1       3.154   5.640  19.887  0.00  0.00    +0.000 A 
ATOM      4  C   UNL     1       2.180   4.910  20.566  0.00  0.00    +0.000 A 
ATOM      5  C   UNL     1       2.375   3.548  20.720  0.00  0.00    +0.000 A 
ATOM      6 CL   UNL     1       1.217   2.584  21.538  0.00  0.00    +0.000 Cl
ATOM      7  N   UNL     1       3.450   2.879  20.258  0.00  0.00    +0.000 NA
ATOM      8  C   UNL     1       4.375   3.621  19.603  0.00  0.00    +0.000 A 
ENDBRANCH   1   2
BRANCH   1   9
ATOM      9  C   UNL     1       6.626   5.311  19.204  0.00  0.00    +0.000 C 
BRANCH   9  10
ATOM     10  C   UNL     1       7.683   5.574  18.104  0.00  0.00    +0.000 C 
ATOM     11  C   UNL     1       7.272   6.819  17.314  0.00  0.00    +0.000 C 
BRANCH  10  13
ATOM     12  C   UNL     1       7.069   4.508  15.987  0.00  0.00    +0.000 C 
ATOM     13  N   UNL     1       7.797   4.382  17.241  0.00  0.00    +0.000 NA
ATOM     14  H   UNL     1       8.790   4.239  17.038  0.00  0.00    +0.000 HD
ENDBRANCH  10  13
ENDBRANCH   9  10
ENDBRANCH   1   9
TORSDOF 4
ENDMDL
MODEL 5
REMARK VINA RESULT:      -5.3      3.169      5.296
REMARK  Name = 
REMARK  6 active torsions:
REMARK  status: ('A' for Active; 'I' for Inactive)
REMARK    1  A    between atoms: C_1  and  N_2
REMARK    2  A    between atoms: N_2  and  C_3
REMARK    3  A    between atoms: C_3  and  C_4
REMARK    4  A    between atoms: C_3  and  C_5
REMARK    5  A    between atoms: C_5  and  O_6
REMARK    6  A    between atoms: O_6  and  C_7
REMARK                            x       y       z     vdW  Elec       q    Type
REMARK                         _______ _______ _______ _____ _____    ______ ____
ROOT
ATOM      1  O   UNL     1       4.641   3.451  16.782  0.00  0.00    +0.000 OA
ENDROOT
BRANCH   1   2
ATOM      2  C   UNL     1       5.315   4.629  16.955  0.00  0.00    +0.000 A 
ATOM      3  C   UNL     1       4.756   5.906  16.927  0.00  0.00    +0.000 A 
ATOM      4  C   UNL     1       5.570   7.021  17.121  0.00  0.00    +0.000 A 
ATOM      5  C   UNL     1       6.922   6.814  17.333  0.00  0.00    +0.000 A 
ATOM      6 CL   UNL     1       7.982   8.137  17.586  0.00  0.00    +0.000 Cl
ATOM      7  N   UNL     1       7.508   5.600  17.362  0.00  0.00    +0.000 NA
ATOM      8  C   UNL     1       6.687   4.540  17.171  0.00  0.00    +0.000 A 
ENDBRANCH   1   2
BRANCH   1   9
ATOM      9  C   UNL     1       3.305   3.414  17.301  0.00  0.00    +0.000 C 
BRANCH   9  10
ATOM     10  C   UNL     1       3.010   2.029  17.923  0.00  0.00    +0.000 C 
ATOM     11  C   UNL     1       1.732   2.127  18.760  0.00  0.00    +0.000 C 
BRANCH  10  13
ATOM     12  C   UNL     1       4.291   2.315  19.990  0.00  0.00    +0.000 C 
ATOM     13  N   UNL     1       4.169   1.598  18.729  0.00  0.00    +0.000 NA
ATOM     14  H   UNL     1       4.059   0.598  18.922  0.00  0.00    +0.000 HD
ENDBRANCH  10  13
ENDBRANCH   9  10
ENDBRANCH   1   9
TORSDOF 4
ENDMDL
MODEL 6
REMARK VINA RESULT:      -5.3      1.707      1.779
REMARK  Name = 
REMARK  6 active torsions:
REMARK  status: ('A' for Active; 'I' for Inactive)
REMARK    1  A    between atoms: C_1  and  N_2
REMARK    2  A    between atoms: N_2  and  C_3
REMARK    3  A    between atoms: C_3  and  C_4
REMARK    4  A    between atoms: C_3  and  C_5
REMARK    5  A    between atoms: C_5  and  O_6
REMARK    6  A    between atoms: O_6  and  C_7
REMARK                            x       y       z     vdW  Elec       q    Type
REMARK                         _______ _______ _______ _____ _____    ______ ____
ROOT
ATOM      1  O   UNL     1       6.212   4.516  18.708  0.00  0.00    +0.000 OA
ENDROOT
BRANCH   1   2
ATOM      2  C   UNL     1       4.967   4.335  19.243  0.00  0.00    +0.000 A 
ATOM      3  C   UNL     1       4.049   5.340  19.545  0.00  0.00    +0.000 A 
ATOM      4  C   UNL     1       2.810   5.005  20.090  0.00  0.00    +0.000 A 
ATOM      5  C   UNL     1       2.537   3.667  20.315  0.00  0.00    +0.000 A 
ATOM      6 CL   UNL     1       1.032   3.179  20.976  0.00  0.00    +0.000 Cl
ATOM      7  N   UNL     1       3.394   2.662  20.046  0.00  0.00    +0.000 NA
ATOM      8  C   UNL     1       4.588   3.025  19.517  0.00  0.00    +0.000 A 
ENDBRANCH   1   2
BRANCH   1   9
ATOM      9  C   UNL     1       6.288   4.479  17.276  0.00  0.00    +0.000 C 
BRANCH   9  10
ATOM     10  C   UNL     1       7.379   5.454  16.772  0.00  0.00    +0.000 C 
ATOM     11  C   UNL     1       7.152   6.823  17.418  0.00  0.00    +0.000 C 
BRANCH  10  13
ATOM     12  C   UNL     1       6.599   4.417  14.696  0.00  0.00    +0.000 C 
ATOM     13  N   UNL     1       7.333   5.520  15.299  0.00  0.00    +0.000 NA
ATOM     14  H   UNL     1       6.881   6.402  15.041  0.00  0.00    +0.000 HD
ENDBRANCH  10  13
ENDBRANCH   9  10
ENDBRANCH   1   9
TORSDOF 4
ENDMDL
MODEL 7
REMARK VINA RESULT:      -5.3      1.708      2.107
REMARK  Name = 
REMARK  6 active torsions:
REMARK  status: ('A' for Active; 'I' for Inactive)
REMARK    1  A    between atoms: C_1  and  N_2
REMARK    2  A    between atoms: N_2  and  C_3
REMARK    3  A    between atoms: C_3  and  C_4
REMARK    4  A    between atoms: C_3  and  C_5
REMARK    5  A    between atoms: C_5  and  O_6
REMARK    6  A    between atoms: O_6  and  C_7
REMARK                            x       y       z     vdW  Elec       q    Type
REMARK                         _______ _______ _______ _____ _____    ______ ____
ROOT
ATOM      1  O   UNL     1       4.879   3.992  16.933  0.00  0.00    +0.000 OA
ENDROOT
BRANCH   1   2
ATOM      2  C   UNL     1       3.915   3.750  17.872  0.00  0.00    +0.000 A 
ATOM      3  C   UNL     1       2.549   3.988  17.725  0.00  0.00    +0.000 A 
ATOM      4  C   UNL     1       1.678   3.690  18.773  0.00  0.00    +0.000 A 
ATOM      5  C   UNL     1       2.213   3.165  19.936  0.00  0.00    +0.000 A 
ATOM      6 CL   UNL     1       1.204   2.767  21.263  0.00  0.00    +0.000 Cl
ATOM      7  N   UNL     1       3.526   2.924  20.126  0.00  0.00    +0.000 NA
ATOM      8  C   UNL     1       4.342   3.225  19.087  0.00  0.00    +0.000 A 
ENDBRANCH   1   2
BRANCH   1   9
ATOM      9  C   UNL     1       6.054   4.667  17.403  0.00  0.00    +0.000 C 
BRANCH   9  10
ATOM     10  C   UNL     1       6.032   6.150  16.962  0.00  0.00    +0.000 C 
ATOM     11  C   UNL     1       5.222   6.267  15.668  0.00  0.00    +0.000 C 
BRANCH  10  13
ATOM     12  C   UNL     1       7.688   7.866  17.517  0.00  0.00    +0.000 C 
ATOM     13  N   UNL     1       7.417   6.631  16.795  0.00  0.00    +0.000 NA
ATOM     14  H   UNL     1       8.044   5.899  17.138  0.00  0.00    +0.000 HD
ENDBRANCH  10  13
ENDBRANCH   9  10
ENDBRANCH   1   9
TORSDOF 4
ENDMDL
MODEL 8
REMARK VINA RESULT:      -5.3      1.656      2.515
REMARK  Name = 
REMARK  6 active torsions:
REMARK  status: ('A' for Active; 'I' for Inactive)
REMARK    1  A    between atoms: C_1  and  N_2
REMARK    2  A    between atoms: N_2  and  C_3
REMARK    3  A    between atoms: C_3  and  C_4
REMARK    4  A    between atoms: C_3  and  C_5
REMARK    5  A    between atoms: C_5  and  O_6
REMARK    6  A    between atoms: O_6  and  C_7
REMARK                            x       y       z     vdW  Elec       q    Type
REMARK                         _______ _______ _______ _____ _____    ______ ____
ROOT
ATOM      1  O   UNL     1       4.595   3.829  16.483  0.00  0.00    +0.000 OA
ENDROOT
BRANCH   1   2
ATOM      2  C   UNL     1       3.877   3.592  17.622  0.00  0.00    +0.000 A 
ATOM      3  C   UNL     1       4.404   3.281  18.875  0.00  0.00    +0.000 A 
ATOM      4  C   UNL     1       3.545   3.065  19.952  0.00  0.00    +0.000 A 
ATOM      5  C   UNL     1       2.183   3.167  19.732  0.00  0.00    +0.000 A 
ATOM      6 CL   UNL     1       1.067   2.922  21.010  0.00  0.00    +0.000 Cl
ATOM      7  N   UNL     1       1.627   3.459  18.539  0.00  0.00    +0.000 NA
ATOM      8  C   UNL     1       2.492   3.663  17.515  0.00  0.00    +0.000 A 
ENDBRANCH   1   2
BRANCH   1   9
ATOM      9  C   UNL     1       5.184   5.132  16.375  0.00  0.00    +0.000 C 
BRANCH   9  10
ATOM     10  C   UNL     1       6.616   5.027  15.799  0.00  0.00    +0.000 C 
ATOM     11  C   UNL     1       6.553   4.303  14.451  0.00  0.00    +0.000 C 
BRANCH  10  13
ATOM     12  C   UNL     1       7.594   5.014  18.044  0.00  0.00    +0.000 C 
ATOM     13  N   UNL     1       7.482   4.325  16.766  0.00  0.00    +0.000 NA
ATOM     14  H   UNL     1       7.083   3.395  16.923  0.00  0.00    +0.000 HD
ENDBRANCH  10  13
ENDBRANCH   9  10
ENDBRANCH   1   9
TORSDOF 4
ENDMDL
MODEL 9
REMARK VINA RESULT:      -5.3      1.775      2.215
REMARK  Name = 
REMARK  6 active torsions:
REMARK  status: ('A' for Active; 'I' for Inactive)
REMARK    1  A    between atoms: C_1  and  N_2
REMARK    2  A    between atoms: N_2  and  C_3
REMARK    3  A    between atoms: C_3  and  C_4
REMARK    4  A    between atoms: C_3  and  C_5
REMARK    5  A    between atoms: C_5  and  O_6
REMARK    6  A    between atoms: O_6  and  C_7
REMARK                            x       y       z     vdW  Elec       q    Type
REMARK                         _______ _______ _______ _____ _____    ______ ____
ROOT
ATOM      1  O   UNL     1       5.025   3.704  16.794  0.00  0.00    +0.000 OA
ENDROOT
BRANCH   1   2
ATOM      2  C   UNL     1       4.001   3.539  17.685  0.00  0.00    +0.000 A 
ATOM      3  C   UNL     1       2.640   3.557  17.383  0.00  0.00    +0.000 A 
ATOM      4  C   UNL     1       1.703   3.373  18.399  0.00  0.00    +0.000 A 
ATOM      5  C   UNL     1       2.169   3.179  19.688  0.00  0.00    +0.000 A 
ATOM      6 CL   UNL     1       1.077   2.938  20.987  0.00  0.00    +0.000 Cl
ATOM      7  N   UNL     1       3.473   3.159  20.029  0.00  0.00    +0.000 NA
ATOM      8  C   UNL     1       4.354   3.341  19.016  0.00  0.00    +0.000 A 
ENDBRANCH   1   2
BRANCH   1   9
ATOM      9  C   UNL     1       5.105   4.991  16.165  0.00  0.00    +0.000 C 
BRANCH   9  10
ATOM     10  C   UNL     1       6.555   5.529  16.229  0.00  0.00    +0.000 C 
ATOM     11  C   UNL     1       7.360   4.661  17.200  0.00  0.00    +0.000 C 
BRANCH  10  13
ATOM     12  C   UNL     1       7.571   7.282  17.604  0.00  0.00    +0.000 C 
ATOM     13  N   UNL     1       6.532   6.946  16.641  0.00  0.00    +0.000 NA
ATOM     14  H   UNL     1       6.660   7.516  15.800  0.00  0.00    +0.000 HD
ENDBRANCH  10  13
ENDBRANCH   9  10
ENDBRANCH   1   9
TORSDOF 4
ENDMDL
