MODEL 1
REMARK VINA RESULT:      -8.9      0.000      0.000
REMARK  Name = 
REMARK  6 active torsions:
REMARK  status: ('A' for Active; 'I' for Inactive)
REMARK    1  A    between atoms: C_1  and  O_2
REMARK    2  A    between atoms: O_2  and  C_3
REMARK    3  A    between atoms: C_6  and  C_7
REMARK    4  A    between atoms: C_7  and  N_8
REMARK    5  A    between atoms: C_10  and  C_11
REMARK    6  A    between atoms: C_11  and  N_12
REMARK                            x       y       z     vdW  Elec       q    Type
REMARK                         _______ _______ _______ _____ _____    ______ ____
ROOT
ATOM      1  C   UNL     1       2.825   6.419  18.074  0.00  0.00    +0.000 C 
ENDROOT
BRANCH   1   2
ATOM      2  N   UNL     1       3.739   5.550  18.911  0.00  0.00    +0.000 N 
ATOM      3  C   UNL     1       2.979   4.502  19.512  0.00  0.00    +0.000 A 
ATOM      4  C   UNL     1       2.222   4.789  20.666  0.00  0.00    +0.000 A 
ATOM      5  C   UNL     1       1.469   3.808  21.306  0.00  0.00    +0.000 A 
ATOM      6  C   UNL     1       1.530   2.496  20.854  0.00  0.00    +0.000 A 
ATOM      7  C   UNL     1       2.287   2.183  19.720  0.00  0.00    +0.000 A 
ATOM      8  C   UNL     1       2.977   3.185  19.017  0.00  0.00    +0.000 A 
ATOM      9  S   UNL     1       3.718   2.756  17.443  0.00  0.00    +0.000 S 
ATOM     10  C   UNL     1       4.712   4.189  17.091  0.00  0.00    +0.000 A 
ATOM     11  C   UNL     1       5.345   4.320  15.853  0.00  0.00    +0.000 A 
ATOM     12  C   UNL     1       6.186   5.411  15.599  0.00  0.00    +0.000 A 
ATOM     13  C   UNL     1       6.487   6.319  16.613  0.00  0.00    +0.000 A 
ATOM     14  C   UNL     1       5.810   6.235  17.825  0.00  0.00    +0.000 A 
ATOM     15  C   UNL     1       4.822   5.252  17.999  0.00  0.00    +0.000 A 
ENDBRANCH   1   2
BRANCH   1  18
ATOM     16  N   UNL     1       1.507   9.680  18.807  0.00  0.00    +0.000 N 
ATOM     17  C   UNL     1       2.189   8.903  17.919  0.00  0.00    +0.000 A 
ATOM     18  C   UNL     1       2.337   7.709  18.591  0.00  0.00    +0.000 A 
ATOM     19  N   UNL     1       1.857   7.836  19.867  0.00  0.00    +0.000 NA
ATOM     20  N   UNL     1       1.368   9.070  20.002  0.00  0.00    +0.000 NA
BRANCH  16  21
ATOM     21  C   UNL     1       0.930  10.999  18.576  0.00  0.00    +0.000 C 
BRANCH  21  25
ATOM     22  C   UNL     1      -3.368  11.019  18.162  0.00  0.00    +0.000 A 
ATOM     23  C   UNL     1      -2.745  11.901  19.048  0.00  0.00    +0.000 A 
ATOM     24  C   UNL     1      -1.356  11.883  19.206  0.00  0.00    +0.000 A 
ATOM     25  C   UNL     1      -0.568  10.971  18.488  0.00  0.00    +0.000 A 
ATOM     26  C   UNL     1      -1.208  10.059  17.638  0.00  0.00    +0.000 A 
ATOM     27  C   UNL     1      -2.597  10.084  17.473  0.00  0.00    +0.000 A 
BRANCH  22  29
ATOM     28  C   UNL     1      -5.211  11.935  16.996  0.00  0.00    +0.000 C 
ATOM     29  O   UNL     1      -4.728  11.141  18.075  0.00  0.00    +0.000 OA
ENDBRANCH  22  29
ENDBRANCH  21  25
ENDBRANCH  16  21
ENDBRANCH   1  18
TORSDOF 5
ENDMDL
MODEL 2
REMARK VINA RESULT:      -8.8      1.350      3.718
REMARK  Name = 
REMARK  6 active torsions:
REMARK  status: ('A' for Active; 'I' for Inactive)
REMARK    1  A    between atoms: C_1  and  O_2
REMARK    2  A    between atoms: O_2  and  C_3
REMARK    3  A    between atoms: C_6  and  C_7
REMARK    4  A    between atoms: C_7  and  N_8
REMARK    5  A    between atoms: C_10  and  C_11
REMARK    6  A    between atoms: C_11  and  N_12
REMARK                            x       y       z     vdW  Elec       q    Type
REMARK                         _______ _______ _______ _____ _____    ______ ____
ROOT
ATOM      1  C   UNL     1       2.889   6.613  19.030  0.00  0.00    +0.000 C 
ENDROOT
BRANCH   1   2
ATOM      2  N   UNL     1       3.482   5.732  17.951  0.00  0.00    +0.000 N 
ATOM      3  C   UNL     1       4.902   5.877  17.947  0.00  0.00    +0.000 A 
ATOM      4  C   UNL     1       5.467   7.002  17.315  0.00  0.00    +0.000 A 
ATOM      5  C   UNL     1       6.846   7.195  17.266  0.00  0.00    +0.000 A 
ATOM      6  C   UNL     1       7.691   6.216  17.773  0.00  0.00    +0.000 A 
ATOM      7  C   UNL     1       7.154   5.081  18.391  0.00  0.00    +0.000 A 
ATOM      8  C   UNL     1       5.764   4.925  18.523  0.00  0.00    +0.000 A 
ATOM      9  S   UNL     1       5.157   3.578  19.538  0.00  0.00    +0.000 S 
ATOM     10  C   UNL     1       3.417   3.580  19.166  0.00  0.00    +0.000 A 
ATOM     11  C   UNL     1       2.543   2.761  19.885  0.00  0.00    +0.000 A 
ATOM     12  C   UNL     1       1.185   2.705  19.547  0.00  0.00    +0.000 A 
ATOM     13  C   UNL     1       0.711   3.382  18.424  0.00  0.00    +0.000 A 
ATOM     14  C   UNL     1       1.558   4.251  17.744  0.00  0.00    +0.000 A 
ATOM     15  C   UNL     1       2.868   4.448  18.212  0.00  0.00    +0.000 A 
ENDBRANCH   1   2
BRANCH   1  18
ATOM     16  N   UNL     1       1.192   9.764  18.723  0.00  0.00    +0.000 N 
ATOM     17  C   UNL     1       1.329   8.612  19.438  0.00  0.00    +0.000 A 
ATOM     18  C   UNL     1       2.210   7.872  18.679  0.00  0.00    +0.000 A 
ATOM     19  N   UNL     1       2.479   8.532  17.510  0.00  0.00    +0.000 NA
ATOM     20  N   UNL     1       1.822   9.693  17.533  0.00  0.00    +0.000 NA
BRANCH  16  21
ATOM     21  C   UNL     1       0.503  10.985  19.126  0.00  0.00    +0.000 C 
BRANCH  21  25
ATOM     22  C   UNL     1      -3.652  11.008  17.949  0.00  0.00    +0.000 A 
ATOM     23  C   UNL     1      -2.758  10.116  17.351  0.00  0.00    +0.000 A 
ATOM     24  C   UNL     1      -1.407  10.120  17.708  0.00  0.00    +0.000 A 
ATOM     25  C   UNL     1      -0.924  11.028  18.662  0.00  0.00    +0.000 A 
ATOM     26  C   UNL     1      -1.820  11.950  19.221  0.00  0.00    +0.000 A 
ATOM     27  C   UNL     1      -3.174  11.939  18.870  0.00  0.00    +0.000 A 
BRANCH  22  29
ATOM     28  C   UNL     1      -5.650  12.129  17.357  0.00  0.00    +0.000 C 
ATOM     29  O   UNL     1      -4.952  10.900  17.536  0.00  0.00    +0.000 OA
ENDBRANCH  22  29
ENDBRANCH  21  25
ENDBRANCH  16  21
ENDBRANCH   1  18
TORSDOF 5
ENDMDL
MODEL 3
REMARK VINA RESULT:      -8.7      1.195      3.722
REMARK  Name = 
REMARK  6 active torsions:
REMARK  status: ('A' for Active; 'I' for Inactive)
REMARK    1  A    between atoms: C_1  and  O_2
REMARK    2  A    between atoms: O_2  and  C_3
REMARK    3  A    between atoms: C_6  and  C_7
REMARK    4  A    between atoms: C_7  and  N_8
REMARK    5  A    between atoms: C_10  and  C_11
REMARK    6  A    between atoms: C_11  and  N_12
REMARK                            x       y       z     vdW  Elec       q    Type
REMARK                         _______ _______ _______ _____ _____    ______ ____
ROOT
ATOM      1  C   UNL     1       3.127   6.590  18.997  0.00  0.00    +0.000 C 
ENDROOT
BRANCH   1   2
ATOM      2  N   UNL     1       3.179   5.426  18.032  0.00  0.00    +0.000 N 
ATOM      3  C   UNL     1       4.484   5.343  17.458  0.00  0.00    +0.000 A 
ATOM      4  C   UNL     1       4.817   6.214  16.401  0.00  0.00    +0.000 A 
ATOM      5  C   UNL     1       6.069   6.174  15.792  0.00  0.00    +0.000 A 
ATOM      6  C   UNL     1       6.983   5.200  16.170  0.00  0.00    +0.000 A 
ATOM      7  C   UNL     1       6.670   4.314  17.207  0.00  0.00    +0.000 A 
ATOM      8  C   UNL     1       5.443   4.406  17.885  0.00  0.00    +0.000 A 
ATOM      9  S   UNL     1       5.213   3.407  19.355  0.00  0.00    +0.000 S 
ATOM     10  C   UNL     1       3.474   3.604  19.676  0.00  0.00    +0.000 A 
ATOM     11  C   UNL     1       2.913   3.096  20.850  0.00  0.00    +0.000 A 
ATOM     12  C   UNL     1       1.533   3.185  21.073  0.00  0.00    +0.000 A 
ATOM     13  C   UNL     1       0.691   3.684  20.080  0.00  0.00    +0.000 A 
ATOM     14  C   UNL     1       1.246   4.252  18.939  0.00  0.00    +0.000 A 
ATOM     15  C   UNL     1       2.643   4.334  18.815  0.00  0.00    +0.000 A 
ENDBRANCH   1   2
BRANCH   1  18
ATOM     16  N   UNL     1       1.287   9.662  18.710  0.00  0.00    +0.000 N 
ATOM     17  C   UNL     1       1.496   8.526  19.433  0.00  0.00    +0.000 A 
ATOM     18  C   UNL     1       2.383   7.814  18.655  0.00  0.00    +0.000 A 
ATOM     19  N   UNL     1       2.587   8.471  17.471  0.00  0.00    +0.000 NA
ATOM     20  N   UNL     1       1.882   9.603  17.502  0.00  0.00    +0.000 NA
BRANCH  16  21
ATOM     21  C   UNL     1       0.559  10.857  19.121  0.00  0.00    +0.000 C 
BRANCH  21  25
ATOM     22  C   UNL     1      -3.522  10.924  17.712  0.00  0.00    +0.000 A 
ATOM     23  C   UNL     1      -3.126  11.764  18.756  0.00  0.00    +0.000 A 
ATOM     24  C   UNL     1      -1.814  11.730  19.235  0.00  0.00    +0.000 A 
ATOM     25  C   UNL     1      -0.876  10.844  18.684  0.00  0.00    +0.000 A 
ATOM     26  C   UNL     1      -1.296   9.972  17.669  0.00  0.00    +0.000 A 
ATOM     27  C   UNL     1      -2.608  10.013  17.184  0.00  0.00    +0.000 A 
BRANCH  22  29
ATOM     28  C   UNL     1      -5.805  10.885  18.331  0.00  0.00    +0.000 C 
ATOM     29  O   UNL     1      -4.824  11.059  17.313  0.00  0.00    +0.000 OA
ENDBRANCH  22  29
ENDBRANCH  21  25
ENDBRANCH  16  21
ENDBRANCH   1  18
TORSDOF 5
ENDMDL
MODEL 4
REMARK VINA RESULT:      -8.5      1.047      3.643
REMARK  Name = 
REMARK  6 active torsions:
REMARK  status: ('A' for Active; 'I' for Inactive)
REMARK    1  A    between atoms: C_1  and  O_2
REMARK    2  A    between atoms: O_2  and  C_3
REMARK    3  A    between atoms: C_6  and  C_7
REMARK    4  A    between atoms: C_7  and  N_8
REMARK    5  A    between atoms: C_10  and  C_11
REMARK    6  A    between atoms: C_11  and  N_12
REMARK                            x       y       z     vdW  Elec       q    Type
REMARK                         _______ _______ _______ _____ _____    ______ ____
ROOT
ATOM      1  C   UNL     1       2.896   6.426  19.702  0.00  0.00    +0.000 C 
ENDROOT
BRANCH   1   2
ATOM      2  N   UNL     1       2.766   5.442  18.560  0.00  0.00    +0.000 N 
ATOM      3  C   UNL     1       3.952   5.475  17.765  0.00  0.00    +0.000 A 
ATOM      4  C   UNL     1       4.111   6.516  16.828  0.00  0.00    +0.000 A 
ATOM      5  C   UNL     1       5.240   6.598  16.016  0.00  0.00    +0.000 A 
ATOM      6  C   UNL     1       6.191   5.587  16.063  0.00  0.00    +0.000 A 
ATOM      7  C   UNL     1       6.048   4.536  16.974  0.00  0.00    +0.000 A 
ATOM      8  C   UNL     1       4.956   4.494  17.859  0.00  0.00    +0.000 A 
ATOM      9  S   UNL     1       4.967   3.260  19.157  0.00  0.00    +0.000 S 
ATOM     10  C   UNL     1       3.312   3.374  19.800  0.00  0.00    +0.000 A 
ATOM     11  C   UNL     1       2.954   2.668  20.951  0.00  0.00    +0.000 A 
ATOM     12  C   UNL     1       1.633   2.698  21.418  0.00  0.00    +0.000 A 
ATOM     13  C   UNL     1       0.641   3.344  20.682  0.00  0.00    +0.000 A 
ATOM     14  C   UNL     1       1.000   4.104  19.575  0.00  0.00    +0.000 A 
ATOM     15  C   UNL     1       2.356   4.226  19.229  0.00  0.00    +0.000 A 
ENDBRANCH   1   2
BRANCH   1  18
ATOM     16  N   UNL     1       1.197   9.530  19.080  0.00  0.00    +0.000 N 
ATOM     17  C   UNL     1       2.208   8.694  18.710  0.00  0.00    +0.000 A 
ATOM     18  C   UNL     1       2.171   7.707  19.672  0.00  0.00    +0.000 A 
ATOM     19  N   UNL     1       1.244   8.030  20.628  0.00  0.00    +0.000 NA
ATOM     20  N   UNL     1       0.663   9.176  20.267  0.00  0.00    +0.000 NA
BRANCH  16  21
ATOM     21  C   UNL     1       0.665  10.666  18.337  0.00  0.00    +0.000 C 
BRANCH  21  25
ATOM     22  C   UNL     1      -3.626  10.689  17.855  0.00  0.00    +0.000 A 
ATOM     23  C   UNL     1      -3.016  11.569  18.753  0.00  0.00    +0.000 A 
ATOM     24  C   UNL     1      -1.630  11.549  18.933  0.00  0.00    +0.000 A 
ATOM     25  C   UNL     1      -0.831  10.639  18.226  0.00  0.00    +0.000 A 
ATOM     26  C   UNL     1      -1.458   9.730  17.362  0.00  0.00    +0.000 A 
ATOM     27  C   UNL     1      -2.844   9.755  17.175  0.00  0.00    +0.000 A 
BRANCH  22  29
ATOM     28  C   UNL     1      -5.488  12.143  17.730  0.00  0.00    +0.000 C 
ATOM     29  O   UNL     1      -4.984  10.811  17.746  0.00  0.00    +0.000 OA
ENDBRANCH  22  29
ENDBRANCH  21  25
ENDBRANCH  16  21
ENDBRANCH   1  18
TORSDOF 5
ENDMDL
MODEL 5
REMARK VINA RESULT:      -8.5      1.248      3.529
REMARK  Name = 
REMARK  6 active torsions:
REMARK  status: ('A' for Active; 'I' for Inactive)
REMARK    1  A    between atoms: C_1  and  O_2
REMARK    2  A    between atoms: O_2  and  C_3
REMARK    3  A    between atoms: C_6  and  C_7
REMARK    4  A    between atoms: C_7  and  N_8
REMARK    5  A    between atoms: C_10  and  C_11
REMARK    6  A    between atoms: C_11  and  N_12
REMARK                            x       y       z     vdW  Elec       q    Type
REMARK                         _______ _______ _______ _____ _____    ______ ____
ROOT
ATOM      1  C   UNL     1       2.784   6.235  19.455  0.00  0.00    +0.000 C 
ENDROOT
BRANCH   1   2
ATOM      2  N   UNL     1       3.218   5.571  18.166  0.00  0.00    +0.000 N 
ATOM      3  C   UNL     1       4.626   5.742  17.994  0.00  0.00    +0.000 A 
ATOM      4  C   UNL     1       5.104   6.973  17.502  0.00  0.00    +0.000 A 
ATOM      5  C   UNL     1       6.464   7.198  17.302  0.00  0.00    +0.000 A 
ATOM      6  C   UNL     1       7.366   6.162  17.506  0.00  0.00    +0.000 A 
ATOM      7  C   UNL     1       6.913   4.925  17.979  0.00  0.00    +0.000 A 
ATOM      8  C   UNL     1       5.553   4.720  18.268  0.00  0.00    +0.000 A 
ATOM      9  S   UNL     1       5.086   3.203  19.099  0.00  0.00    +0.000 S 
ATOM     10  C   UNL     1       3.311   3.237  18.974  0.00  0.00    +0.000 A 
ATOM     11  C   UNL     1       2.540   2.286  19.647  0.00  0.00    +0.000 A 
ATOM     12  C   UNL     1       1.148   2.264  19.492  0.00  0.00    +0.000 A 
ATOM     13  C   UNL     1       0.528   3.120  18.583  0.00  0.00    +0.000 A 
ATOM     14  C   UNL     1       1.277   4.112  17.961  0.00  0.00    +0.000 A 
ATOM     15  C   UNL     1       2.640   4.249  18.274  0.00  0.00    +0.000 A 
ENDBRANCH   1   2
BRANCH   1  18
ATOM     16  N   UNL     1       1.335   9.471  18.876  0.00  0.00    +0.000 N 
ATOM     17  C   UNL     1       2.154   8.491  18.401  0.00  0.00    +0.000 A 
ATOM     18  C   UNL     1       2.209   7.590  19.443  0.00  0.00    +0.000 A 
ATOM     19  N   UNL     1       1.535   8.095  20.523  0.00  0.00    +0.000 NA
ATOM     20  N   UNL     1       1.019   9.274  20.172  0.00  0.00    +0.000 NA
BRANCH  16  21
ATOM     21  C   UNL     1       0.788  10.606  18.143  0.00  0.00    +0.000 C 
BRANCH  21  25
ATOM     22  C   UNL     1      -3.525  10.777  17.996  0.00  0.00    +0.000 A 
ATOM     23  C   UNL     1      -2.813  11.686  18.783  0.00  0.00    +0.000 A 
ATOM     24  C   UNL     1      -1.419  11.621  18.855  0.00  0.00    +0.000 A 
ATOM     25  C   UNL     1      -0.713  10.635  18.151  0.00  0.00    +0.000 A 
ATOM     26  C   UNL     1      -1.439   9.698  17.402  0.00  0.00    +0.000 A 
ATOM     27  C   UNL     1      -2.835   9.770  17.322  0.00  0.00    +0.000 A 
BRANCH  22  29
ATOM     28  C   UNL     1      -5.397  11.876  18.935  0.00  0.00    +0.000 C 
ATOM     29  O   UNL     1      -4.882  10.948  17.985  0.00  0.00    +0.000 OA
ENDBRANCH  22  29
ENDBRANCH  21  25
ENDBRANCH  16  21
ENDBRANCH   1  18
TORSDOF 5
ENDMDL
MODEL 6
REMARK VINA RESULT:      -8.4      0.725      1.288
REMARK  Name = 
REMARK  6 active torsions:
REMARK  status: ('A' for Active; 'I' for Inactive)
REMARK    1  A    between atoms: C_1  and  O_2
REMARK    2  A    between atoms: O_2  and  C_3
REMARK    3  A    between atoms: C_6  and  C_7
REMARK    4  A    between atoms: C_7  and  N_8
REMARK    5  A    between atoms: C_10  and  C_11
REMARK    6  A    between atoms: C_11  and  N_12
REMARK                            x       y       z     vdW  Elec       q    Type
REMARK                         _______ _______ _______ _____ _____    ______ ____
ROOT
ATOM      1  C   UNL     1       2.835   6.318  17.798  0.00  0.00    +0.000 C 
ENDROOT
BRANCH   1   2
ATOM      2  N   UNL     1       3.692   5.646  18.849  0.00  0.00    +0.000 N 
ATOM      3  C   UNL     1       2.944   4.604  19.478  0.00  0.00    +0.000 A 
ATOM      4  C   UNL     1       2.014   4.948  20.479  0.00  0.00    +0.000 A 
ATOM      5  C   UNL     1       1.262   3.978  21.138  0.00  0.00    +0.000 A 
ATOM      6  C   UNL     1       1.492   2.635  20.869  0.00  0.00    +0.000 A 
ATOM      7  C   UNL     1       2.421   2.269  19.890  0.00  0.00    +0.000 A 
ATOM      8  C   UNL     1       3.118   3.245  19.158  0.00  0.00    +0.000 A 
ATOM      9  S   UNL     1       4.102   2.712  17.759  0.00  0.00    +0.000 S 
ATOM     10  C   UNL     1       5.015   4.185  17.357  0.00  0.00    +0.000 A 
ATOM     11  C   UNL     1       5.801   4.233  16.203  0.00  0.00    +0.000 A 
ATOM     12  C   UNL     1       6.578   5.363  15.921  0.00  0.00    +0.000 A 
ATOM     13  C   UNL     1       6.660   6.408  16.840  0.00  0.00    +0.000 A 
ATOM     14  C   UNL     1       5.831   6.399  17.957  0.00  0.00    +0.000 A 
ATOM     15  C   UNL     1       4.912   5.351  18.128  0.00  0.00    +0.000 A 
ENDBRANCH   1   2
BRANCH   1  18
ATOM     16  N   UNL     1       1.461   9.458  18.875  0.00  0.00    +0.000 N 
ATOM     17  C   UNL     1       1.449   8.102  19.019  0.00  0.00    +0.000 A 
ATOM     18  C   UNL     1       2.298   7.670  18.023  0.00  0.00    +0.000 A 
ATOM     19  N   UNL     1       2.693   8.737  17.260  0.00  0.00    +0.000 NA
ATOM     20  N   UNL     1       2.148   9.838  17.779  0.00  0.00    +0.000 NA
BRANCH  16  21
ATOM     21  C   UNL     1       0.868  10.452  19.761  0.00  0.00    +0.000 C 
BRANCH  21  25
ATOM     22  C   UNL     1      -3.140  11.601  18.636  0.00  0.00    +0.000 A 
ATOM     23  C   UNL     1      -2.494  10.560  17.964  0.00  0.00    +0.000 A 
ATOM     24  C   UNL     1      -1.187  10.199  18.306  0.00  0.00    +0.000 A 
ATOM     25  C   UNL     1      -0.500  10.884  19.319  0.00  0.00    +0.000 A 
ATOM     26  C   UNL     1      -1.140  11.957  19.954  0.00  0.00    +0.000 A 
ATOM     27  C   UNL     1      -2.451  12.312  19.618  0.00  0.00    +0.000 A 
BRANCH  22  29
ATOM     28  C   UNL     1      -4.676  11.690  16.839  0.00  0.00    +0.000 C 
ATOM     29  O   UNL     1      -4.423  11.852  18.231  0.00  0.00    +0.000 OA
ENDBRANCH  22  29
ENDBRANCH  21  25
ENDBRANCH  16  21
ENDBRANCH   1  18
TORSDOF 5
ENDMDL
MODEL 7
REMARK VINA RESULT:      -8.3      0.805      1.202
REMARK  Name = 
REMARK  6 active torsions:
REMARK  status: ('A' for Active; 'I' for Inactive)
REMARK    1  A    between atoms: C_1  and  O_2
REMARK    2  A    between atoms: O_2  and  C_3
REMARK    3  A    between atoms: C_6  and  C_7
REMARK    4  A    between atoms: C_7  and  N_8
REMARK    5  A    between atoms: C_10  and  C_11
REMARK    6  A    between atoms: C_11  and  N_12
REMARK                            x       y       z     vdW  Elec       q    Type
REMARK                         _______ _______ _______ _____ _____    ______ ____
ROOT
ATOM      1  C   UNL     1       2.726   6.508  18.349  0.00  0.00    +0.000 C 
ENDROOT
BRANCH   1   2
ATOM      2  N   UNL     1       3.682   5.571  19.054  0.00  0.00    +0.000 N 
ATOM      3  C   UNL     1       2.952   4.477  19.611  0.00  0.00    +0.000 A 
ATOM      4  C   UNL     1       2.268   4.669  20.829  0.00  0.00    +0.000 A 
ATOM      5  C   UNL     1       1.547   3.639  21.429  0.00  0.00    +0.000 A 
ATOM      6  C   UNL     1       1.571   2.370  20.866  0.00  0.00    +0.000 A 
ATOM      7  C   UNL     1       2.257   2.151  19.667  0.00  0.00    +0.000 A 
ATOM      8  C   UNL     1       2.911   3.206  19.009  0.00  0.00    +0.000 A 
ATOM      9  S   UNL     1       3.553   2.908  17.363  0.00  0.00    +0.000 S 
ATOM     10  C   UNL     1       4.534   4.364  17.072  0.00  0.00    +0.000 A 
ATOM     11  C   UNL     1       5.093   4.596  15.813  0.00  0.00    +0.000 A 
ATOM     12  C   UNL     1       5.926   5.702  15.600  0.00  0.00    +0.000 A 
ATOM     13  C   UNL     1       6.293   6.522  16.667  0.00  0.00    +0.000 A 
ATOM     14  C   UNL     1       5.689   6.339  17.906  0.00  0.00    +0.000 A 
ATOM     15  C   UNL     1       4.707   5.347  18.057  0.00  0.00    +0.000 A 
ENDBRANCH   1   2
BRANCH   1  18
ATOM     16  N   UNL     1       1.281   9.580  19.525  0.00  0.00    +0.000 N 
ATOM     17  C   UNL     1       1.955   8.952  18.520  0.00  0.00    +0.000 A 
ATOM     18  C   UNL     1       2.199   7.698  19.038  0.00  0.00    +0.000 A 
ATOM     19  N   UNL     1       1.779   7.648  20.340  0.00  0.00    +0.000 NA
ATOM     20  N   UNL     1       1.235   8.827  20.643  0.00  0.00    +0.000 NA
BRANCH  16  21
ATOM     21  C   UNL     1       0.625  10.881  19.479  0.00  0.00    +0.000 C 
BRANCH  21  25
ATOM     22  C   UNL     1      -2.958  10.837  17.068  0.00  0.00    +0.000 A 
ATOM     23  C   UNL     1      -1.984   9.850  16.896  0.00  0.00    +0.000 A 
ATOM     24  C   UNL     1      -0.810   9.873  17.654  0.00  0.00    +0.000 A 
ATOM     25  C   UNL     1      -0.585  10.892  18.591  0.00  0.00    +0.000 A 
ATOM     26  C   UNL     1      -1.547  11.903  18.723  0.00  0.00    +0.000 A 
ATOM     27  C   UNL     1      -2.726  11.876  17.970  0.00  0.00    +0.000 A 
BRANCH  22  29
ATOM     28  C   UNL     1      -3.837  10.359  14.925  0.00  0.00    +0.000 C 
ATOM     29  O   UNL     1      -4.073  10.703  16.287  0.00  0.00    +0.000 OA
ENDBRANCH  22  29
ENDBRANCH  21  25
ENDBRANCH  16  21
ENDBRANCH   1  18
TORSDOF 5
ENDMDL
MODEL 8
REMARK VINA RESULT:      -8.2      2.588      3.783
REMARK  Name = 
REMARK  6 active torsions:
REMARK  status: ('A' for Active; 'I' for Inactive)
REMARK    1  A    between atoms: C_1  and  O_2
REMARK    2  A    between atoms: O_2  and  C_3
REMARK    3  A    between atoms: C_6  and  C_7
REMARK    4  A    between atoms: C_7  and  N_8
REMARK    5  A    between atoms: C_10  and  C_11
REMARK    6  A    between atoms: C_11  and  N_12
REMARK                            x       y       z     vdW  Elec       q    Type
REMARK                         _______ _______ _______ _____ _____    ______ ____
ROOT
ATOM      1  C   UNL     1       2.704   6.399  18.134  0.00  0.00    +0.000 C 
ENDROOT
BRANCH   1   2
ATOM      2  N   UNL     1       3.677   5.554  18.926  0.00  0.00    +0.000 N 
ATOM      3  C   UNL     1       2.971   4.488  19.564  0.00  0.00    +0.000 A 
ATOM      4  C   UNL     1       2.264   4.760  20.753  0.00  0.00    +0.000 A 
ATOM      5  C   UNL     1       1.566   3.761  21.428  0.00  0.00    +0.000 A 
ATOM      6  C   UNL     1       1.636   2.451  20.974  0.00  0.00    +0.000 A 
ATOM      7  C   UNL     1       2.345   2.154  19.805  0.00  0.00    +0.000 A 
ATOM      8  C   UNL     1       2.977   3.171  19.069  0.00  0.00    +0.000 A 
ATOM      9  S   UNL     1       3.652   2.757  17.462  0.00  0.00    +0.000 S 
ATOM     10  C   UNL     1       4.593   4.213  17.062  0.00  0.00    +0.000 A 
ATOM     11  C   UNL     1       5.163   4.357  15.795  0.00  0.00    +0.000 A 
ATOM     12  C   UNL     1       5.965   5.467  15.500  0.00  0.00    +0.000 A 
ATOM     13  C   UNL     1       6.292   6.383  16.499  0.00  0.00    +0.000 A 
ATOM     14  C   UNL     1       5.677   6.285  17.741  0.00  0.00    +0.000 A 
ATOM     15  C   UNL     1       4.722   5.279  17.964  0.00  0.00    +0.000 A 
ENDBRANCH   1   2
BRANCH   1  18
ATOM     16  N   UNL     1       1.357   9.638  18.911  0.00  0.00    +0.000 N 
ATOM     17  C   UNL     1       1.972   8.856  17.979  0.00  0.00    +0.000 A 
ATOM     18  C   UNL     1       2.227   7.688  18.664  0.00  0.00    +0.000 A 
ATOM     19  N   UNL     1       1.874   7.837  19.978  0.00  0.00    +0.000 NA
ATOM     20  N   UNL     1       1.359   9.059  20.130  0.00  0.00    +0.000 NA
BRANCH  16  21
ATOM     21  C   UNL     1       0.715  10.931  18.706  0.00  0.00    +0.000 C 
BRANCH  21  25
ATOM     22  C   UNL     1       3.131  14.370  19.696  0.00  0.00    +0.000 A 
ATOM     23  C   UNL     1       3.225  13.788  18.429  0.00  0.00    +0.000 A 
ATOM     24  C   UNL     1       2.465  12.660  18.110  0.00  0.00    +0.000 A 
ATOM     25  C   UNL     1       1.606  12.085  19.059  0.00  0.00    +0.000 A 
ATOM     26  C   UNL     1       1.556  12.648  20.342  0.00  0.00    +0.000 A 
ATOM     27  C   UNL     1       2.310  13.784  20.658  0.00  0.00    +0.000 A 
BRANCH  22  29
ATOM     28  C   UNL     1       5.313  15.268  19.864  0.00  0.00    +0.000 C 
ATOM     29  O   UNL     1       3.905  15.481  19.889  0.00  0.00    +0.000 OA
ENDBRANCH  22  29
ENDBRANCH  21  25
ENDBRANCH  16  21
ENDBRANCH   1  18
TORSDOF 5
ENDMDL
MODEL 9
REMARK VINA RESULT:      -8.2      1.001      1.330
REMARK  Name = 
REMARK  6 active torsions:
REMARK  status: ('A' for Active; 'I' for Inactive)
REMARK    1  A    between atoms: C_1  and  O_2
REMARK    2  A    between atoms: O_2  and  C_3
REMARK    3  A    between atoms: C_6  and  C_7
REMARK    4  A    between atoms: C_7  and  N_8
REMARK    5  A    between atoms: C_10  and  C_11
REMARK    6  A    between atoms: C_11  and  N_12
REMARK                            x       y       z     vdW  Elec       q    Type
REMARK                         _______ _______ _______ _____ _____    ______ ____
ROOT
ATOM      1  C   UNL     1       2.593   6.382  18.170  0.00  0.00    +0.000 C 
ENDROOT
BRANCH   1   2
ATOM      2  N   UNL     1       3.608   5.562  18.937  0.00  0.00    +0.000 N 
ATOM      3  C   UNL     1       2.944   4.489  19.607  0.00  0.00    +0.000 A 
ATOM      4  C   UNL     1       2.271   4.758  20.816  0.00  0.00    +0.000 A 
ATOM      5  C   UNL     1       1.614   3.753  21.522  0.00  0.00    +0.000 A 
ATOM      6  C   UNL     1       1.695   2.440  21.077  0.00  0.00    +0.000 A 
ATOM      7  C   UNL     1       2.370   2.146  19.888  0.00  0.00    +0.000 A 
ATOM      8  C   UNL     1       2.959   3.168  19.124  0.00  0.00    +0.000 A 
ATOM      9  S   UNL     1       3.588   2.753  17.498  0.00  0.00    +0.000 S 
ATOM     10  C   UNL     1       4.488   4.222  17.056  0.00  0.00    +0.000 A 
ATOM     11  C   UNL     1       5.013   4.365  15.769  0.00  0.00    +0.000 A 
ATOM     12  C   UNL     1       5.784   5.487  15.439  0.00  0.00    +0.000 A 
ATOM     13  C   UNL     1       6.126   6.419  16.418  0.00  0.00    +0.000 A 
ATOM     14  C   UNL     1       5.553   6.320  17.682  0.00  0.00    +0.000 A 
ATOM     15  C   UNL     1       4.626   5.298  17.943  0.00  0.00    +0.000 A 
ENDBRANCH   1   2
BRANCH   1  18
ATOM     16  N   UNL     1       1.667   9.812  18.702  0.00  0.00    +0.000 N 
ATOM     17  C   UNL     1       2.300   8.918  17.891  0.00  0.00    +0.000 A 
ATOM     18  C   UNL     1       2.244   7.743  18.609  0.00  0.00    +0.000 A 
ATOM     19  N   UNL     1       1.698   7.983  19.842  0.00  0.00    +0.000 NA
ATOM     20  N   UNL     1       1.367   9.274  19.902  0.00  0.00    +0.000 NA
BRANCH  16  21
ATOM     21  C   UNL     1       1.285  11.184  18.388  0.00  0.00    +0.000 C 
BRANCH  21  25
ATOM     22  C   UNL     1      -2.626  12.364  19.787  0.00  0.00    +0.000 A 
ATOM     23  C   UNL     1      -1.482  12.772  20.477  0.00  0.00    +0.000 A 
ATOM     24  C   UNL     1      -0.214  12.373  20.045  0.00  0.00    +0.000 A 
ATOM     25  C   UNL     1      -0.071  11.546  18.921  0.00  0.00    +0.000 A 
ATOM     26  C   UNL     1      -1.228  11.105  18.264  0.00  0.00    +0.000 A 
ATOM     27  C   UNL     1      -2.496  11.512  18.691  0.00  0.00    +0.000 A 
BRANCH  22  29
ATOM     28  C   UNL     1      -4.014  12.633  21.684  0.00  0.00    +0.000 C 
ATOM     29  O   UNL     1      -3.810  12.832  20.289  0.00  0.00    +0.000 OA
ENDBRANCH  22  29
ENDBRANCH  21  25
ENDBRANCH  16  21
ENDBRANCH   1  18
TORSDOF 5
ENDMDL
