MODEL 1
REMARK VINA RESULT:      -6.4      0.000      0.000
REMARK  Name = 
REMARK  6 active torsions:
REMARK  status: ('A' for Active; 'I' for Inactive)
REMARK    1  A    between atoms: C_1  and  N_2
REMARK    2  A    between atoms: C_3  and  C_5
REMARK    3  A    between atoms: C_5  and  N_6
REMARK    4  A    between atoms: N_9  and  C_10
REMARK    5  A    between atoms: N_13  and  C_14
REMARK    6  A    between atoms: C_14  and  C_15
REMARK                            x       y       z     vdW  Elec       q    Type
REMARK                         _______ _______ _______ _____ _____    ______ ____
ROOT
ATOM      1  N   UNL     1      -0.451  10.965  19.174  0.00  0.00    +0.000 N 
ATOM      2  C   UNL     1      -0.725  12.340  19.220  0.00  0.00    +0.000 A 
ATOM      3  O   UNL     1      -0.874  13.020  18.217  0.00  0.00    +0.000 OA
ATOM      4  N   UNL     1      -0.789  12.706  20.586  0.00  0.00    +0.000 N 
ATOM      5  C   UNL     1      -0.651  11.522  21.349  0.00  0.00    +0.000 A 
ATOM      6  C   UNL     1      -0.765  11.303  22.709  0.00  0.00    +0.000 A 
ATOM      7  C   UNL     1      -0.598   9.995  23.175  0.00  0.00    +0.000 A 
ATOM      8  C   UNL     1      -0.334   8.933  22.284  0.00  0.00    +0.000 A 
ATOM      9  C   UNL     1      -0.247   9.159  20.912  0.00  0.00    +0.000 A 
ATOM     10  C   UNL     1      -0.426  10.460  20.470  0.00  0.00    +0.000 A 
ENDROOT
BRANCH   4  11
ATOM     11  C   UNL     1      -1.210  14.010  21.134  0.00  0.00    +0.000 C 
ATOM     12  C   UNL     1      -1.261  15.164  20.124  0.00  0.00    +0.000 C 
ATOM     13  C   UNL     1       0.132  15.646  19.701  0.00  0.00    +0.000 C 
ATOM     14  N   UNL     1       1.071  15.923  20.804  0.00  0.00    +0.000 NA
ATOM     15  C   UNL     1       1.044  14.905  21.863  0.00  0.00    +0.000 C 
ATOM     16  C   UNL     1      -0.362  14.516  22.308  0.00  0.00    +0.000 C 
BRANCH  14  17
ATOM     17  C   UNL     1       2.463  16.045  20.283  0.00  0.00    +0.000 C 
BRANCH  17  18
ATOM     18  C   UNL     1       3.216  14.695  20.174  0.00  0.00    +0.000 C 
ATOM     19  C   UNL     1       3.173  14.121  18.755  0.00  0.00    +0.000 C 
ATOM     20  C   UNL     1       4.036  14.927  17.795  0.00  0.00    +0.000 C 
ATOM     21  C   UNL     1       5.495  14.909  18.224  0.00  0.00    +0.000 C 
ATOM     22  C   UNL     1       5.728  15.252  19.693  0.00  0.00    +0.000 C 
ATOM     23  C   UNL     1       4.667  14.768  20.684  0.00  0.00    +0.000 C 
ENDBRANCH  17  18
ENDBRANCH  14  17
ENDBRANCH   4  11
BRANCH   1  24
ATOM     24  C   UNL     1      -0.510  10.198  17.952  0.00  0.00    +0.000 C 
BRANCH  24  27
ATOM     25  C   UNL     1      -3.436  10.950  15.620  0.00  0.00    +0.000 C 
ATOM     26  N   UNL     1      -2.124  10.853  16.210  0.00  0.00    +0.000 N 
ATOM     27  C   UNL     1      -1.909  10.108  17.351  0.00  0.00    +0.000 C 
ATOM     28  O   UNL     1      -2.816   9.507  17.928  0.00  0.00    +0.000 OA
ATOM     29  H   UNL     1      -1.356  11.399  15.830  0.00  0.00    +0.000 HD
ENDBRANCH  24  27
ENDBRANCH   1  24
TORSDOF 5
ENDMDL
MODEL 2
REMARK VINA RESULT:      -6.4      2.981      4.479
REMARK  Name = 
REMARK  6 active torsions:
REMARK  status: ('A' for Active; 'I' for Inactive)
REMARK    1  A    between atoms: C_1  and  N_2
REMARK    2  A    between atoms: C_3  and  C_5
REMARK    3  A    between atoms: C_5  and  N_6
REMARK    4  A    between atoms: N_9  and  C_10
REMARK    5  A    between atoms: N_13  and  C_14
REMARK    6  A    between atoms: C_14  and  C_15
REMARK                            x       y       z     vdW  Elec       q    Type
REMARK                         _______ _______ _______ _____ _____    ______ ____
ROOT
ATOM      1  N   UNL     1      -4.596  12.165  19.085  0.00  0.00    +0.000 N 
ATOM      2  C   UNL     1      -3.584  12.227  20.054  0.00  0.00    +0.000 A 
ATOM      3  O   UNL     1      -3.775  12.640  21.188  0.00  0.00    +0.000 OA
ATOM      4  N   UNL     1      -2.401  11.734  19.453  0.00  0.00    +0.000 N 
ATOM      5  C   UNL     1      -2.741  11.285  18.154  0.00  0.00    +0.000 A 
ATOM      6  C   UNL     1      -1.997  10.610  17.205  0.00  0.00    +0.000 A 
ATOM      7  C   UNL     1      -2.625  10.272  16.003  0.00  0.00    +0.000 A 
ATOM      8  C   UNL     1      -3.978  10.598  15.772  0.00  0.00    +0.000 A 
ATOM      9  C   UNL     1      -4.728  11.255  16.745  0.00  0.00    +0.000 A 
ATOM     10  C   UNL     1      -4.090  11.571  17.933  0.00  0.00    +0.000 A 
ENDROOT
BRANCH   4  11
ATOM     11  C   UNL     1      -1.116  11.457  20.124  0.00  0.00    +0.000 C 
ATOM     12  C   UNL     1      -0.780  12.371  21.309  0.00  0.00    +0.000 C 
ATOM     13  C   UNL     1      -0.394  13.790  20.875  0.00  0.00    +0.000 C 
ATOM     14  N   UNL     1       0.623  13.874  19.811  0.00  0.00    +0.000 NA
ATOM     15  C   UNL     1       0.412  12.911  18.723  0.00  0.00    +0.000 C 
ATOM     16  C   UNL     1       0.111  11.495  19.203  0.00  0.00    +0.000 C 
BRANCH  14  17
ATOM     17  C   UNL     1       0.665  15.251  19.240  0.00  0.00    +0.000 C 
BRANCH  17  18
ATOM     18  C   UNL     1       1.967  16.028  19.560  0.00  0.00    +0.000 C 
ATOM     19  C   UNL     1       3.182  15.102  19.663  0.00  0.00    +0.000 C 
ATOM     20  C   UNL     1       3.588  14.553  18.303  0.00  0.00    +0.000 C 
ATOM     21  C   UNL     1       3.980  15.675  17.354  0.00  0.00    +0.000 C 
ATOM     22  C   UNL     1       2.972  16.820  17.278  0.00  0.00    +0.000 C 
ATOM     23  C   UNL     1       2.244  17.178  18.575  0.00  0.00    +0.000 C 
ENDBRANCH  17  18
ENDBRANCH  14  17
ENDBRANCH   4  11
BRANCH   1  24
ATOM     24  C   UNL     1      -5.987  12.399  19.393  0.00  0.00    +0.000 C 
BRANCH  24  27
ATOM     25  C   UNL     1      -7.572   9.058  20.335  0.00  0.00    +0.000 C 
ATOM     26  N   UNL     1      -6.869  10.114  19.649  0.00  0.00    +0.000 N 
ATOM     27  C   UNL     1      -6.612  11.318  20.269  0.00  0.00    +0.000 C 
ATOM     28  O   UNL     1      -6.977  11.560  21.420  0.00  0.00    +0.000 OA
ATOM     29  H   UNL     1      -6.622  10.005  18.669  0.00  0.00    +0.000 HD
ENDBRANCH  24  27
ENDBRANCH   1  24
TORSDOF 5
ENDMDL
MODEL 3
REMARK VINA RESULT:      -6.4      9.104     11.455
REMARK  Name = 
REMARK  6 active torsions:
REMARK  status: ('A' for Active; 'I' for Inactive)
REMARK    1  A    between atoms: C_1  and  N_2
REMARK    2  A    between atoms: C_3  and  C_5
REMARK    3  A    between atoms: C_5  and  N_6
REMARK    4  A    between atoms: N_9  and  C_10
REMARK    5  A    between atoms: N_13  and  C_14
REMARK    6  A    between atoms: C_14  and  C_15
REMARK                            x       y       z     vdW  Elec       q    Type
REMARK                         _______ _______ _______ _____ _____    ______ ____
ROOT
ATOM      1  N   UNL     1       4.305   3.728  19.207  0.00  0.00    +0.000 N 
ATOM      2  C   UNL     1       5.326   4.255  18.404  0.00  0.00    +0.000 A 
ATOM      3  O   UNL     1       6.200   3.564  17.902  0.00  0.00    +0.000 OA
ATOM      4  N   UNL     1       5.111   5.652  18.320  0.00  0.00    +0.000 N 
ATOM      5  C   UNL     1       3.899   5.935  18.994  0.00  0.00    +0.000 A 
ATOM      6  C   UNL     1       3.174   7.107  19.101  0.00  0.00    +0.000 A 
ATOM      7  C   UNL     1       1.979   7.070  19.826  0.00  0.00    +0.000 A 
ATOM      8  C   UNL     1       1.522   5.874  20.417  0.00  0.00    +0.000 A 
ATOM      9  C   UNL     1       2.245   4.691  20.281  0.00  0.00    +0.000 A 
ATOM     10  C   UNL     1       3.421   4.746  19.551  0.00  0.00    +0.000 A 
ENDROOT
BRANCH   4  11
ATOM     11  C   UNL     1       5.831   6.608  17.457  0.00  0.00    +0.000 C 
ATOM     12  C   UNL     1       5.104   7.011  16.168  0.00  0.00    +0.000 C 
ATOM     13  C   UNL     1       5.081   5.889  15.123  0.00  0.00    +0.000 C 
ATOM     14  N   UNL     1       6.381   5.254  14.844  0.00  0.00    +0.000 NA
ATOM     15  C   UNL     1       7.170   4.982  16.053  0.00  0.00    +0.000 C 
ATOM     16  C   UNL     1       7.232   6.154  17.026  0.00  0.00    +0.000 C 
BRANCH  14  17
ATOM     17  C   UNL     1       6.187   3.980  14.093  0.00  0.00    +0.000 C 
BRANCH  17  18
ATOM     18  C   UNL     1       5.920   4.174  12.579  0.00  0.00    +0.000 C 
ATOM     19  C   UNL     1       7.212   4.160  11.757  0.00  0.00    +0.000 C 
ATOM     20  C   UNL     1       7.822   2.768  11.691  0.00  0.00    +0.000 C 
ATOM     21  C   UNL     1       6.872   1.786  11.021  0.00  0.00    +0.000 C 
ATOM     22  C   UNL     1       5.448   1.806  11.571  0.00  0.00    +0.000 C 
ATOM     23  C   UNL     1       4.904   3.167  12.010  0.00  0.00    +0.000 C 
ENDBRANCH  17  18
ENDBRANCH  14  17
ENDBRANCH   4  11
BRANCH   1  24
ATOM     24  C   UNL     1       4.083   2.309  19.355  0.00  0.00    +0.000 C 
BRANCH  24  27
ATOM     25  C   UNL     1       5.936   0.260  21.988  0.00  0.00    +0.000 C 
ATOM     26  N   UNL     1       5.557   0.934  20.770  0.00  0.00    +0.000 N 
ATOM     27  C   UNL     1       4.459   1.768  20.731  0.00  0.00    +0.000 C 
ATOM     28  O   UNL     1       3.745   1.967  21.713  0.00  0.00    +0.000 OA
ATOM     29  H   UNL     1       6.055   0.738  19.906  0.00  0.00    +0.000 HD
ENDBRANCH  24  27
ENDBRANCH   1  24
TORSDOF 5
ENDMDL
MODEL 4
REMARK VINA RESULT:      -6.2      7.495     10.307
REMARK  Name = 
REMARK  6 active torsions:
REMARK  status: ('A' for Active; 'I' for Inactive)
REMARK    1  A    between atoms: C_1  and  N_2
REMARK    2  A    between atoms: C_3  and  C_5
REMARK    3  A    between atoms: C_5  and  N_6
REMARK    4  A    between atoms: N_9  and  C_10
REMARK    5  A    between atoms: N_13  and  C_14
REMARK    6  A    between atoms: C_14  and  C_15
REMARK                            x       y       z     vdW  Elec       q    Type
REMARK                         _______ _______ _______ _____ _____    ______ ____
ROOT
ATOM      1  N   UNL     1       7.136   5.229  17.918  0.00  0.00    +0.000 N 
ATOM      2  C   UNL     1       6.255   4.588  18.802  0.00  0.00    +0.000 A 
ATOM      3  O   UNL     1       6.265   4.784  20.008  0.00  0.00    +0.000 OA
ATOM      4  N   UNL     1       5.426   3.744  18.024  0.00  0.00    +0.000 N 
ATOM      5  C   UNL     1       5.753   3.965  16.665  0.00  0.00    +0.000 A 
ATOM      6  C   UNL     1       5.166   3.497  15.505  0.00  0.00    +0.000 A 
ATOM      7  C   UNL     1       5.706   3.917  14.285  0.00  0.00    +0.000 A 
ATOM      8  C   UNL     1       6.805   4.799  14.241  0.00  0.00    +0.000 A 
ATOM      9  C   UNL     1       7.374   5.287  15.416  0.00  0.00    +0.000 A 
ATOM     10  C   UNL     1       6.818   4.868  16.613  0.00  0.00    +0.000 A 
ENDROOT
BRANCH   4  11
ATOM     11  C   UNL     1       4.245   2.991  18.489  0.00  0.00    +0.000 C 
ATOM     12  C   UNL     1       3.086   2.899  17.488  0.00  0.00    +0.000 C 
ATOM     13  C   UNL     1       2.335   4.226  17.323  0.00  0.00    +0.000 C 
ATOM     14  N   UNL     1       1.926   4.884  18.577  0.00  0.00    +0.000 NA
ATOM     15  C   UNL     1       2.967   4.866  19.613  0.00  0.00    +0.000 C 
ATOM     16  C   UNL     1       3.630   3.505  19.797  0.00  0.00    +0.000 C 
BRANCH  14  17
ATOM     17  C   UNL     1       1.525   6.297  18.315  0.00  0.00    +0.000 C 
BRANCH  17  18
ATOM     18  C   UNL     1       2.452   7.348  18.978  0.00  0.00    +0.000 C 
ATOM     19  C   UNL     1       2.836   8.471  18.011  0.00  0.00    +0.000 C 
ATOM     20  C   UNL     1       1.657   9.383  17.708  0.00  0.00    +0.000 C 
ATOM     21  C   UNL     1       1.149  10.058  18.974  0.00  0.00    +0.000 C 
ATOM     22  C   UNL     1       0.906   9.108  20.145  0.00  0.00    +0.000 C 
ATOM     23  C   UNL     1       1.872   7.930  20.280  0.00  0.00    +0.000 C 
ENDBRANCH  17  18
ENDBRANCH  14  17
ENDBRANCH   4  11
BRANCH   1  24
ATOM     24  C   UNL     1       7.997   6.314  18.326  0.00  0.00    +0.000 C 
BRANCH  24  27
ATOM     25  C   UNL     1       7.998  10.094  17.801  0.00  0.00    +0.000 C 
ATOM     26  N   UNL     1       8.369   8.742  18.138  0.00  0.00    +0.000 N 
ATOM     27  C   UNL     1       7.565   7.676  17.792  0.00  0.00    +0.000 C 
ATOM     28  O   UNL     1       6.495   7.820  17.200  0.00  0.00    +0.000 OA
ATOM     29  H   UNL     1       9.194   8.569  18.704  0.00  0.00    +0.000 HD
ENDBRANCH  24  27
ENDBRANCH   1  24
TORSDOF 5
ENDMDL
MODEL 5
REMARK VINA RESULT:      -6.2      2.906      4.719
REMARK  Name = 
REMARK  6 active torsions:
REMARK  status: ('A' for Active; 'I' for Inactive)
REMARK    1  A    between atoms: C_1  and  N_2
REMARK    2  A    between atoms: C_3  and  C_5
REMARK    3  A    between atoms: C_5  and  N_6
REMARK    4  A    between atoms: N_9  and  C_10
REMARK    5  A    between atoms: N_13  and  C_14
REMARK    6  A    between atoms: C_14  and  C_15
REMARK                            x       y       z     vdW  Elec       q    Type
REMARK                         _______ _______ _______ _____ _____    ______ ____
ROOT
ATOM      1  N   UNL     1      -3.940  12.265  19.206  0.00  0.00    +0.000 N 
ATOM      2  C   UNL     1      -2.877  12.033  20.091  0.00  0.00    +0.000 A 
ATOM      3  O   UNL     1      -2.866  12.449  21.239  0.00  0.00    +0.000 OA
ATOM      4  N   UNL     1      -1.916  11.262  19.394  0.00  0.00    +0.000 N 
ATOM      5  C   UNL     1      -2.460  10.954  18.124  0.00  0.00    +0.000 A 
ATOM      6  C   UNL     1      -1.994  10.133  17.114  0.00  0.00    +0.000 A 
ATOM      7  C   UNL     1      -2.779  10.005  15.964  0.00  0.00    +0.000 A 
ATOM      8  C   UNL     1      -4.011  10.682  15.844  0.00  0.00    +0.000 A 
ATOM      9  C   UNL     1      -4.485  11.486  16.878  0.00  0.00    +0.000 A 
ATOM     10  C   UNL     1      -3.698  11.591  18.013  0.00  0.00    +0.000 A 
ENDROOT
BRANCH   4  11
ATOM     11  C   UNL     1      -0.703  10.638  19.958  0.00  0.00    +0.000 C 
ATOM     12  C   UNL     1      -0.344  11.068  21.386  0.00  0.00    +0.000 C 
ATOM     13  C   UNL     1       0.203  12.499  21.457  0.00  0.00    +0.000 C 
ATOM     14  N   UNL     1       1.280  12.815  20.502  0.00  0.00    +0.000 NA
ATOM     15  C   UNL     1       1.034  12.294  19.151  0.00  0.00    +0.000 C 
ATOM     16  C   UNL     1       0.570  10.842  19.125  0.00  0.00    +0.000 C 
BRANCH  14  17
ATOM     17  C   UNL     1       1.488  14.290  20.423  0.00  0.00    +0.000 C 
BRANCH  17  18
ATOM     18  C   UNL     1       1.157  14.901  19.038  0.00  0.00    +0.000 C 
ATOM     19  C   UNL     1      -0.060  15.828  19.091  0.00  0.00    +0.000 C 
ATOM     20  C   UNL     1       0.249  17.123  19.828  0.00  0.00    +0.000 C 
ATOM     21  C   UNL     1       1.354  17.900  19.128  0.00  0.00    +0.000 C 
ATOM     22  C   UNL     1       2.594  17.073  18.791  0.00  0.00    +0.000 C 
ATOM     23  C   UNL     1       2.355  15.617  18.390  0.00  0.00    +0.000 C 
ENDBRANCH  17  18
ENDBRANCH  14  17
ENDBRANCH   4  11
BRANCH   1  24
ATOM     24  C   UNL     1      -5.192  12.848  19.626  0.00  0.00    +0.000 C 
BRANCH  24  27
ATOM     25  C   UNL     1      -7.724  10.162  20.593  0.00  0.00    +0.000 C 
ATOM     26  N   UNL     1      -6.800  10.997  19.868  0.00  0.00    +0.000 N 
ATOM     27  C   UNL     1      -6.026  11.935  20.520  0.00  0.00    +0.000 C 
ATOM     28  O   UNL     1      -6.093  12.118  21.735  0.00  0.00    +0.000 OA
ATOM     29  H   UNL     1      -6.766  10.954  18.853  0.00  0.00    +0.000 HD
ENDBRANCH  24  27
ENDBRANCH   1  24
TORSDOF 5
ENDMDL
MODEL 6
REMARK VINA RESULT:      -6.2      7.067      9.719
REMARK  Name = 
REMARK  6 active torsions:
REMARK  status: ('A' for Active; 'I' for Inactive)
REMARK    1  A    between atoms: C_1  and  N_2
REMARK    2  A    between atoms: C_3  and  C_5
REMARK    3  A    between atoms: C_5  and  N_6
REMARK    4  A    between atoms: N_9  and  C_10
REMARK    5  A    between atoms: N_13  and  C_14
REMARK    6  A    between atoms: C_14  and  C_15
REMARK                            x       y       z     vdW  Elec       q    Type
REMARK                         _______ _______ _______ _____ _____    ______ ____
ROOT
ATOM      1  N   UNL     1       6.944   5.352  17.974  0.00  0.00    +0.000 N 
ATOM      2  C   UNL     1       5.867   5.028  18.812  0.00  0.00    +0.000 A 
ATOM      3  O   UNL     1       5.841   5.312  20.000  0.00  0.00    +0.000 OA
ATOM      4  N   UNL     1       4.906   4.360  18.016  0.00  0.00    +0.000 N 
ATOM      5  C   UNL     1       5.375   4.380  16.680  0.00  0.00    +0.000 A 
ATOM      6  C   UNL     1       4.771   3.982  15.502  0.00  0.00    +0.000 A 
ATOM      7  C   UNL     1       5.487   4.152  14.313  0.00  0.00    +0.000 A 
ATOM      8  C   UNL     1       6.777   4.721  14.315  0.00  0.00    +0.000 A 
ATOM      9  C   UNL     1       7.367   5.144  15.504  0.00  0.00    +0.000 A 
ATOM     10  C   UNL     1       6.638   4.977  16.669  0.00  0.00    +0.000 A 
ENDROOT
BRANCH   4  11
ATOM     11  C   UNL     1       3.541   3.970  18.417  0.00  0.00    +0.000 C 
ATOM     12  C   UNL     1       2.408   4.577  17.580  0.00  0.00    +0.000 C 
ATOM     13  C   UNL     1       2.200   6.071  17.856  0.00  0.00    +0.000 C 
ATOM     14  N   UNL     1       2.094   6.446  19.277  0.00  0.00    +0.000 NA
ATOM     15  C   UNL     1       3.077   5.771  20.135  0.00  0.00    +0.000 C 
ATOM     16  C   UNL     1       3.191   4.272  19.880  0.00  0.00    +0.000 C 
BRANCH  14  17
ATOM     17  C   UNL     1       2.240   7.922  19.439  0.00  0.00    +0.000 C 
BRANCH  17  18
ATOM     18  C   UNL     1       1.075   8.741  18.828  0.00  0.00    +0.000 C 
ATOM     19  C   UNL     1       0.237   9.442  19.900  0.00  0.00    +0.000 C 
ATOM     20  C   UNL     1       0.995  10.593  20.546  0.00  0.00    +0.000 C 
ATOM     21  C   UNL     1       1.356  11.654  19.518  0.00  0.00    +0.000 C 
ATOM     22  C   UNL     1       2.022  11.113  18.255  0.00  0.00    +0.000 C 
ATOM     23  C   UNL     1       1.539   9.748  17.760  0.00  0.00    +0.000 C 
ENDBRANCH  17  18
ENDBRANCH  14  17
ENDBRANCH   4  11
BRANCH   1  24
ATOM     24  C   UNL     1       8.025   6.214  18.391  0.00  0.00    +0.000 C 
BRANCH  24  27
ATOM     25  C   UNL     1       8.558   9.992  18.336  0.00  0.00    +0.000 C 
ATOM     26  N   UNL     1       8.708   8.575  18.555  0.00  0.00    +0.000 N 
ATOM     27  C   UNL     1       7.846   7.670  17.972  0.00  0.00    +0.000 C 
ATOM     28  O   UNL     1       6.906   8.018  17.257  0.00  0.00    +0.000 OA
ATOM     29  H   UNL     1       9.410   8.234  19.206  0.00  0.00    +0.000 HD
ENDBRANCH  24  27
ENDBRANCH   1  24
TORSDOF 5
ENDMDL
MODEL 7
REMARK VINA RESULT:      -6.2      2.935      4.292
REMARK  Name = 
REMARK  6 active torsions:
REMARK  status: ('A' for Active; 'I' for Inactive)
REMARK    1  A    between atoms: C_1  and  N_2
REMARK    2  A    between atoms: C_3  and  C_5
REMARK    3  A    between atoms: C_5  and  N_6
REMARK    4  A    between atoms: N_9  and  C_10
REMARK    5  A    between atoms: N_13  and  C_14
REMARK    6  A    between atoms: C_14  and  C_15
REMARK                            x       y       z     vdW  Elec       q    Type
REMARK                         _______ _______ _______ _____ _____    ______ ____
ROOT
ATOM      1  N   UNL     1      -3.935  12.446  19.377  0.00  0.00    +0.000 N 
ATOM      2  C   UNL     1      -3.240  12.551  20.590  0.00  0.00    +0.000 A 
ATOM      3  O   UNL     1      -3.676  13.160  21.555  0.00  0.00    +0.000 OA
ATOM      4  N   UNL     1      -2.026  11.838  20.438  0.00  0.00    +0.000 N 
ATOM      5  C   UNL     1      -2.053  11.225  19.162  0.00  0.00    +0.000 A 
ATOM      6  C   UNL     1      -1.185  10.326  18.571  0.00  0.00    +0.000 A 
ATOM      7  C   UNL     1      -1.494   9.870  17.286  0.00  0.00    +0.000 A 
ATOM      8  C   UNL     1      -2.660  10.303  16.621  0.00  0.00    +0.000 A 
ATOM      9  C   UNL     1      -3.543  11.189  17.235  0.00  0.00    +0.000 A 
ATOM     10  C   UNL     1      -3.224  11.620  18.512  0.00  0.00    +0.000 A 
ENDROOT
BRANCH   4  11
ATOM     11  C   UNL     1      -1.041  11.531  21.492  0.00  0.00    +0.000 C 
ATOM     12  C   UNL     1      -0.903  12.590  22.594  0.00  0.00    +0.000 C 
ATOM     13  C   UNL     1      -0.187  13.858  22.114  0.00  0.00    +0.000 C 
ATOM     14  N   UNL     1       1.085  13.639  21.402  0.00  0.00    +0.000 NA
ATOM     15  C   UNL     1       1.030  12.534  20.436  0.00  0.00    +0.000 C 
ATOM     16  C   UNL     1       0.382  11.267  20.984  0.00  0.00    +0.000 C 
BRANCH  14  17
ATOM     17  C   UNL     1       1.506  14.882  20.695  0.00  0.00    +0.000 C 
BRANCH  17  18
ATOM     18  C   UNL     1       1.274  14.847  19.163  0.00  0.00    +0.000 C 
ATOM     19  C   UNL     1       0.060  15.680  18.743  0.00  0.00    +0.000 C 
ATOM     20  C   UNL     1       0.324  17.172  18.886  0.00  0.00    +0.000 C 
ATOM     21  C   UNL     1       1.478  17.610  17.997  0.00  0.00    +0.000 C 
ATOM     22  C   UNL     1       2.734  16.750  18.119  0.00  0.00    +0.000 C 
ATOM     23  C   UNL     1       2.517  15.254  18.353  0.00  0.00    +0.000 C 
ENDBRANCH  17  18
ENDBRANCH  14  17
ENDBRANCH   4  11
BRANCH   1  24
ATOM     24  C   UNL     1      -5.304  12.880  19.222  0.00  0.00    +0.000 C 
BRANCH  24  27
ATOM     25  C   UNL     1      -7.722  11.819  21.976  0.00  0.00    +0.000 C 
ATOM     26  N   UNL     1      -6.856  12.580  21.111  0.00  0.00    +0.000 N 
ATOM     27  C   UNL     1      -6.311  12.018  19.976  0.00  0.00    +0.000 C 
ATOM     28  O   UNL     1      -6.519  10.848  19.653  0.00  0.00    +0.000 OA
ATOM     29  H   UNL     1      -6.576  13.521  21.374  0.00  0.00    +0.000 HD
ENDBRANCH  24  27
ENDBRANCH   1  24
TORSDOF 5
ENDMDL
MODEL 8
REMARK VINA RESULT:      -6.2      4.724      7.789
REMARK  Name = 
REMARK  6 active torsions:
REMARK  status: ('A' for Active; 'I' for Inactive)
REMARK    1  A    between atoms: C_1  and  N_2
REMARK    2  A    between atoms: C_3  and  C_5
REMARK    3  A    between atoms: C_5  and  N_6
REMARK    4  A    between atoms: N_9  and  C_10
REMARK    5  A    between atoms: N_13  and  C_14
REMARK    6  A    between atoms: C_14  and  C_15
REMARK                            x       y       z     vdW  Elec       q    Type
REMARK                         _______ _______ _______ _____ _____    ______ ____
ROOT
ATOM      1  N   UNL     1      -3.983  14.207  22.379  0.00  0.00    +0.000 N 
ATOM      2  C   UNL     1      -5.072  13.397  22.023  0.00  0.00    +0.000 A 
ATOM      3  O   UNL     1      -5.315  12.333  22.572  0.00  0.00    +0.000 OA
ATOM      4  N   UNL     1      -5.759  14.059  20.977  0.00  0.00    +0.000 N 
ATOM      5  C   UNL     1      -5.130  15.312  20.783  0.00  0.00    +0.000 A 
ATOM      6  C   UNL     1      -5.475  16.384  19.983  0.00  0.00    +0.000 A 
ATOM      7  C   UNL     1      -4.657  17.518  20.023  0.00  0.00    +0.000 A 
ATOM      8  C   UNL     1      -3.525  17.569  20.863  0.00  0.00    +0.000 A 
ATOM      9  C   UNL     1      -3.200  16.493  21.686  0.00  0.00    +0.000 A 
ATOM     10  C   UNL     1      -4.028  15.385  21.639  0.00  0.00    +0.000 A 
ENDROOT
BRANCH   4  11
ATOM     11  C   UNL     1      -7.055  13.673  20.386  0.00  0.00    +0.000 C 
ATOM     12  C   UNL     1      -7.484  12.220  20.626  0.00  0.00    +0.000 C 
ATOM     13  C   UNL     1      -6.665  11.215  19.806  0.00  0.00    +0.000 C 
ATOM     14  N   UNL     1      -6.541  11.520  18.369  0.00  0.00    +0.000 NA
ATOM     15  C   UNL     1      -6.270  12.937  18.094  0.00  0.00    +0.000 C 
ATOM     16  C   UNL     1      -7.162  13.898  18.872  0.00  0.00    +0.000 C 
BRANCH  14  17
ATOM     17  C   UNL     1      -5.465  10.691  17.753  0.00  0.00    +0.000 C 
BRANCH  17  18
ATOM     18  C   UNL     1      -4.289  11.516  17.170  0.00  0.00    +0.000 C 
ATOM     19  C   UNL     1      -3.094  11.576  18.126  0.00  0.00    +0.000 C 
ATOM     20  C   UNL     1      -2.386  10.233  18.227  0.00  0.00    +0.000 C 
ATOM     21  C   UNL     1      -1.837   9.801  16.876  0.00  0.00    +0.000 C 
ATOM     22  C   UNL     1      -2.842   9.879  15.729  0.00  0.00    +0.000 C 
ATOM     23  C   UNL     1      -3.845  11.034  15.777  0.00  0.00    +0.000 C 
ENDBRANCH  17  18
ENDBRANCH  14  17
ENDBRANCH   4  11
BRANCH   1  24
ATOM     24  C   UNL     1      -3.170  13.953  23.544  0.00  0.00    +0.000 C 
BRANCH  24  27
ATOM     25  C   UNL     1      -1.110  10.774  23.078  0.00  0.00    +0.000 C 
ATOM     26  N   UNL     1      -2.194  11.716  23.209  0.00  0.00    +0.000 N 
ATOM     27  C   UNL     1      -1.955  13.073  23.266  0.00  0.00    +0.000 C 
ATOM     28  O   UNL     1      -0.820  13.547  23.225  0.00  0.00    +0.000 OA
ATOM     29  H   UNL     1      -3.144  11.380  23.338  0.00  0.00    +0.000 HD
ENDBRANCH  24  27
ENDBRANCH   1  24
TORSDOF 5
ENDMDL
MODEL 9
REMARK VINA RESULT:      -6.2      3.304      6.267
REMARK  Name = 
REMARK  6 active torsions:
REMARK  status: ('A' for Active; 'I' for Inactive)
REMARK    1  A    between atoms: C_1  and  N_2
REMARK    2  A    between atoms: C_3  and  C_5
REMARK    3  A    between atoms: C_5  and  N_6
REMARK    4  A    between atoms: N_9  and  C_10
REMARK    5  A    between atoms: N_13  and  C_14
REMARK    6  A    between atoms: C_14  and  C_15
REMARK                            x       y       z     vdW  Elec       q    Type
REMARK                         _______ _______ _______ _____ _____    ______ ____
ROOT
ATOM      1  N   UNL     1      -2.934  10.768  18.295  0.00  0.00    +0.000 N 
ATOM      2  C   UNL     1      -1.574  10.446  18.178  0.00  0.00    +0.000 A 
ATOM      3  O   UNL     1      -1.152   9.632  17.371  0.00  0.00    +0.000 OA
ATOM      4  N   UNL     1      -0.878  11.228  19.131  0.00  0.00    +0.000 N 
ATOM      5  C   UNL     1      -1.820  12.089  19.743  0.00  0.00    +0.000 A 
ATOM      6  C   UNL     1      -1.650  13.127  20.639  0.00  0.00    +0.000 A 
ATOM      7  C   UNL     1      -2.789  13.825  21.053  0.00  0.00    +0.000 A 
ATOM      8  C   UNL     1      -4.067  13.487  20.562  0.00  0.00    +0.000 A 
ATOM      9  C   UNL     1      -4.226  12.456  19.638  0.00  0.00    +0.000 A 
ATOM     10  C   UNL     1      -3.085  11.785  19.233  0.00  0.00    +0.000 A 
ENDROOT
BRANCH   4  11
ATOM     11  C   UNL     1       0.586  11.353  19.274  0.00  0.00    +0.000 C 
ATOM     12  C   UNL     1       1.418  10.502  18.305  0.00  0.00    +0.000 C 
ATOM     13  C   UNL     1       1.384   9.008  18.647  0.00  0.00    +0.000 C 
ATOM     14  N   UNL     1       1.664   8.670  20.054  0.00  0.00    +0.000 NA
ATOM     15  C   UNL     1       0.993   9.558  21.012  0.00  0.00    +0.000 C 
ATOM     16  C   UNL     1       1.123  11.039  20.677  0.00  0.00    +0.000 C 
BRANCH  14  17
ATOM     17  C   UNL     1       1.271   7.260  20.339  0.00  0.00    +0.000 C 
BRANCH  17  18
ATOM     18  C   UNL     1       2.411   6.232  20.125  0.00  0.00    +0.000 C 
ATOM     19  C   UNL     1       2.162   4.926  20.886  0.00  0.00    +0.000 C 
ATOM     20  C   UNL     1       1.028   4.122  20.269  0.00  0.00    +0.000 C 
ATOM     21  C   UNL     1       1.351   3.731  18.835  0.00  0.00    +0.000 C 
ATOM     22  C   UNL     1       1.834   4.884  17.957  0.00  0.00    +0.000 C 
ATOM     23  C   UNL     1       2.698   5.947  18.640  0.00  0.00    +0.000 C 
ENDBRANCH  17  18
ENDBRANCH  14  17
ENDBRANCH   4  11
BRANCH   1  24
ATOM     24  C   UNL     1      -3.927  10.316  17.350  0.00  0.00    +0.000 C 
BRANCH  24  27
ATOM     25  C   UNL     1      -2.852   9.843  13.719  0.00  0.00    +0.000 C 
ATOM     26  N   UNL     1      -3.293   9.620  15.073  0.00  0.00    +0.000 N 
ATOM     27  C   UNL     1      -3.608  10.677  15.903  0.00  0.00    +0.000 C 
ATOM     28  O   UNL     1      -3.514  11.850  15.543  0.00  0.00    +0.000 OA
ATOM     29  H   UNL     1      -3.304   8.678  15.454  0.00  0.00    +0.000 HD
ENDBRANCH  24  27
ENDBRANCH   1  24
TORSDOF 5
ENDMDL
