MODEL 1
REMARK VINA RESULT:      -5.2      0.000      0.000
REMARK  Name = 
REMARK  5 active torsions:
REMARK  status: ('A' for Active; 'I' for Inactive)
REMARK    1  A    between atoms: O_1  and  C_2
REMARK    2  A    between atoms: C_2  and  C_3
REMARK    3  A    between atoms: C_6  and  O_7
REMARK    4  A    between atoms: C_8  and  O_9
REMARK    5  A    between atoms: C_10  and  O_11
REMARK                            x       y       z     vdW  Elec       q    Type
REMARK                         _______ _______ _______ _____ _____    ______ ____
ROOT
ATOM      1  C   UNL     1       5.869   4.785  16.340  0.00  0.00    +0.000 C 
ATOM      2  C   UNL     1       4.703   3.823  16.621  0.00  0.00    +0.000 C 
ATOM      3  N   UNL     1       4.001   4.113  17.867  0.00  0.00    +0.000 NA
ATOM      4  C   UNL     1       4.845   4.275  19.032  0.00  0.00    +0.000 C 
ATOM      5  C   UNL     1       6.004   5.271  18.808  0.00  0.00    +0.000 C 
ATOM      6  C   UNL     1       6.800   4.886  17.551  0.00  0.00    +0.000 C 
ATOM      7  H   UNL     1       3.287   3.410  18.059  0.00  0.00    +0.000 HD
ENDROOT
BRANCH   4   8
ATOM      8  O   UNL     1       5.360   3.019  19.443  0.00  0.00    +0.000 OA
ATOM      9  H   UNL     1       6.253   3.173  19.787  0.00  0.00    +0.000 HD
ENDBRANCH   4   8
BRANCH   5  10
ATOM     10  O   UNL     1       6.873   5.289  19.949  0.00  0.00    +0.000 OA
ATOM     11  H   UNL     1       6.531   5.991  20.538  0.00  0.00    +0.000 HD
ENDBRANCH   5  10
BRANCH   6  12
ATOM     12  O   UNL     1       7.832   5.841  17.273  0.00  0.00    +0.000 OA
ATOM     13  H   UNL     1       8.550   5.380  16.804  0.00  0.00    +0.000 HD
ENDBRANCH   6  12
BRANCH   1  14
ATOM     14  C   UNL     1       6.651   4.353  15.094  0.00  0.00    +0.000 C 
BRANCH  14  15
ATOM     15  O   UNL     1       7.452   5.430  14.628  0.00  0.00    +0.000 OA
ATOM     16  H   UNL     1       6.904   5.941  14.007  0.00  0.00    +0.000 HD
ENDBRANCH  14  15
ENDBRANCH   1  14
TORSDOF 5
ENDMDL
MODEL 2
REMARK VINA RESULT:      -5.2      1.870      3.837
REMARK  Name = 
REMARK  5 active torsions:
REMARK  status: ('A' for Active; 'I' for Inactive)
REMARK    1  A    between atoms: O_1  and  C_2
REMARK    2  A    between atoms: C_2  and  C_3
REMARK    3  A    between atoms: C_6  and  O_7
REMARK    4  A    between atoms: C_8  and  O_9
REMARK    5  A    between atoms: C_10  and  O_11
REMARK                            x       y       z     vdW  Elec       q    Type
REMARK                         _______ _______ _______ _____ _____    ______ ____
ROOT
ATOM      1  C   UNL     1       4.541   5.281  17.720  0.00  0.00    +0.000 C 
ATOM      2  C   UNL     1       4.660   6.493  16.783  0.00  0.00    +0.000 C 
ATOM      3  N   UNL     1       5.567   6.272  15.662  0.00  0.00    +0.000 NA
ATOM      4  C   UNL     1       6.869   5.745  16.012  0.00  0.00    +0.000 C 
ATOM      5  C   UNL     1       6.795   4.495  16.915  0.00  0.00    +0.000 C 
ATOM      6  C   UNL     1       5.923   4.782  18.148  0.00  0.00    +0.000 C 
ATOM      7  H   UNL     1       5.681   7.121  15.108  0.00  0.00    +0.000 HD
ENDROOT
BRANCH   4   8
ATOM      8  O   UNL     1       7.653   6.748  16.637  0.00  0.00    +0.000 OA
ATOM      9  H   UNL     1       7.363   7.602  16.280  0.00  0.00    +0.000 HD
ENDBRANCH   4   8
BRANCH   5  10
ATOM     10  O   UNL     1       8.110   4.100  17.329  0.00  0.00    +0.000 OA
ATOM     11  H   UNL     1       8.374   3.372  16.732  0.00  0.00    +0.000 HD
ENDBRANCH   5  10
BRANCH   6  12
ATOM     12  O   UNL     1       5.770   3.612  18.963  0.00  0.00    +0.000 OA
ATOM     13  H   UNL     1       5.060   3.785  19.607  0.00  0.00    +0.000 HD
ENDBRANCH   6  12
BRANCH   1  14
ATOM     14  C   UNL     1       3.684   5.615  18.947  0.00  0.00    +0.000 C 
BRANCH  14  15
ATOM     15  O   UNL     1       3.015   4.446  19.402  0.00  0.00    +0.000 OA
ATOM     16  H   UNL     1       3.596   4.028  20.061  0.00  0.00    +0.000 HD
ENDBRANCH  14  15
ENDBRANCH   1  14
TORSDOF 5
ENDMDL
MODEL 3
REMARK VINA RESULT:      -5.1      3.035      5.432
REMARK  Name = 
REMARK  5 active torsions:
REMARK  status: ('A' for Active; 'I' for Inactive)
REMARK    1  A    between atoms: O_1  and  C_2
REMARK    2  A    between atoms: C_2  and  C_3
REMARK    3  A    between atoms: C_6  and  O_7
REMARK    4  A    between atoms: C_8  and  O_9
REMARK    5  A    between atoms: C_10  and  O_11
REMARK                            x       y       z     vdW  Elec       q    Type
REMARK                         _______ _______ _______ _____ _____    ______ ____
ROOT
ATOM      1  C   UNL     1       1.897   3.983  19.281  0.00  0.00    +0.000 C 
ATOM      2  C   UNL     1       3.032   4.956  19.636  0.00  0.00    +0.000 C 
ATOM      3  N   UNL     1       4.160   4.892  18.712  0.00  0.00    +0.000 NA
ATOM      4  C   UNL     1       4.667   3.563  18.443  0.00  0.00    +0.000 C 
ATOM      5  C   UNL     1       3.563   2.563  18.035  0.00  0.00    +0.000 C 
ATOM      6  C   UNL     1       2.434   2.565  19.078  0.00  0.00    +0.000 C 
ATOM      7  H   UNL     1       4.924   5.492  19.022  0.00  0.00    +0.000 HD
ENDROOT
BRANCH   4   8
ATOM      8  O   UNL     1       5.374   3.071  19.570  0.00  0.00    +0.000 OA
ATOM      9  H   UNL     1       4.725   2.654  20.156  0.00  0.00    +0.000 HD
ENDBRANCH   4   8
BRANCH   5  10
ATOM     10  O   UNL     1       4.109   1.243  17.909  0.00  0.00    +0.000 OA
ATOM     11  H   UNL     1       4.689   1.265  17.122  0.00  0.00    +0.000 HD
ENDBRANCH   5  10
BRANCH   6  12
ATOM     12  O   UNL     1       1.357   1.705  18.682  0.00  0.00    +0.000 OA
ATOM     13  H   UNL     1       0.538   2.232  18.679  0.00  0.00    +0.000 HD
ENDBRANCH   6  12
BRANCH   1  14
ATOM     14  C   UNL     1       0.804   3.997  20.357  0.00  0.00    +0.000 C 
BRANCH  14  15
ATOM     15  O   UNL     1       0.924   2.847  21.182  0.00  0.00    +0.000 OA
ATOM     16  H   UNL     1       1.641   3.027  21.815  0.00  0.00    +0.000 HD
ENDBRANCH  14  15
ENDBRANCH   1  14
TORSDOF 5
ENDMDL
MODEL 4
REMARK VINA RESULT:      -5.1      2.456      3.964
REMARK  Name = 
REMARK  5 active torsions:
REMARK  status: ('A' for Active; 'I' for Inactive)
REMARK    1  A    between atoms: O_1  and  C_2
REMARK    2  A    between atoms: C_2  and  C_3
REMARK    3  A    between atoms: C_6  and  O_7
REMARK    4  A    between atoms: C_8  and  O_9
REMARK    5  A    between atoms: C_10  and  O_11
REMARK                            x       y       z     vdW  Elec       q    Type
REMARK                         _______ _______ _______ _____ _____    ______ ____
ROOT
ATOM      1  C   UNL     1       4.425   4.626  19.273  0.00  0.00    +0.000 C 
ATOM      2  C   UNL     1       3.509   5.485  18.387  0.00  0.00    +0.000 C 
ATOM      3  N   UNL     1       2.120   5.038  18.385  0.00  0.00    +0.000 NA
ATOM      4  C   UNL     1       1.923   3.626  18.137  0.00  0.00    +0.000 C 
ATOM      5  C   UNL     1       2.790   2.724  19.042  0.00  0.00    +0.000 C 
ATOM      6  C   UNL     1       4.267   3.140  18.946  0.00  0.00    +0.000 C 
ATOM      7  H   UNL     1       1.560   5.581  17.728  0.00  0.00    +0.000 HD
ENDROOT
BRANCH   4   8
ATOM      8  O   UNL     1       2.173   3.328  16.773  0.00  0.00    +0.000 OA
ATOM      9  H   UNL     1       2.923   2.714  16.747  0.00  0.00    +0.000 HD
ENDBRANCH   4   8
BRANCH   5  10
ATOM     10  O   UNL     1       2.645   1.349  18.661  0.00  0.00    +0.000 OA
ATOM     11  H   UNL     1       1.880   1.316  18.053  0.00  0.00    +0.000 HD
ENDBRANCH   5  10
BRANCH   6  12
ATOM     12  O   UNL     1       5.084   2.371  19.839  0.00  0.00    +0.000 OA
ATOM     13  H   UNL     1       5.437   2.975  20.518  0.00  0.00    +0.000 HD
ENDBRANCH   6  12
BRANCH   1  14
ATOM     14  C   UNL     1       5.890   5.057  19.132  0.00  0.00    +0.000 C 
BRANCH  14  15
ATOM     15  O   UNL     1       6.594   4.119  18.329  0.00  0.00    +0.000 OA
ATOM     16  H   UNL     1       6.276   3.235  18.584  0.00  0.00    +0.000 HD
ENDBRANCH  14  15
ENDBRANCH   1  14
TORSDOF 5
ENDMDL
MODEL 5
REMARK VINA RESULT:      -5.1      3.003      4.561
REMARK  Name = 
REMARK  5 active torsions:
REMARK  status: ('A' for Active; 'I' for Inactive)
REMARK    1  A    between atoms: O_1  and  C_2
REMARK    2  A    between atoms: C_2  and  C_3
REMARK    3  A    between atoms: C_6  and  O_7
REMARK    4  A    between atoms: C_8  and  O_9
REMARK    5  A    between atoms: C_10  and  O_11
REMARK                            x       y       z     vdW  Elec       q    Type
REMARK                         _______ _______ _______ _____ _____    ______ ____
ROOT
ATOM      1  C   UNL     1       3.499   4.592  18.725  0.00  0.00    +0.000 C 
ATOM      2  C   UNL     1       3.445   3.554  17.591  0.00  0.00    +0.000 C 
ATOM      3  N   UNL     1       2.090   3.120  17.269  0.00  0.00    +0.000 NA
ATOM      4  C   UNL     1       1.284   2.711  18.399  0.00  0.00    +0.000 C 
ATOM      5  C   UNL     1       1.271   3.748  19.544  0.00  0.00    +0.000 C 
ATOM      6  C   UNL     1       2.710   4.112  19.945  0.00  0.00    +0.000 C 
ATOM      7  H   UNL     1       2.098   2.377  16.570  0.00  0.00    +0.000 HD
ENDROOT
BRANCH   4   8
ATOM      8  O   UNL     1       1.726   1.455  18.889  0.00  0.00    +0.000 OA
ATOM      9  H   UNL     1       1.334   1.335  19.767  0.00  0.00    +0.000 HD
ENDBRANCH   4   8
BRANCH   5  10
ATOM     10  O   UNL     1       0.565   3.230  20.679  0.00  0.00    +0.000 OA
ATOM     11  H   UNL     1       0.326   4.004  21.225  0.00  0.00    +0.000 HD
ENDBRANCH   5  10
BRANCH   6  12
ATOM     12  O   UNL     1       2.728   5.135  20.950  0.00  0.00    +0.000 OA
ATOM     13  H   UNL     1       2.713   4.700  21.821  0.00  0.00    +0.000 HD
ENDBRANCH   6  12
BRANCH   1  14
ATOM     14  C   UNL     1       4.949   4.910  19.111  0.00  0.00    +0.000 C 
BRANCH  14  15
ATOM     15  O   UNL     1       5.719   3.716  19.119  0.00  0.00    +0.000 OA
ATOM     16  H   UNL     1       5.404   3.171  18.377  0.00  0.00    +0.000 HD
ENDBRANCH  14  15
ENDBRANCH   1  14
TORSDOF 5
ENDMDL
MODEL 6
REMARK VINA RESULT:      -5.1      3.537      5.184
REMARK  Name = 
REMARK  5 active torsions:
REMARK  status: ('A' for Active; 'I' for Inactive)
REMARK    1  A    between atoms: O_1  and  C_2
REMARK    2  A    between atoms: C_2  and  C_3
REMARK    3  A    between atoms: C_6  and  O_7
REMARK    4  A    between atoms: C_8  and  O_9
REMARK    5  A    between atoms: C_10  and  O_11
REMARK                            x       y       z     vdW  Elec       q    Type
REMARK                         _______ _______ _______ _____ _____    ______ ____
ROOT
ATOM      1  C   UNL     1       1.758   3.419  19.745  0.00  0.00    +0.000 C 
ATOM      2  C   UNL     1       1.750   3.782  18.251  0.00  0.00    +0.000 C 
ATOM      3  N   UNL     1       2.343   2.754  17.403  0.00  0.00    +0.000 NA
ATOM      4  C   UNL     1       3.642   2.274  17.824  0.00  0.00    +0.000 C 
ATOM      5  C   UNL     1       3.682   1.852  19.309  0.00  0.00    +0.000 C 
ATOM      6  C   UNL     1       3.156   2.990  20.198  0.00  0.00    +0.000 C 
ATOM      7  H   UNL     1       2.392   3.061  16.431  0.00  0.00    +0.000 HD
ENDROOT
BRANCH   4   8
ATOM      8  O   UNL     1       4.633   3.258  17.574  0.00  0.00    +0.000 OA
ATOM      9  H   UNL     1       5.440   2.975  18.030  0.00  0.00    +0.000 HD
ENDBRANCH   4   8
BRANCH   5  10
ATOM     10  O   UNL     1       5.020   1.511  19.695  0.00  0.00    +0.000 OA
ATOM     11  H   UNL     1       5.242   2.095  20.447  0.00  0.00    +0.000 HD
ENDBRANCH   5  10
BRANCH   6  12
ATOM     12  O   UNL     1       3.104   2.596  21.575  0.00  0.00    +0.000 OA
ATOM     13  H   UNL     1       4.011   2.380  21.860  0.00  0.00    +0.000 HD
ENDBRANCH   6  12
BRANCH   1  14
ATOM     14  C   UNL     1       1.249   4.587  20.598  0.00  0.00    +0.000 C 
BRANCH  14  15
ATOM     15  O   UNL     1       2.349   5.318  21.122  0.00  0.00    +0.000 OA
ATOM     16  H   UNL     1       1.978   6.054  21.640  0.00  0.00    +0.000 HD
ENDBRANCH  14  15
ENDBRANCH   1  14
TORSDOF 5
ENDMDL
MODEL 7
REMARK VINA RESULT:      -4.9      2.044      3.955
REMARK  Name = 
REMARK  5 active torsions:
REMARK  status: ('A' for Active; 'I' for Inactive)
REMARK    1  A    between atoms: O_1  and  C_2
REMARK    2  A    between atoms: C_2  and  C_3
REMARK    3  A    between atoms: C_6  and  O_7
REMARK    4  A    between atoms: C_8  and  O_9
REMARK    5  A    between atoms: C_10  and  O_11
REMARK                            x       y       z     vdW  Elec       q    Type
REMARK                         _______ _______ _______ _____ _____    ______ ____
ROOT
ATOM      1  C   UNL     1       6.916   5.918  18.475  0.00  0.00    +0.000 C 
ATOM      2  C   UNL     1       7.204   6.979  17.400  0.00  0.00    +0.000 C 
ATOM      3  N   UNL     1       6.051   7.278  16.558  0.00  0.00    +0.000 NA
ATOM      4  C   UNL     1       5.376   6.127  15.997  0.00  0.00    +0.000 C 
ATOM      5  C   UNL     1       5.024   5.055  17.051  0.00  0.00    +0.000 C 
ATOM      6  C   UNL     1       6.276   4.672  17.857  0.00  0.00    +0.000 C 
ATOM      7  H   UNL     1       6.299   7.925  15.810  0.00  0.00    +0.000 HD
ENDROOT
BRANCH   4   8
ATOM      8  O   UNL     1       6.163   5.552  14.966  0.00  0.00    +0.000 OA
ATOM      9  H   UNL     1       6.184   6.186  14.234  0.00  0.00    +0.000 HD
ENDBRANCH   4   8
BRANCH   5  10
ATOM     10  O   UNL     1       4.477   3.891  16.417  0.00  0.00    +0.000 OA
ATOM     11  H   UNL     1       4.064   3.364  17.129  0.00  0.00    +0.000 HD
ENDBRANCH   5  10
BRANCH   6  12
ATOM     12  O   UNL     1       5.961   3.738  18.898  0.00  0.00    +0.000 OA
ATOM     13  H   UNL     1       5.339   3.082  18.536  0.00  0.00    +0.000 HD
ENDBRANCH   6  12
BRANCH   1  14
ATOM     14  C   UNL     1       8.192   5.546  19.238  0.00  0.00    +0.000 C 
BRANCH  14  15
ATOM     15  O   UNL     1       7.904   5.407  20.623  0.00  0.00    +0.000 OA
ATOM     16  H   UNL     1       7.278   4.666  20.707  0.00  0.00    +0.000 HD
ENDBRANCH  14  15
ENDBRANCH   1  14
TORSDOF 5
ENDMDL
MODEL 8
REMARK VINA RESULT:      -4.9      2.203      2.946
REMARK  Name = 
REMARK  5 active torsions:
REMARK  status: ('A' for Active; 'I' for Inactive)
REMARK    1  A    between atoms: O_1  and  C_2
REMARK    2  A    between atoms: C_2  and  C_3
REMARK    3  A    between atoms: C_6  and  O_7
REMARK    4  A    between atoms: C_8  and  O_9
REMARK    5  A    between atoms: C_10  and  O_11
REMARK                            x       y       z     vdW  Elec       q    Type
REMARK                         _______ _______ _______ _____ _____    ______ ____
ROOT
ATOM      1  C   UNL     1       3.951   4.764  18.094  0.00  0.00    +0.000 C 
ATOM      2  C   UNL     1       2.500   4.318  17.856  0.00  0.00    +0.000 C 
ATOM      3  N   UNL     1       1.958   3.507  18.941  0.00  0.00    +0.000 NA
ATOM      4  C   UNL     1       2.788   2.400  19.363  0.00  0.00    +0.000 C 
ATOM      5  C   UNL     1       4.246   2.813  19.660  0.00  0.00    +0.000 C 
ATOM      6  C   UNL     1       4.837   3.572  18.461  0.00  0.00    +0.000 C 
ATOM      7  H   UNL     1       1.024   3.165  18.713  0.00  0.00    +0.000 HD
ENDROOT
BRANCH   4   8
ATOM      8  O   UNL     1       2.767   1.370  18.387  0.00  0.00    +0.000 OA
ATOM      9  H   UNL     1       1.977   1.508  17.842  0.00  0.00    +0.000 HD
ENDBRANCH   4   8
BRANCH   5  10
ATOM     10  O   UNL     1       5.044   1.656  19.947  0.00  0.00    +0.000 OA
ATOM     11  H   UNL     1       4.653   0.924  19.430  0.00  0.00    +0.000 HD
ENDBRANCH   5  10
BRANCH   6  12
ATOM     12  O   UNL     1       6.164   4.039  18.742  0.00  0.00    +0.000 OA
ATOM     13  H   UNL     1       6.473   3.597  19.553  0.00  0.00    +0.000 HD
ENDBRANCH   6  12
BRANCH   1  14
ATOM     14  C   UNL     1       4.511   5.495  16.868  0.00  0.00    +0.000 C 
BRANCH  14  15
ATOM     15  O   UNL     1       5.139   4.565  15.996  0.00  0.00    +0.000 OA
ATOM     16  H   UNL     1       4.583   4.505  15.200  0.00  0.00    +0.000 HD
ENDBRANCH  14  15
ENDBRANCH   1  14
TORSDOF 5
ENDMDL
MODEL 9
REMARK VINA RESULT:      -4.9      3.053      5.240
REMARK  Name = 
REMARK  5 active torsions:
REMARK  status: ('A' for Active; 'I' for Inactive)
REMARK    1  A    between atoms: O_1  and  C_2
REMARK    2  A    between atoms: C_2  and  C_3
REMARK    3  A    between atoms: C_6  and  O_7
REMARK    4  A    between atoms: C_8  and  O_9
REMARK    5  A    between atoms: C_10  and  O_11
REMARK                            x       y       z     vdW  Elec       q    Type
REMARK                         _______ _______ _______ _____ _____    ______ ____
ROOT
ATOM      1  C   UNL     1       2.045   2.559  19.883  0.00  0.00    +0.000 C 
ATOM      2  C   UNL     1       1.243   3.415  18.889  0.00  0.00    +0.000 C 
ATOM      3  N   UNL     1       1.858   3.498  17.569  0.00  0.00    +0.000 NA
ATOM      4  C   UNL     1       3.261   3.851  17.558  0.00  0.00    +0.000 C 
ATOM      5  C   UNL     1       4.114   2.982  18.508  0.00  0.00    +0.000 C 
ATOM      6  C   UNL     1       3.512   2.995  19.922  0.00  0.00    +0.000 C 
ATOM      7  H   UNL     1       1.342   4.135  16.962  0.00  0.00    +0.000 HD
ENDROOT
BRANCH   4   8
ATOM      8  O   UNL     1       3.424   5.223  17.880  0.00  0.00    +0.000 OA
ATOM      9  H   UNL     1       4.085   5.274  18.587  0.00  0.00    +0.000 HD
ENDBRANCH   4   8
BRANCH   5  10
ATOM     10  O   UNL     1       5.464   3.463  18.548  0.00  0.00    +0.000 OA
ATOM     11  H   UNL     1       5.933   3.011  17.819  0.00  0.00    +0.000 HD
ENDBRANCH   5  10
BRANCH   6  12
ATOM     12  O   UNL     1       4.237   2.130  20.806  0.00  0.00    +0.000 OA
ATOM     13  H   UNL     1       4.865   1.612  20.271  0.00  0.00    +0.000 HD
ENDBRANCH   6  12
BRANCH   1  14
ATOM     14  C   UNL     1       1.427   2.618  21.285  0.00  0.00    +0.000 C 
BRANCH  14  15
ATOM     15  O   UNL     1       2.231   3.425  22.134  0.00  0.00    +0.000 OA
ATOM     16  H   UNL     1       2.350   2.930  22.964  0.00  0.00    +0.000 HD
ENDBRANCH  14  15
ENDBRANCH   1  14
TORSDOF 5
ENDMDL
