MODEL 1
REMARK VINA RESULT:      -6.9      0.000      0.000
REMARK  Name = 
REMARK  5 active torsions:
REMARK  status: ('A' for Active; 'I' for Inactive)
REMARK    1  A    between atoms: C_1  and  C_2
REMARK    2  A    between atoms: C_2  and  N_3
REMARK    3  A    between atoms: C_5  and  C_6
REMARK    4  A    between atoms: C_19  and  N_20
REMARK    5  A    between atoms: C_23  and  N_24
REMARK                            x       y       z     vdW  Elec       q    Type
REMARK                         _______ _______ _______ _____ _____    ______ ____
ROOT
ATOM      1  C   UNL     1      -3.757  11.451  17.773  0.00  0.00    +0.000 A 
ATOM      2  C   UNL     1      -2.676  11.749  18.592  0.00  0.00    +0.000 A 
ATOM      3  C   UNL     1      -1.586  10.907  18.402  0.00  0.00    +0.000 A 
ATOM      4  C   UNL     1      -1.444  10.133  17.255  0.00  0.00    +0.000 A 
ATOM      5  C   UNL     1      -2.484  10.113  16.326  0.00  0.00    +0.000 A 
ATOM      6  N   UNL     1      -3.670  10.694  16.646  0.00  0.00    +0.000 NA
ATOM      7  C   UNL     1      -0.177   9.541  17.391  0.00  0.00    +0.000 A 
ATOM      8  N   UNL     1       0.322   9.687  18.619  0.00  0.00    +0.000 NA
ATOM      9  N   UNL     1      -0.622  10.426  19.277  0.00  0.00    +0.000 N 
ATOM     10  C   UNL     1      -0.704  10.439  20.708  0.00  0.00    +0.000 A 
ATOM     11  C   UNL     1      -0.179   9.350  21.392  0.00  0.00    +0.000 A 
ATOM     12  C   UNL     1      -0.265   9.341  22.772  0.00  0.00    +0.000 A 
ATOM     13  C   UNL     1      -0.828  10.438  23.425  0.00  0.00    +0.000 A 
ATOM     14  C   UNL     1      -1.372  11.495  22.691  0.00  0.00    +0.000 A 
ATOM     15  N   UNL     1      -1.352  11.464  21.336  0.00  0.00    +0.000 NA
ENDROOT
BRANCH  14  16
ATOM     16  N   UNL     1      -1.922  12.601  23.308  0.00  0.00    +0.000 N 
ATOM     17  C   UNL     1      -1.159  13.827  23.394  0.00  0.00    +0.000 C 
ATOM     18  C   UNL     1      -1.848  14.902  22.538  0.00  0.00    +0.000 C 
ATOM     19  C   UNL     1      -3.310  15.062  22.974  0.00  0.00    +0.000 C 
ATOM     20  C   UNL     1      -4.051  13.718  22.929  0.00  0.00    +0.000 C 
ATOM     21  C   UNL     1      -3.307  12.675  23.758  0.00  0.00    +0.000 C 
BRANCH  19  22
ATOM     22  N   UNL     1      -4.009  16.042  22.139  0.00  0.00    +0.000 NA
ATOM     23  H   UNL     1      -4.914  15.668  21.855  0.00  0.00    +0.000 HD
ATOM     24  H   UNL     1      -3.488  16.186  21.272  0.00  0.00    +0.000 HD
ENDBRANCH  19  22
ENDBRANCH  14  16
BRANCH   1  27
ATOM     25  N   UNL     1      -6.759  12.340  19.561  0.00  0.00    +0.000 N 
ATOM     26  C   UNL     1      -5.430  12.036  19.564  0.00  0.00    +0.000 A 
ATOM     27  C   UNL     1      -5.090  11.770  18.255  0.00  0.00    +0.000 A 
ATOM     28  C   UNL     1      -6.279  12.057  17.540  0.00  0.00    +0.000 A 
ATOM     29  N   UNL     1      -7.302  12.383  18.331  0.00  0.00    +0.000 NA
BRANCH  25  31
ATOM     30  C   UNL     1      -7.890  11.196  21.392  0.00  0.00    +0.000 C 
ATOM     31  C   UNL     1      -7.602  12.527  20.723  0.00  0.00    +0.000 C 
ENDBRANCH  25  31
ENDBRANCH   1  27
TORSDOF 4
ENDMDL
MODEL 2
REMARK VINA RESULT:      -6.8      1.721      7.084
REMARK  Name = 
REMARK  5 active torsions:
REMARK  status: ('A' for Active; 'I' for Inactive)
REMARK    1  A    between atoms: C_1  and  C_2
REMARK    2  A    between atoms: C_2  and  N_3
REMARK    3  A    between atoms: C_5  and  C_6
REMARK    4  A    between atoms: C_19  and  N_20
REMARK    5  A    between atoms: C_23  and  N_24
REMARK                            x       y       z     vdW  Elec       q    Type
REMARK                         _______ _______ _______ _____ _____    ______ ____
ROOT
ATOM      1  C   UNL     1      -1.645  13.197  21.910  0.00  0.00    +0.000 A 
ATOM      2  C   UNL     1      -2.938  13.620  21.636  0.00  0.00    +0.000 A 
ATOM      3  C   UNL     1      -3.562  14.234  22.716  0.00  0.00    +0.000 A 
ATOM      4  C   UNL     1      -2.843  14.733  23.797  0.00  0.00    +0.000 A 
ATOM      5  C   UNL     1      -1.469  14.502  23.853  0.00  0.00    +0.000 A 
ATOM      6  N   UNL     1      -0.904  13.649  22.957  0.00  0.00    +0.000 NA
ATOM      7  C   UNL     1      -3.809  15.375  24.589  0.00  0.00    +0.000 A 
ATOM      8  N   UNL     1      -5.054  15.080  24.212  0.00  0.00    +0.000 NA
ATOM      9  N   UNL     1      -4.888  14.264  23.126  0.00  0.00    +0.000 N 
ATOM     10  C   UNL     1      -5.925  13.377  22.686  0.00  0.00    +0.000 A 
ATOM     11  C   UNL     1      -6.873  12.983  23.623  0.00  0.00    +0.000 A 
ATOM     12  C   UNL     1      -7.870  12.115  23.216  0.00  0.00    +0.000 A 
ATOM     13  C   UNL     1      -7.915  11.708  21.883  0.00  0.00    +0.000 A 
ATOM     14  C   UNL     1      -6.921  12.106  20.987  0.00  0.00    +0.000 A 
ATOM     15  N   UNL     1      -5.903  12.898  21.408  0.00  0.00    +0.000 NA
ENDROOT
BRANCH  14  16
ATOM     16  N   UNL     1      -6.947  11.734  19.658  0.00  0.00    +0.000 N 
ATOM     17  C   UNL     1      -7.328  12.698  18.650  0.00  0.00    +0.000 C 
ATOM     18  C   UNL     1      -6.110  12.996  17.761  0.00  0.00    +0.000 C 
ATOM     19  C   UNL     1      -5.557  11.689  17.176  0.00  0.00    +0.000 C 
ATOM     20  C   UNL     1      -5.236  10.679  18.286  0.00  0.00    +0.000 C 
ATOM     21  C   UNL     1      -6.461  10.450  19.166  0.00  0.00    +0.000 C 
BRANCH  19  22
ATOM     22  N   UNL     1      -4.361  11.936  16.366  0.00  0.00    +0.000 NA
ATOM     23  H   UNL     1      -4.043  12.894  16.507  0.00  0.00    +0.000 HD
ATOM     24  H   UNL     1      -4.598  11.869  15.376  0.00  0.00    +0.000 HD
ENDBRANCH  19  22
ENDBRANCH  14  16
BRANCH   1  27
ATOM     25  N   UNL     1      -0.176  10.130  20.710  0.00  0.00    +0.000 N 
ATOM     26  C   UNL     1      -0.407  11.010  21.726  0.00  0.00    +0.000 A 
ATOM     27  C   UNL     1      -1.129  12.051  21.181  0.00  0.00    +0.000 A 
ATOM     28  C   UNL     1      -1.366  11.626  19.850  0.00  0.00    +0.000 A 
ATOM     29  N   UNL     1      -0.771  10.471  19.553  0.00  0.00    +0.000 NA
BRANCH  25  31
ATOM     30  C   UNL     1       1.364   8.861  22.110  0.00  0.00    +0.000 C 
ATOM     31  C   UNL     1       0.683   8.966  20.758  0.00  0.00    +0.000 C 
ENDBRANCH  25  31
ENDBRANCH   1  27
TORSDOF 4
ENDMDL
MODEL 3
REMARK VINA RESULT:      -6.8      2.366      5.555
REMARK  Name = 
REMARK  5 active torsions:
REMARK  status: ('A' for Active; 'I' for Inactive)
REMARK    1  A    between atoms: C_1  and  C_2
REMARK    2  A    between atoms: C_2  and  N_3
REMARK    3  A    between atoms: C_5  and  C_6
REMARK    4  A    between atoms: C_19  and  N_20
REMARK    5  A    between atoms: C_23  and  N_24
REMARK                            x       y       z     vdW  Elec       q    Type
REMARK                         _______ _______ _______ _____ _____    ______ ____
ROOT
ATOM      1  C   UNL     1      -5.393  12.890  21.813  0.00  0.00    +0.000 A 
ATOM      2  C   UNL     1      -4.779  13.012  20.575  0.00  0.00    +0.000 A 
ATOM      3  C   UNL     1      -5.281  12.136  19.617  0.00  0.00    +0.000 A 
ATOM      4  C   UNL     1      -6.515  11.512  19.764  0.00  0.00    +0.000 A 
ATOM      5  C   UNL     1      -7.212  11.677  20.960  0.00  0.00    +0.000 A 
ATOM      6  N   UNL     1      -6.595  12.282  22.010  0.00  0.00    +0.000 NA
ATOM      7  C   UNL     1      -6.706  10.831  18.550  0.00  0.00    +0.000 A 
ATOM      8  N   UNL     1      -5.594  10.785  17.814  0.00  0.00    +0.000 NA
ATOM      9  N   UNL     1      -4.678  11.488  18.548  0.00  0.00    +0.000 N 
ATOM     10  C   UNL     1      -3.269  11.318  18.353  0.00  0.00    +0.000 A 
ATOM     11  C   UNL     1      -2.836  10.119  17.802  0.00  0.00    +0.000 A 
ATOM     12  C   UNL     1      -1.477   9.935  17.622  0.00  0.00    +0.000 A 
ATOM     13  C   UNL     1      -0.602  10.969  17.954  0.00  0.00    +0.000 A 
ATOM     14  C   UNL     1      -1.083  12.144  18.536  0.00  0.00    +0.000 A 
ATOM     15  N   UNL     1      -2.409  12.290  18.778  0.00  0.00    +0.000 NA
ENDROOT
BRANCH  14  16
ATOM     16  N   UNL     1      -0.244  13.191  18.860  0.00  0.00    +0.000 N 
ATOM     17  C   UNL     1      -0.794  14.398  19.438  0.00  0.00    +0.000 C 
ATOM     18  C   UNL     1      -0.285  14.535  20.882  0.00  0.00    +0.000 C 
ATOM     19  C   UNL     1       1.249  14.493  20.903  0.00  0.00    +0.000 C 
ATOM     20  C   UNL     1       1.777  13.226  20.216  0.00  0.00    +0.000 C 
ATOM     21  C   UNL     1       1.211  13.114  18.804  0.00  0.00    +0.000 C 
BRANCH  19  22
ATOM     22  N   UNL     1       1.763  14.567  22.273  0.00  0.00    +0.000 NA
ATOM     23  H   UNL     1       1.817  15.541  22.568  0.00  0.00    +0.000 HD
ATOM     24  H   UNL     1       2.722  14.219  22.299  0.00  0.00    +0.000 HD
ENDBRANCH  19  22
ENDBRANCH  14  16
BRANCH   1  27
ATOM     25  N   UNL     1      -3.531  14.354  24.531  0.00  0.00    +0.000 N 
ATOM     26  C   UNL     1      -4.146  14.477  23.320  0.00  0.00    +0.000 A 
ATOM     27  C   UNL     1      -4.620  13.224  22.998  0.00  0.00    +0.000 A 
ATOM     28  C   UNL     1      -4.326  12.453  24.149  0.00  0.00    +0.000 A 
ATOM     29  N   UNL     1      -3.645  13.129  25.075  0.00  0.00    +0.000 NA
BRANCH  25  31
ATOM     30  C   UNL     1      -1.272  15.218  24.836  0.00  0.00    +0.000 C 
ATOM     31  C   UNL     1      -2.737  15.363  25.200  0.00  0.00    +0.000 C 
ENDBRANCH  25  31
ENDBRANCH   1  27
TORSDOF 4
ENDMDL
MODEL 4
REMARK VINA RESULT:      -6.7      3.115      5.597
REMARK  Name = 
REMARK  5 active torsions:
REMARK  status: ('A' for Active; 'I' for Inactive)
REMARK    1  A    between atoms: C_1  and  C_2
REMARK    2  A    between atoms: C_2  and  N_3
REMARK    3  A    between atoms: C_5  and  C_6
REMARK    4  A    between atoms: C_19  and  N_20
REMARK    5  A    between atoms: C_23  and  N_24
REMARK                            x       y       z     vdW  Elec       q    Type
REMARK                         _______ _______ _______ _____ _____    ______ ____
ROOT
ATOM      1  C   UNL     1       0.869  14.322  19.001  0.00  0.00    +0.000 A 
ATOM      2  C   UNL     1       0.027  13.282  19.369  0.00  0.00    +0.000 A 
ATOM      3  C   UNL     1       0.465  12.034  18.938  0.00  0.00    +0.000 A 
ATOM      4  C   UNL     1       1.781  11.808  18.550  0.00  0.00    +0.000 A 
ATOM      5  C   UNL     1       2.655  12.892  18.479  0.00  0.00    +0.000 A 
ATOM      6  N   UNL     1       2.160  14.152  18.608  0.00  0.00    +0.000 NA
ATOM      7  C   UNL     1       1.842  10.424  18.317  0.00  0.00    +0.000 A 
ATOM      8  N   UNL     1       0.632   9.862  18.280  0.00  0.00    +0.000 NA
ATOM      9  N   UNL     1      -0.224  10.897  18.537  0.00  0.00    +0.000 N 
ATOM     10  C   UNL     1      -1.607  10.840  18.164  0.00  0.00    +0.000 A 
ATOM     11  C   UNL     1      -1.957   9.985  17.127  0.00  0.00    +0.000 A 
ATOM     12  C   UNL     1      -3.286   9.931  16.746  0.00  0.00    +0.000 A 
ATOM     13  C   UNL     1      -4.224  10.693  17.441  0.00  0.00    +0.000 A 
ATOM     14  C   UNL     1      -3.817  11.562  18.456  0.00  0.00    +0.000 A 
ATOM     15  N   UNL     1      -2.504  11.667  18.777  0.00  0.00    +0.000 NA
ENDROOT
BRANCH  14  16
ATOM     16  N   UNL     1      -4.724  12.318  19.173  0.00  0.00    +0.000 N 
ATOM     17  C   UNL     1      -6.142  12.093  18.997  0.00  0.00    +0.000 C 
ATOM     18  C   UNL     1      -6.723  11.531  20.305  0.00  0.00    +0.000 C 
ATOM     19  C   UNL     1      -6.394  12.473  21.472  0.00  0.00    +0.000 C 
ATOM     20  C   UNL     1      -4.883  12.730  21.566  0.00  0.00    +0.000 C 
ATOM     21  C   UNL     1      -4.348  13.245  20.233  0.00  0.00    +0.000 C 
BRANCH  19  22
ATOM     22  N   UNL     1      -6.888  11.936  22.742  0.00  0.00    +0.000 NA
ATOM     23  H   UNL     1      -7.364  12.672  23.263  0.00  0.00    +0.000 HD
ATOM     24  H   UNL     1      -6.098  11.655  23.325  0.00  0.00    +0.000 HD
ENDBRANCH  19  22
ENDBRANCH  14  16
BRANCH   1  27
ATOM     25  N   UNL     1      -1.090  17.347  18.880  0.00  0.00    +0.000 N 
ATOM     26  C   UNL     1      -0.975  16.027  19.204  0.00  0.00    +0.000 A 
ATOM     27  C   UNL     1       0.287  15.639  18.805  0.00  0.00    +0.000 A 
ATOM     28  C   UNL     1       0.877  16.846  18.356  0.00  0.00    +0.000 A 
ATOM     29  N   UNL     1       0.038  17.882  18.378  0.00  0.00    +0.000 NA
BRANCH  25  31
ATOM     30  C   UNL     1      -3.296  17.522  19.901  0.00  0.00    +0.000 C 
ATOM     31  C   UNL     1      -2.293  18.149  18.951  0.00  0.00    +0.000 C 
ENDBRANCH  25  31
ENDBRANCH   1  27
TORSDOF 4
ENDMDL
MODEL 5
REMARK VINA RESULT:      -6.7      1.642      6.742
REMARK  Name = 
REMARK  5 active torsions:
REMARK  status: ('A' for Active; 'I' for Inactive)
REMARK    1  A    between atoms: C_1  and  C_2
REMARK    2  A    between atoms: C_2  and  N_3
REMARK    3  A    between atoms: C_5  and  C_6
REMARK    4  A    between atoms: C_19  and  N_20
REMARK    5  A    between atoms: C_23  and  N_24
REMARK                            x       y       z     vdW  Elec       q    Type
REMARK                         _______ _______ _______ _____ _____    ______ ____
ROOT
ATOM      1  C   UNL     1      -1.644  13.242  21.369  0.00  0.00    +0.000 A 
ATOM      2  C   UNL     1      -2.921  13.784  21.383  0.00  0.00    +0.000 A 
ATOM      3  C   UNL     1      -3.244  14.417  22.578  0.00  0.00    +0.000 A 
ATOM      4  C   UNL     1      -2.270  14.817  23.486  0.00  0.00    +0.000 A 
ATOM      5  C   UNL     1      -0.942  14.465  23.244  0.00  0.00    +0.000 A 
ATOM      6  N   UNL     1      -0.660  13.594  22.240  0.00  0.00    +0.000 NA
ATOM      7  C   UNL     1      -2.983  15.517  24.474  0.00  0.00    +0.000 A 
ATOM      8  N   UNL     1      -4.301  15.344  24.367  0.00  0.00    +0.000 NA
ATOM      9  N   UNL     1      -4.445  14.550  23.262  0.00  0.00    +0.000 N 
ATOM     10  C   UNL     1      -5.627  13.771  23.044  0.00  0.00    +0.000 A 
ATOM     11  C   UNL     1      -6.388  13.433  24.156  0.00  0.00    +0.000 A 
ATOM     12  C   UNL     1      -7.525  12.668  23.963  0.00  0.00    +0.000 A 
ATOM     13  C   UNL     1      -7.888  12.308  22.665  0.00  0.00    +0.000 A 
ATOM     14  C   UNL     1      -7.073  12.646  21.582  0.00  0.00    +0.000 A 
ATOM     15  N   UNL     1      -5.921  13.332  21.785  0.00  0.00    +0.000 NA
ENDROOT
BRANCH  14  16
ATOM     16  N   UNL     1      -7.414  12.317  20.286  0.00  0.00    +0.000 N 
ATOM     17  C   UNL     1      -7.701  13.367  19.332  0.00  0.00    +0.000 C 
ATOM     18  C   UNL     1      -6.613  13.363  18.246  0.00  0.00    +0.000 C 
ATOM     19  C   UNL     1      -6.515  11.970  17.608  0.00  0.00    +0.000 C 
ATOM     20  C   UNL     1      -6.280  10.890  18.674  0.00  0.00    +0.000 C 
ATOM     21  C   UNL     1      -7.359  10.963  19.750  0.00  0.00    +0.000 C 
BRANCH  19  22
ATOM     22  N   UNL     1      -5.448  11.920  16.606  0.00  0.00    +0.000 NA
ATOM     23  H   UNL     1      -5.224  12.865  16.295  0.00  0.00    +0.000 HD
ATOM     24  H   UNL     1      -5.781  11.431  15.774  0.00  0.00    +0.000 HD
ENDBRANCH  19  22
ENDBRANCH  14  16
BRANCH   1  27
ATOM     25  N   UNL     1      -1.285  10.739  18.798  0.00  0.00    +0.000 N 
ATOM     26  C   UNL     1      -1.744  11.958  19.204  0.00  0.00    +0.000 A 
ATOM     27  C   UNL     1      -1.402  12.077  20.534  0.00  0.00    +0.000 A 
ATOM     28  C   UNL     1      -0.639  10.910  20.785  0.00  0.00    +0.000 A 
ATOM     29  N   UNL     1      -0.584  10.083  19.741  0.00  0.00    +0.000 NA
BRANCH  25  31
ATOM     30  C   UNL     1      -2.998   9.639  17.457  0.00  0.00    +0.000 C 
ATOM     31  C   UNL     1      -1.553  10.097  17.529  0.00  0.00    +0.000 C 
ENDBRANCH  25  31
ENDBRANCH   1  27
TORSDOF 4
ENDMDL
MODEL 6
REMARK VINA RESULT:      -6.7      1.749      5.619
REMARK  Name = 
REMARK  5 active torsions:
REMARK  status: ('A' for Active; 'I' for Inactive)
REMARK    1  A    between atoms: C_1  and  C_2
REMARK    2  A    between atoms: C_2  and  N_3
REMARK    3  A    between atoms: C_5  and  C_6
REMARK    4  A    between atoms: C_19  and  N_20
REMARK    5  A    between atoms: C_23  and  N_24
REMARK                            x       y       z     vdW  Elec       q    Type
REMARK                         _______ _______ _______ _____ _____    ______ ____
ROOT
ATOM      1  C   UNL     1      -0.766  13.136  21.470  0.00  0.00    +0.000 A 
ATOM      2  C   UNL     1      -1.538  12.144  20.881  0.00  0.00    +0.000 A 
ATOM      3  C   UNL     1      -0.822  11.321  20.018  0.00  0.00    +0.000 A 
ATOM      4  C   UNL     1       0.565  11.240  20.059  0.00  0.00    +0.000 A 
ATOM      5  C   UNL     1       1.263  12.099  20.908  0.00  0.00    +0.000 A 
ATOM      6  N   UNL     1       0.593  13.106  21.528  0.00  0.00    +0.000 NA
ATOM      7  C   UNL     1       0.881  10.225  19.140  0.00  0.00    +0.000 A 
ATOM      8  N   UNL     1      -0.162   9.886  18.380  0.00  0.00    +0.000 NA
ATOM      9  N   UNL     1      -1.183  10.668  18.848  0.00  0.00    +0.000 N 
ATOM     10  C   UNL     1      -2.341  10.947  18.052  0.00  0.00    +0.000 A 
ATOM     11  C   UNL     1      -2.210  10.854  16.672  0.00  0.00    +0.000 A 
ATOM     12  C   UNL     1      -3.316  11.136  15.890  0.00  0.00    +0.000 A 
ATOM     13  C   UNL     1      -4.524  11.454  16.511  0.00  0.00    +0.000 A 
ATOM     14  C   UNL     1      -4.597  11.566  17.901  0.00  0.00    +0.000 A 
ATOM     15  N   UNL     1      -3.492  11.361  18.660  0.00  0.00    +0.000 NA
ENDROOT
BRANCH  14  16
ATOM     16  N   UNL     1      -5.781  11.863  18.545  0.00  0.00    +0.000 N 
ATOM     17  C   UNL     1      -6.881  10.925  18.493  0.00  0.00    +0.000 C 
ATOM     18  C   UNL     1      -7.129  10.370  19.905  0.00  0.00    +0.000 C 
ATOM     19  C   UNL     1      -7.360  11.526  20.889  0.00  0.00    +0.000 C 
ATOM     20  C   UNL     1      -6.195  12.525  20.851  0.00  0.00    +0.000 C 
ATOM     21  C   UNL     1      -5.961  13.013  19.424  0.00  0.00    +0.000 C 
BRANCH  19  22
ATOM     22  N   UNL     1      -7.545  11.030  22.255  0.00  0.00    +0.000 NA
ATOM     23  H   UNL     1      -8.525  10.788  22.402  0.00  0.00    +0.000 HD
ATOM     24  H   UNL     1      -7.346  11.778  22.921  0.00  0.00    +0.000 HD
ENDBRANCH  19  22
ENDBRANCH  14  16
BRANCH   1  27
ATOM     25  N   UNL     1      -2.823  15.820  22.719  0.00  0.00    +0.000 N 
ATOM     26  C   UNL     1      -2.612  14.487  22.525  0.00  0.00    +0.000 A 
ATOM     27  C   UNL     1      -1.417  14.379  21.846  0.00  0.00    +0.000 A 
ATOM     28  C   UNL     1      -0.948  15.715  21.788  0.00  0.00    +0.000 A 
ATOM     29  N   UNL     1      -1.808  16.597  22.298  0.00  0.00    +0.000 NA
BRANCH  25  31
ATOM     30  C   UNL     1      -4.107  16.260  24.744  0.00  0.00    +0.000 C 
ATOM     31  C   UNL     1      -4.026  16.435  23.240  0.00  0.00    +0.000 C 
ENDBRANCH  25  31
ENDBRANCH   1  27
TORSDOF 4
ENDMDL
MODEL 7
REMARK VINA RESULT:      -6.7      3.093      5.989
REMARK  Name = 
REMARK  5 active torsions:
REMARK  status: ('A' for Active; 'I' for Inactive)
REMARK    1  A    between atoms: C_1  and  C_2
REMARK    2  A    between atoms: C_2  and  N_3
REMARK    3  A    between atoms: C_5  and  C_6
REMARK    4  A    between atoms: C_19  and  N_20
REMARK    5  A    between atoms: C_23  and  N_24
REMARK                            x       y       z     vdW  Elec       q    Type
REMARK                         _______ _______ _______ _____ _____    ______ ____
ROOT
ATOM      1  C   UNL     1       0.709  13.846  19.445  0.00  0.00    +0.000 A 
ATOM      2  C   UNL     1      -0.230  12.834  19.581  0.00  0.00    +0.000 A 
ATOM      3  C   UNL     1       0.144  11.642  18.968  0.00  0.00    +0.000 A 
ATOM      4  C   UNL     1       1.464  11.374  18.623  0.00  0.00    +0.000 A 
ATOM      5  C   UNL     1       2.418  12.377  18.789  0.00  0.00    +0.000 A 
ATOM      6  N   UNL     1       2.009  13.635  19.103  0.00  0.00    +0.000 NA
ATOM      7  C   UNL     1       1.439  10.047  18.161  0.00  0.00    +0.000 A 
ATOM      8  N   UNL     1       0.197   9.604  17.959  0.00  0.00    +0.000 NA
ATOM      9  N   UNL     1      -0.597  10.650  18.341  0.00  0.00    +0.000 N 
ATOM     10  C   UNL     1      -1.950  10.773  17.886  0.00  0.00    +0.000 A 
ATOM     11  C   UNL     1      -2.289  10.135  16.699  0.00  0.00    +0.000 A 
ATOM     12  C   UNL     1      -3.588  10.257  16.239  0.00  0.00    +0.000 A 
ATOM     13  C   UNL     1      -4.514  10.969  17.000  0.00  0.00    +0.000 A 
ATOM     14  C   UNL     1      -4.117  11.620  18.170  0.00  0.00    +0.000 A 
ATOM     15  N   UNL     1      -2.825  11.559  18.578  0.00  0.00    +0.000 NA
ENDROOT
BRANCH  14  16
ATOM     16  N   UNL     1      -5.013  12.320  18.953  0.00  0.00    +0.000 N 
ATOM     17  C   UNL     1      -6.434  12.108  18.780  0.00  0.00    +0.000 C 
ATOM     18  C   UNL     1      -6.998  11.451  20.050  0.00  0.00    +0.000 C 
ATOM     19  C   UNL     1      -6.653  12.303  21.279  0.00  0.00    +0.000 C 
ATOM     20  C   UNL     1      -5.142  12.553  21.373  0.00  0.00    +0.000 C 
ATOM     21  C   UNL     1      -4.624  13.166  20.075  0.00  0.00    +0.000 C 
BRANCH  19  22
ATOM     22  N   UNL     1      -7.131  11.673  22.512  0.00  0.00    +0.000 NA
ATOM     23  H   UNL     1      -8.137  11.812  22.601  0.00  0.00    +0.000 HD
ATOM     24  H   UNL     1      -6.718  12.143  23.319  0.00  0.00    +0.000 HD
ENDBRANCH  19  22
ENDBRANCH  14  16
BRANCH   1  27
ATOM     25  N   UNL     1      -0.112  17.309  18.865  0.00  0.00    +0.000 N 
ATOM     26  C   UNL     1       0.595  16.191  18.531  0.00  0.00    +0.000 A 
ATOM     27  C   UNL     1       0.241  15.222  19.445  0.00  0.00    +0.000 A 
ATOM     28  C   UNL     1      -0.773  15.846  20.213  0.00  0.00    +0.000 A 
ATOM     29  N   UNL     1      -0.976  17.120  19.879  0.00  0.00    +0.000 NA
BRANCH  25  31
ATOM     30  C   UNL     1      -0.116  18.589  16.790  0.00  0.00    +0.000 C 
ATOM     31  C   UNL     1       0.050  18.631  18.298  0.00  0.00    +0.000 C 
ENDBRANCH  25  31
ENDBRANCH   1  27
TORSDOF 4
ENDMDL
MODEL 8
REMARK VINA RESULT:      -6.7      2.137      5.789
REMARK  Name = 
REMARK  5 active torsions:
REMARK  status: ('A' for Active; 'I' for Inactive)
REMARK    1  A    between atoms: C_1  and  C_2
REMARK    2  A    between atoms: C_2  and  N_3
REMARK    3  A    between atoms: C_5  and  C_6
REMARK    4  A    between atoms: C_19  and  N_20
REMARK    5  A    between atoms: C_23  and  N_24
REMARK                            x       y       z     vdW  Elec       q    Type
REMARK                         _______ _______ _______ _____ _____    ______ ____
ROOT
ATOM      1  C   UNL     1      -0.604  12.891  19.437  0.00  0.00    +0.000 A 
ATOM      2  C   UNL     1      -1.624  13.593  20.061  0.00  0.00    +0.000 A 
ATOM      3  C   UNL     1      -1.224  14.236  21.228  0.00  0.00    +0.000 A 
ATOM      4  C   UNL     1       0.115  14.485  21.510  0.00  0.00    +0.000 A 
ATOM      5  C   UNL     1       1.088  13.970  20.654  0.00  0.00    +0.000 A 
ATOM      6  N   UNL     1       0.719  13.093  19.683  0.00  0.00    +0.000 NA
ATOM      7  C   UNL     1       0.084  15.249  22.689  0.00  0.00    +0.000 A 
ATOM      8  N   UNL     1      -1.120  15.250  23.262  0.00  0.00    +0.000 NA
ATOM      9  N   UNL     1      -1.894  14.508  22.413  0.00  0.00    +0.000 N 
ATOM     10  C   UNL     1      -3.113  13.894  22.849  0.00  0.00    +0.000 A 
ATOM     11  C   UNL     1      -3.251  13.631  24.207  0.00  0.00    +0.000 A 
ATOM     12  C   UNL     1      -4.416  13.025  24.641  0.00  0.00    +0.000 A 
ATOM     13  C   UNL     1      -5.421  12.745  23.715  0.00  0.00    +0.000 A 
ATOM     14  C   UNL     1      -5.223  12.999  22.357  0.00  0.00    +0.000 A 
ATOM     15  N   UNL     1      -4.049  13.525  21.926  0.00  0.00    +0.000 NA
ENDROOT
BRANCH  14  16
ATOM     16  N   UNL     1      -6.205  12.747  21.419  0.00  0.00    +0.000 N 
ATOM     17  C   UNL     1      -5.900  12.873  20.010  0.00  0.00    +0.000 C 
ATOM     18  C   UNL     1      -5.980  11.483  19.358  0.00  0.00    +0.000 C 
ATOM     19  C   UNL     1      -7.353  10.854  19.632  0.00  0.00    +0.000 C 
ATOM     20  C   UNL     1      -7.652  10.811  21.137  0.00  0.00    +0.000 C 
ATOM     21  C   UNL     1      -7.518  12.204  21.745  0.00  0.00    +0.000 C 
BRANCH  19  22
ATOM     22  N   UNL     1      -7.440   9.505  19.068  0.00  0.00    +0.000 NA
ATOM     23  H   UNL     1      -8.120   9.493  18.308  0.00  0.00    +0.000 HD
ATOM     24  H   UNL     1      -7.807   8.863  19.772  0.00  0.00    +0.000 HD
ENDBRANCH  19  22
ENDBRANCH  14  16
BRANCH   1  27
ATOM     25  N   UNL     1      -1.954  10.400  17.207  0.00  0.00    +0.000 N 
ATOM     26  C   UNL     1      -2.026  11.636  17.779  0.00  0.00    +0.000 A 
ATOM     27  C   UNL     1      -0.958  11.724  18.645  0.00  0.00    +0.000 A 
ATOM     28  C   UNL     1      -0.250  10.518  18.422  0.00  0.00    +0.000 A 
ATOM     29  N   UNL     1      -0.863   9.700  17.566  0.00  0.00    +0.000 NA
BRANCH  25  31
ATOM     30  C   UNL     1      -2.901  10.378  14.961  0.00  0.00    +0.000 C 
ATOM     31  C   UNL     1      -2.952   9.785  16.357  0.00  0.00    +0.000 C 
ENDBRANCH  25  31
ENDBRANCH   1  27
TORSDOF 4
ENDMDL
MODEL 9
REMARK VINA RESULT:      -6.7      1.932      5.965
REMARK  Name = 
REMARK  5 active torsions:
REMARK  status: ('A' for Active; 'I' for Inactive)
REMARK    1  A    between atoms: C_1  and  C_2
REMARK    2  A    between atoms: C_2  and  N_3
REMARK    3  A    between atoms: C_5  and  C_6
REMARK    4  A    between atoms: C_19  and  N_20
REMARK    5  A    between atoms: C_23  and  N_24
REMARK                            x       y       z     vdW  Elec       q    Type
REMARK                         _______ _______ _______ _____ _____    ______ ____
ROOT
ATOM      1  C   UNL     1      -1.467  12.557  19.959  0.00  0.00    +0.000 A 
ATOM      2  C   UNL     1      -2.514  13.301  20.485  0.00  0.00    +0.000 A 
ATOM      3  C   UNL     1      -2.319  13.674  21.811  0.00  0.00    +0.000 A 
ATOM      4  C   UNL     1      -1.061  13.661  22.403  0.00  0.00    +0.000 A 
ATOM      5  C   UNL     1       0.015  13.145  21.681  0.00  0.00    +0.000 A 
ATOM      6  N   UNL     1      -0.222  12.506  20.505  0.00  0.00    +0.000 NA
ATOM      7  C   UNL     1      -1.271  14.219  23.675  0.00  0.00    +0.000 A 
ATOM      8  N   UNL     1      -2.566  14.316  23.980  0.00  0.00    +0.000 NA
ATOM      9  N   UNL     1      -3.207  13.852  22.864  0.00  0.00    +0.000 N 
ATOM     10  C   UNL     1      -4.557  13.374  22.915  0.00  0.00    +0.000 A 
ATOM     11  C   UNL     1      -5.031  12.920  24.140  0.00  0.00    +0.000 A 
ATOM     12  C   UNL     1      -6.328  12.442  24.201  0.00  0.00    +0.000 A 
ATOM     13  C   UNL     1      -7.120  12.477  23.054  0.00  0.00    +0.000 A 
ATOM     14  C   UNL     1      -6.587  12.913  21.839  0.00  0.00    +0.000 A 
ATOM     15  N   UNL     1      -5.293  13.312  21.767  0.00  0.00    +0.000 NA
ENDROOT
BRANCH  14  16
ATOM     16  N   UNL     1      -7.350  12.975  20.690  0.00  0.00    +0.000 N 
ATOM     17  C   UNL     1      -7.863  14.249  20.237  0.00  0.00    +0.000 C 
ATOM     18  C   UNL     1      -7.189  14.612  18.904  0.00  0.00    +0.000 C 
ATOM     19  C   UNL     1      -7.391  13.478  17.890  0.00  0.00    +0.000 C 
ATOM     20  C   UNL     1      -6.893  12.138  18.451  0.00  0.00    +0.000 C 
ATOM     21  C   UNL     1      -7.558  11.845  19.792  0.00  0.00    +0.000 C 
BRANCH  19  22
ATOM     22  N   UNL     1      -6.713  13.770  16.625  0.00  0.00    +0.000 NA
ATOM     23  H   UNL     1      -6.718  12.941  16.032  0.00  0.00    +0.000 HD
ATOM     24  H   UNL     1      -5.728  13.972  16.803  0.00  0.00    +0.000 HD
ENDBRANCH  19  22
ENDBRANCH  14  16
BRANCH   1  27
ATOM     25  N   UNL     1      -2.661  10.653  17.140  0.00  0.00    +0.000 N 
ATOM     26  C   UNL     1      -2.774  11.728  17.971  0.00  0.00    +0.000 A 
ATOM     27  C   UNL     1      -1.765  11.605  18.902  0.00  0.00    +0.000 A 
ATOM     28  C   UNL     1      -1.041  10.472  18.457  0.00  0.00    +0.000 A 
ATOM     29  N   UNL     1      -1.593   9.877  17.400  0.00  0.00    +0.000 NA
BRANCH  25  31
ATOM     30  C   UNL     1      -2.922  10.241  14.751  0.00  0.00    +0.000 C 
ATOM     31  C   UNL     1      -3.598  10.260  16.109  0.00  0.00    +0.000 C 
ENDBRANCH  25  31
ENDBRANCH   1  27
TORSDOF 4
ENDMDL
