MODEL 1
REMARK VINA RESULT:      -7.7      0.000      0.000
REMARK  Name = 
REMARK  11 active torsions:
REMARK  status: ('A' for Active; 'I' for Inactive)
REMARK    1  A    between atoms: C_1  and  C_2
REMARK    2  A    between atoms: C_2  and  C_3
REMARK    3  A    between atoms: C_2  and  O_4
REMARK    4  A    between atoms: O_4  and  C_5
REMARK    5  A    between atoms: C_8  and  C_9
REMARK    6  A    between atoms: N_11  and  C_12
REMARK    7  A    between atoms: C_15  and  C_16
REMARK    8  A    between atoms: C_16  and  N_17
REMARK    9  A    between atoms: N_20  and  C_21
REMARK   10  A    between atoms: C_24  and  C_25
REMARK   11  A    between atoms: C_31  and  N_32
REMARK                            x       y       z     vdW  Elec       q    Type
REMARK                         _______ _______ _______ _____ _____    ______ ____
ROOT
ATOM      1  C   UNL     1       0.222  10.117  19.618  0.00  0.00    +0.000 A 
ATOM      2  C   UNL     1       0.412  11.208  20.450  0.00  0.00    +0.000 A 
ATOM      3  C   UNL     1      -0.545  12.218  20.514  0.00  0.00    +0.000 A 
ATOM      4  C   UNL     1      -1.728  12.166  19.752  0.00  0.00    +0.000 A 
ATOM      5  C   UNL     1      -1.919  11.086  18.873  0.00  0.00    +0.000 A 
ATOM      6  C   UNL     1      -0.937  10.059  18.830  0.00  0.00    +0.000 A 
ENDROOT
BRANCH   1   9
ATOM      7  C   UNL     1       1.941   8.732  18.414  0.00  0.00    +0.000 C 
ATOM      8  O   UNL     1       2.066   9.385  17.385  0.00  0.00    +0.000 OA
ATOM      9  N   UNL     1       1.151   9.057  19.513  0.00  0.00    +0.000 N 
ATOM     10  H   UNL     1       1.242   8.495  20.343  0.00  0.00    +0.000 HD
BRANCH   7  14
ATOM     11  C   UNL     1       4.086   4.998  18.667  0.00  0.00    +0.000 A 
ATOM     12  C   UNL     1       3.162   5.353  19.660  0.00  0.00    +0.000 A 
ATOM     13  C   UNL     1       2.462   6.568  19.582  0.00  0.00    +0.000 A 
ATOM     14  C   UNL     1       2.718   7.456  18.532  0.00  0.00    +0.000 A 
ATOM     15  C   UNL     1       3.680   7.122  17.580  0.00  0.00    +0.000 A 
ATOM     16  C   UNL     1       4.285   5.862  17.579  0.00  0.00    +0.000 A 
BRANCH  16  17
ATOM     17  N   UNL     1       4.885   5.474  16.381  0.00  0.00    +0.000 N 
ATOM     18  H   UNL     1       5.462   4.644  16.383  0.00  0.00    +0.000 HD
ATOM     19  H   UNL     1       4.372   5.665  15.539  0.00  0.00    +0.000 HD
ENDBRANCH  16  17
BRANCH  11  20
ATOM     20  O   UNL     1       4.699   3.775  18.820  0.00  0.00    +0.000 OA
BRANCH  20  22
ATOM     21  C   UNL     1       3.461   1.787  18.182  0.00  0.00    +0.000 C 
ATOM     22  C   UNL     1       3.885   2.701  19.332  0.00  0.00    +0.000 C 
ATOM     23  C   UNL     1       4.715   1.875  20.318  0.00  0.00    +0.000 C 
ENDBRANCH  20  22
ENDBRANCH  11  20
ENDBRANCH   7  14
ENDBRANCH   1   9
BRANCH   5  24
ATOM     24  C   UNL     1      -3.119  10.927  17.956  0.00  0.00    +0.000 C 
ATOM     25  F   UNL     1      -3.290  11.895  17.014  0.00  0.00    +0.000 F 
ATOM     26  F   UNL     1      -3.041   9.761  17.241  0.00  0.00    +0.000 F 
ATOM     27  F   UNL     1      -4.299  10.848  18.632  0.00  0.00    +0.000 F 
ENDBRANCH   5  24
BRANCH   4  28
ATOM     28  C   UNL     1      -2.792  13.206  20.062  0.00  0.00    +0.000 C 
BRANCH  28  29
ATOM     29  N   UNL     1      -3.657  12.770  21.172  0.00  0.00    +0.000 NA
ATOM     30  C   UNL     1      -5.066  13.123  20.906  0.00  0.00    +0.000 C 
ATOM     31  C   UNL     1      -6.004  12.719  22.071  0.00  0.00    +0.000 C 
ATOM     32  N   UNL     1      -5.609  13.215  23.406  0.00  0.00    +0.000 NA
ATOM     33  C   UNL     1      -5.882  14.640  23.567  0.00  0.00    +0.000 C 
ATOM     34  C   UNL     1      -4.182  12.913  23.622  0.00  0.00    +0.000 C 
ATOM     35  C   UNL     1      -3.253  13.355  22.472  0.00  0.00    +0.000 C 
ENDBRANCH  28  29
ENDBRANCH   4  28
TORSDOF 8
ENDMDL
MODEL 2
REMARK VINA RESULT:      -7.6      7.845     11.222
REMARK  Name = 
REMARK  11 active torsions:
REMARK  status: ('A' for Active; 'I' for Inactive)
REMARK    1  A    between atoms: C_1  and  C_2
REMARK    2  A    between atoms: C_2  and  C_3
REMARK    3  A    between atoms: C_2  and  O_4
REMARK    4  A    between atoms: O_4  and  C_5
REMARK    5  A    between atoms: C_8  and  C_9
REMARK    6  A    between atoms: N_11  and  C_12
REMARK    7  A    between atoms: C_15  and  C_16
REMARK    8  A    between atoms: C_16  and  N_17
REMARK    9  A    between atoms: N_20  and  C_21
REMARK   10  A    between atoms: C_24  and  C_25
REMARK   11  A    between atoms: C_31  and  N_32
REMARK                            x       y       z     vdW  Elec       q    Type
REMARK                         _______ _______ _______ _____ _____    ______ ____
ROOT
ATOM      1  C   UNL     1       7.979   8.001  17.948  0.00  0.00    +0.000 A 
ATOM      2  C   UNL     1       8.229   7.130  18.995  0.00  0.00    +0.000 A 
ATOM      3  C   UNL     1       7.524   5.932  19.097  0.00  0.00    +0.000 A 
ATOM      4  C   UNL     1       6.551   5.564  18.148  0.00  0.00    +0.000 A 
ATOM      5  C   UNL     1       6.256   6.454  17.102  0.00  0.00    +0.000 A 
ATOM      6  C   UNL     1       6.994   7.666  17.008  0.00  0.00    +0.000 A 
ENDROOT
BRANCH   1   9
ATOM      7  C   UNL     1       9.060  10.112  18.783  0.00  0.00    +0.000 C 
ATOM      8  O   UNL     1       8.998   9.926  19.993  0.00  0.00    +0.000 OA
ATOM      9  N   UNL     1       8.664   9.226  17.785  0.00  0.00    +0.000 N 
ATOM     10  H   UNL     1       8.891   9.458  16.832  0.00  0.00    +0.000 HD
BRANCH   7  14
ATOM     11  C   UNL     1      10.631  13.838  17.280  0.00  0.00    +0.000 A 
ATOM     12  C   UNL     1      11.419  12.679  17.263  0.00  0.00    +0.000 A 
ATOM     13  C   UNL     1      10.912  11.464  17.752  0.00  0.00    +0.000 A 
ATOM     14  C   UNL     1       9.627  11.413  18.304  0.00  0.00    +0.000 A 
ATOM     15  C   UNL     1       8.871  12.583  18.369  0.00  0.00    +0.000 A 
ATOM     16  C   UNL     1       9.317  13.764  17.769  0.00  0.00    +0.000 A 
BRANCH  16  17
ATOM     17  N   UNL     1       8.340  14.726  17.515  0.00  0.00    +0.000 N 
ATOM     18  H   UNL     1       7.496  14.709  18.070  0.00  0.00    +0.000 HD
ATOM     19  H   UNL     1       8.666  15.629  17.218  0.00  0.00    +0.000 HD
ENDBRANCH  16  17
BRANCH  11  20
ATOM     20  O   UNL     1      11.209  14.970  16.753  0.00  0.00    +0.000 OA
BRANCH  20  22
ATOM     21  C   UNL     1      11.051  17.164  17.781  0.00  0.00    +0.000 C 
ATOM     22  C   UNL     1      11.851  15.865  17.684  0.00  0.00    +0.000 C 
ATOM     23  C   UNL     1      11.871  15.210  19.068  0.00  0.00    +0.000 C 
ENDBRANCH  20  22
ENDBRANCH  11  20
ENDBRANCH   7  14
ENDBRANCH   1   9
BRANCH   5  24
ATOM     24  C   UNL     1       5.198   6.212  16.040  0.00  0.00    +0.000 C 
ATOM     25  F   UNL     1       4.050   5.612  16.460  0.00  0.00    +0.000 F 
ATOM     26  F   UNL     1       4.784   7.391  15.479  0.00  0.00    +0.000 F 
ATOM     27  F   UNL     1       5.652   5.463  14.996  0.00  0.00    +0.000 F 
ENDBRANCH   5  24
BRANCH   4  28
ATOM     28  C   UNL     1       6.005   4.149  18.239  0.00  0.00    +0.000 C 
BRANCH  28  29
ATOM     29  N   UNL     1       5.052   4.015  19.354  0.00  0.00    +0.000 NA
ATOM     30  C   UNL     1       4.460   2.663  19.376  0.00  0.00    +0.000 C 
ATOM     31  C   UNL     1       3.417   2.495  20.511  0.00  0.00    +0.000 C 
ATOM     32  N   UNL     1       2.345   3.511  20.543  0.00  0.00    +0.000 NA
ATOM     33  C   UNL     1       1.357   3.302  19.489  0.00  0.00    +0.000 C 
ATOM     34  C   UNL     1       2.955   4.850  20.451  0.00  0.00    +0.000 C 
ATOM     35  C   UNL     1       3.962   5.016  19.294  0.00  0.00    +0.000 C 
ENDBRANCH  28  29
ENDBRANCH   4  28
TORSDOF 8
ENDMDL
MODEL 3
REMARK VINA RESULT:      -7.5      4.064     10.687
REMARK  Name = 
REMARK  11 active torsions:
REMARK  status: ('A' for Active; 'I' for Inactive)
REMARK    1  A    between atoms: C_1  and  C_2
REMARK    2  A    between atoms: C_2  and  C_3
REMARK    3  A    between atoms: C_2  and  O_4
REMARK    4  A    between atoms: O_4  and  C_5
REMARK    5  A    between atoms: C_8  and  C_9
REMARK    6  A    between atoms: N_11  and  C_12
REMARK    7  A    between atoms: C_15  and  C_16
REMARK    8  A    between atoms: C_16  and  N_17
REMARK    9  A    between atoms: N_20  and  C_21
REMARK   10  A    between atoms: C_24  and  C_25
REMARK   11  A    between atoms: C_31  and  N_32
REMARK                            x       y       z     vdW  Elec       q    Type
REMARK                         _______ _______ _______ _____ _____    ______ ____
ROOT
ATOM      1  C   UNL     1       1.892   7.004  19.950  0.00  0.00    +0.000 A 
ATOM      2  C   UNL     1       2.611   7.198  18.782  0.00  0.00    +0.000 A 
ATOM      3  C   UNL     1       3.308   6.141  18.202  0.00  0.00    +0.000 A 
ATOM      4  C   UNL     1       3.302   4.852  18.768  0.00  0.00    +0.000 A 
ATOM      5  C   UNL     1       2.611   4.647  19.974  0.00  0.00    +0.000 A 
ATOM      6  C   UNL     1       1.896   5.735  20.545  0.00  0.00    +0.000 A 
ENDROOT
BRANCH   1   9
ATOM      7  C   UNL     1       0.776   9.256  20.040  0.00  0.00    +0.000 C 
ATOM      8  O   UNL     1       0.896   9.606  18.871  0.00  0.00    +0.000 OA
ATOM      9  N   UNL     1       1.159   8.033  20.584  0.00  0.00    +0.000 N 
ATOM     10  H   UNL     1       0.885   7.832  21.531  0.00  0.00    +0.000 HD
BRANCH   7  14
ATOM     11  C   UNL     1      -0.916  12.054  22.853  0.00  0.00    +0.000 A 
ATOM     12  C   UNL     1      -0.957  10.677  23.112  0.00  0.00    +0.000 A 
ATOM     13  C   UNL     1      -0.408   9.763  22.198  0.00  0.00    +0.000 A 
ATOM     14  C   UNL     1       0.145  10.219  20.997  0.00  0.00    +0.000 A 
ATOM     15  C   UNL     1       0.130  11.586  20.721  0.00  0.00    +0.000 A 
ATOM     16  C   UNL     1      -0.295  12.510  21.679  0.00  0.00    +0.000 A 
BRANCH  16  17
ATOM     17  N   UNL     1       0.120  13.827  21.484  0.00  0.00    +0.000 N 
ATOM     18  H   UNL     1       1.076  14.065  21.709  0.00  0.00    +0.000 HD
ATOM     19  H   UNL     1      -0.299  14.321  20.716  0.00  0.00    +0.000 HD
ENDBRANCH  16  17
BRANCH  11  20
ATOM     20  O   UNL     1      -1.455  12.868  23.823  0.00  0.00    +0.000 OA
BRANCH  20  22
ATOM     21  C   UNL     1      -3.840  12.684  24.241  0.00  0.00    +0.000 C 
ATOM     22  C   UNL     1      -2.735  13.466  23.531  0.00  0.00    +0.000 C 
ATOM     23  C   UNL     1      -2.745  14.901  24.065  0.00  0.00    +0.000 C 
ENDBRANCH  20  22
ENDBRANCH  11  20
ENDBRANCH   7  14
ENDBRANCH   1   9
BRANCH   5  24
ATOM     24  C   UNL     1       2.563   3.326  20.722  0.00  0.00    +0.000 C 
ATOM     25  F   UNL     1       3.750   2.677  20.876  0.00  0.00    +0.000 F 
ATOM     26  F   UNL     1       2.098   3.500  21.998  0.00  0.00    +0.000 F 
ATOM     27  F   UNL     1       1.712   2.424  20.156  0.00  0.00    +0.000 F 
ENDBRANCH   5  24
BRANCH   4  28
ATOM     28  C   UNL     1       3.914   3.735  17.939  0.00  0.00    +0.000 C 
BRANCH  28  29
ATOM     29  N   UNL     1       5.325   4.016  17.624  0.00  0.00    +0.000 NA
ATOM     30  C   UNL     1       5.984   4.707  18.751  0.00  0.00    +0.000 C 
ATOM     31  C   UNL     1       7.462   5.060  18.442  0.00  0.00    +0.000 C 
ATOM     32  N   UNL     1       7.686   5.816  17.193  0.00  0.00    +0.000 NA
ATOM     33  C   UNL     1       7.289   7.215  17.317  0.00  0.00    +0.000 C 
ATOM     34  C   UNL     1       6.964   5.147  16.096  0.00  0.00    +0.000 C 
ATOM     35  C   UNL     1       5.483   4.835  16.400  0.00  0.00    +0.000 C 
ENDBRANCH  28  29
ENDBRANCH   4  28
TORSDOF 8
ENDMDL
MODEL 4
REMARK VINA RESULT:      -7.5      3.966     10.714
REMARK  Name = 
REMARK  11 active torsions:
REMARK  status: ('A' for Active; 'I' for Inactive)
REMARK    1  A    between atoms: C_1  and  C_2
REMARK    2  A    between atoms: C_2  and  C_3
REMARK    3  A    between atoms: C_2  and  O_4
REMARK    4  A    between atoms: O_4  and  C_5
REMARK    5  A    between atoms: C_8  and  C_9
REMARK    6  A    between atoms: N_11  and  C_12
REMARK    7  A    between atoms: C_15  and  C_16
REMARK    8  A    between atoms: C_16  and  N_17
REMARK    9  A    between atoms: N_20  and  C_21
REMARK   10  A    between atoms: C_24  and  C_25
REMARK   11  A    between atoms: C_31  and  N_32
REMARK                            x       y       z     vdW  Elec       q    Type
REMARK                         _______ _______ _______ _____ _____    ______ ____
ROOT
ATOM      1  C   UNL     1       1.763   8.099  19.881  0.00  0.00    +0.000 A 
ATOM      2  C   UNL     1       2.340   8.219  18.627  0.00  0.00    +0.000 A 
ATOM      3  C   UNL     1       2.859   7.100  17.982  0.00  0.00    +0.000 A 
ATOM      4  C   UNL     1       2.811   5.820  18.567  0.00  0.00    +0.000 A 
ATOM      5  C   UNL     1       2.266   5.685  19.855  0.00  0.00    +0.000 A 
ATOM      6  C   UNL     1       1.731   6.837  20.493  0.00  0.00    +0.000 A 
ENDROOT
BRANCH   1   9
ATOM      7  C   UNL     1       0.061   9.204  21.365  0.00  0.00    +0.000 C 
ATOM      8  O   UNL     1      -0.614   8.232  21.685  0.00  0.00    +0.000 OA
ATOM      9  N   UNL     1       1.214   9.194  20.585  0.00  0.00    +0.000 N 
ATOM     10  H   UNL     1       1.738  10.049  20.508  0.00  0.00    +0.000 HD
BRANCH   7  14
ATOM     11  C   UNL     1      -1.284  13.078  22.702  0.00  0.00    +0.000 A 
ATOM     12  C   UNL     1      -0.214  12.972  21.802  0.00  0.00    +0.000 A 
ATOM     13  C   UNL     1       0.227  11.712  21.365  0.00  0.00    +0.000 A 
ATOM     14  C   UNL     1      -0.371  10.550  21.863  0.00  0.00    +0.000 A 
ATOM     15  C   UNL     1      -1.395  10.663  22.802  0.00  0.00    +0.000 A 
ATOM     16  C   UNL     1      -1.926  11.910  23.142  0.00  0.00    +0.000 A 
BRANCH  16  17
ATOM     17  N   UNL     1      -3.188  11.896  23.733  0.00  0.00    +0.000 N 
ATOM     18  H   UNL     1      -3.871  12.573  23.419  0.00  0.00    +0.000 HD
ATOM     19  H   UNL     1      -3.541  10.999  24.017  0.00  0.00    +0.000 HD
ENDBRANCH  16  17
BRANCH  11  20
ATOM     20  O   UNL     1      -1.658  14.357  23.047  0.00  0.00    +0.000 OA
BRANCH  20  22
ATOM     21  C   UNL     1      -0.446  16.173  24.110  0.00  0.00    +0.000 C 
ATOM     22  C   UNL     1      -1.187  14.851  24.317  0.00  0.00    +0.000 C 
ATOM     23  C   UNL     1      -2.392  15.116  25.224  0.00  0.00    +0.000 C 
ENDBRANCH  20  22
ENDBRANCH  11  20
ENDBRANCH   7  14
ENDBRANCH   1   9
BRANCH   5  24
ATOM     24  C   UNL     1       2.197   4.379  20.626  0.00  0.00    +0.000 C 
ATOM     25  F   UNL     1       3.083   3.414  20.256  0.00  0.00    +0.000 F 
ATOM     26  F   UNL     1       2.443   4.580  21.958  0.00  0.00    +0.000 F 
ATOM     27  F   UNL     1       0.966   3.797  20.578  0.00  0.00    +0.000 F 
ENDBRANCH   5  24
BRANCH   4  28
ATOM     28  C   UNL     1       3.209   4.647  17.686  0.00  0.00    +0.000 C 
BRANCH  28  29
ATOM     29  N   UNL     1       4.671   4.572  17.525  0.00  0.00    +0.000 NA
ATOM     30  C   UNL     1       5.356   5.133  18.706  0.00  0.00    +0.000 C 
ATOM     31  C   UNL     1       6.899   5.113  18.558  0.00  0.00    +0.000 C 
ATOM     32  N   UNL     1       7.426   5.743  17.329  0.00  0.00    +0.000 NA
ATOM     33  C   UNL     1       7.365   7.200  17.388  0.00  0.00    +0.000 C 
ATOM     34  C   UNL     1       6.682   5.220  16.169  0.00  0.00    +0.000 C 
ATOM     35  C   UNL     1       5.147   5.281  16.313  0.00  0.00    +0.000 C 
ENDBRANCH  28  29
ENDBRANCH   4  28
TORSDOF 8
ENDMDL
MODEL 5
REMARK VINA RESULT:      -7.5      3.908     10.718
REMARK  Name = 
REMARK  11 active torsions:
REMARK  status: ('A' for Active; 'I' for Inactive)
REMARK    1  A    between atoms: C_1  and  C_2
REMARK    2  A    between atoms: C_2  and  C_3
REMARK    3  A    between atoms: C_2  and  O_4
REMARK    4  A    between atoms: O_4  and  C_5
REMARK    5  A    between atoms: C_8  and  C_9
REMARK    6  A    between atoms: N_11  and  C_12
REMARK    7  A    between atoms: C_15  and  C_16
REMARK    8  A    between atoms: C_16  and  N_17
REMARK    9  A    between atoms: N_20  and  C_21
REMARK   10  A    between atoms: C_24  and  C_25
REMARK   11  A    between atoms: C_31  and  N_32
REMARK                            x       y       z     vdW  Elec       q    Type
REMARK                         _______ _______ _______ _____ _____    ______ ____
ROOT
ATOM      1  C   UNL     1       1.783   6.890  20.220  0.00  0.00    +0.000 A 
ATOM      2  C   UNL     1       2.689   7.101  19.194  0.00  0.00    +0.000 A 
ATOM      3  C   UNL     1       3.488   6.056  18.736  0.00  0.00    +0.000 A 
ATOM      4  C   UNL     1       3.402   4.763  19.286  0.00  0.00    +0.000 A 
ATOM      5  C   UNL     1       2.517   4.540  20.354  0.00  0.00    +0.000 A 
ATOM      6  C   UNL     1       1.700   5.616  20.800  0.00  0.00    +0.000 A 
ENDROOT
BRANCH   1   9
ATOM      7  C   UNL     1       0.806   9.207  20.248  0.00  0.00    +0.000 C 
ATOM      8  O   UNL     1       1.302   9.665  19.226  0.00  0.00    +0.000 OA
ATOM      9  N   UNL     1       0.939   7.906  20.724  0.00  0.00    +0.000 N 
ATOM     10  H   UNL     1       0.372   7.630  21.509  0.00  0.00    +0.000 HD
BRANCH   7  14
ATOM     11  C   UNL     1      -1.532  11.891  22.684  0.00  0.00    +0.000 A 
ATOM     12  C   UNL     1      -1.152  10.636  23.178  0.00  0.00    +0.000 A 
ATOM     13  C   UNL     1      -0.391   9.759  22.388  0.00  0.00    +0.000 A 
ATOM     14  C   UNL     1      -0.046  10.115  21.080  0.00  0.00    +0.000 A 
ATOM     15  C   UNL     1      -0.478  11.341  20.576  0.00  0.00    +0.000 A 
ATOM     16  C   UNL     1      -1.122  12.271  21.397  0.00  0.00    +0.000 A 
BRANCH  16  17
ATOM     17  N   UNL     1      -1.125  13.589  20.940  0.00  0.00    +0.000 N 
ATOM     18  H   UNL     1      -0.673  13.791  20.059  0.00  0.00    +0.000 HD
ATOM     19  H   UNL     1      -1.932  14.142  21.169  0.00  0.00    +0.000 HD
ENDBRANCH  16  17
BRANCH  11  20
ATOM     20  O   UNL     1      -2.252  12.687  23.545  0.00  0.00    +0.000 OA
BRANCH  20  22
ATOM     21  C   UNL     1      -4.337  12.454  24.767  0.00  0.00    +0.000 C 
ATOM     22  C   UNL     1      -3.687  12.670  23.401  0.00  0.00    +0.000 C 
ATOM     23  C   UNL     1      -4.148  14.026  22.860  0.00  0.00    +0.000 C 
ENDBRANCH  20  22
ENDBRANCH  11  20
ENDBRANCH   7  14
ENDBRANCH   1   9
BRANCH   5  24
ATOM     24  C   UNL     1       2.357   3.214  21.076  0.00  0.00    +0.000 C 
ATOM     25  F   UNL     1       1.764   3.262  22.300  0.00  0.00    +0.000 F 
ATOM     26  F   UNL     1       1.579   2.350  20.351  0.00  0.00    +0.000 F 
ATOM     27  F   UNL     1       3.539   2.559  21.256  0.00  0.00    +0.000 F 
ENDBRANCH   5  24
BRANCH   4  28
ATOM     28  C   UNL     1       4.161   3.659  18.568  0.00  0.00    +0.000 C 
BRANCH  28  29
ATOM     29  N   UNL     1       5.582   4.008  18.405  0.00  0.00    +0.000 NA
ATOM     30  C   UNL     1       5.959   5.104  19.319  0.00  0.00    +0.000 C 
ATOM     31  C   UNL     1       7.439   5.532  19.147  0.00  0.00    +0.000 C 
ATOM     32  N   UNL     1       7.846   5.871  17.768  0.00  0.00    +0.000 NA
ATOM     33  C   UNL     1       7.332   7.171  17.346  0.00  0.00    +0.000 C 
ATOM     34  C   UNL     1       7.399   4.797  16.863  0.00  0.00    +0.000 C 
ATOM     35  C   UNL     1       5.914   4.406  17.016  0.00  0.00    +0.000 C 
ENDBRANCH  28  29
ENDBRANCH   4  28
TORSDOF 8
ENDMDL
MODEL 6
REMARK VINA RESULT:      -7.5      3.847     10.605
REMARK  Name = 
REMARK  11 active torsions:
REMARK  status: ('A' for Active; 'I' for Inactive)
REMARK    1  A    between atoms: C_1  and  C_2
REMARK    2  A    between atoms: C_2  and  C_3
REMARK    3  A    between atoms: C_2  and  O_4
REMARK    4  A    between atoms: O_4  and  C_5
REMARK    5  A    between atoms: C_8  and  C_9
REMARK    6  A    between atoms: N_11  and  C_12
REMARK    7  A    between atoms: C_15  and  C_16
REMARK    8  A    between atoms: C_16  and  N_17
REMARK    9  A    between atoms: N_20  and  C_21
REMARK   10  A    between atoms: C_24  and  C_25
REMARK   11  A    between atoms: C_31  and  N_32
REMARK                            x       y       z     vdW  Elec       q    Type
REMARK                         _______ _______ _______ _____ _____    ______ ____
ROOT
ATOM      1  C   UNL     1       1.654   7.993  19.690  0.00  0.00    +0.000 A 
ATOM      2  C   UNL     1       2.414   8.070  18.534  0.00  0.00    +0.000 A 
ATOM      3  C   UNL     1       3.071   6.942  18.049  0.00  0.00    +0.000 A 
ATOM      4  C   UNL     1       2.984   5.697  18.700  0.00  0.00    +0.000 A 
ATOM      5  C   UNL     1       2.251   5.610  19.896  0.00  0.00    +0.000 A 
ATOM      6  C   UNL     1       1.577   6.768  20.369  0.00  0.00    +0.000 A 
ENDROOT
BRANCH   1   9
ATOM      7  C   UNL     1       0.996   9.561  21.542  0.00  0.00    +0.000 C 
ATOM      8  O   UNL     1       1.740   9.171  22.434  0.00  0.00    +0.000 OA
ATOM      9  N   UNL     1       0.958   9.098  20.230  0.00  0.00    +0.000 N 
ATOM     10  H   UNL     1       0.385   9.597  19.569  0.00  0.00    +0.000 HD
BRANCH   7  14
ATOM     11  C   UNL     1      -1.689  12.782  22.553  0.00  0.00    +0.000 A 
ATOM     12  C   UNL     1      -1.710  11.587  23.284  0.00  0.00    +0.000 A 
ATOM     13  C   UNL     1      -0.838  10.535  22.958  0.00  0.00    +0.000 A 
ATOM     14  C   UNL     1       0.028  10.658  21.867  0.00  0.00    +0.000 A 
ATOM     15  C   UNL     1       0.002  11.828  21.109  0.00  0.00    +0.000 A 
ATOM     16  C   UNL     1      -0.767  12.926  21.504  0.00  0.00    +0.000 A 
BRANCH  16  17
ATOM     17  N   UNL     1      -0.407  14.154  20.951  0.00  0.00    +0.000 N 
ATOM     18  H   UNL     1      -1.140  14.746  20.585  0.00  0.00    +0.000 HD
ATOM     19  H   UNL     1       0.383  14.618  21.363  0.00  0.00    +0.000 HD
ENDBRANCH  16  17
BRANCH  11  20
ATOM     20  O   UNL     1      -2.563  13.761  22.969  0.00  0.00    +0.000 OA
BRANCH  20  22
ATOM     21  C   UNL     1      -3.189  14.591  25.163  0.00  0.00    +0.000 C 
ATOM     22  C   UNL     1      -3.356  13.470  24.137  0.00  0.00    +0.000 C 
ATOM     23  C   UNL     1      -4.831  13.407  23.733  0.00  0.00    +0.000 C 
ENDBRANCH  20  22
ENDBRANCH  11  20
ENDBRANCH   7  14
ENDBRANCH   1   9
BRANCH   5  24
ATOM     24  C   UNL     1       2.114   4.348  20.729  0.00  0.00    +0.000 C 
ATOM     25  F   UNL     1       2.965   3.329  20.424  0.00  0.00    +0.000 F 
ATOM     26  F   UNL     1       2.346   4.605  22.054  0.00  0.00    +0.000 F 
ATOM     27  F   UNL     1       0.860   3.815  20.687  0.00  0.00    +0.000 F 
ENDBRANCH   5  24
BRANCH   4  28
ATOM     28  C   UNL     1       3.561   4.497  17.968  0.00  0.00    +0.000 C 
BRANCH  28  29
ATOM     29  N   UNL     1       5.032   4.548  17.936  0.00  0.00    +0.000 NA
ATOM     30  C   UNL     1       5.552   5.347  19.063  0.00  0.00    +0.000 C 
ATOM     31  C   UNL     1       7.097   5.462  19.042  0.00  0.00    +0.000 C 
ATOM     32  N   UNL     1       7.680   5.949  17.774  0.00  0.00    +0.000 NA
ATOM     33  C   UNL     1       7.486   7.384  17.594  0.00  0.00    +0.000 C 
ATOM     34  C   UNL     1       7.096   5.183  16.657  0.00  0.00    +0.000 C 
ATOM     35  C   UNL     1       5.555   5.109  16.668  0.00  0.00    +0.000 C 
ENDBRANCH  28  29
ENDBRANCH   4  28
TORSDOF 8
ENDMDL
MODEL 7
REMARK VINA RESULT:      -7.5      4.154     10.703
REMARK  Name = 
REMARK  11 active torsions:
REMARK  status: ('A' for Active; 'I' for Inactive)
REMARK    1  A    between atoms: C_1  and  C_2
REMARK    2  A    between atoms: C_2  and  C_3
REMARK    3  A    between atoms: C_2  and  O_4
REMARK    4  A    between atoms: O_4  and  C_5
REMARK    5  A    between atoms: C_8  and  C_9
REMARK    6  A    between atoms: N_11  and  C_12
REMARK    7  A    between atoms: C_15  and  C_16
REMARK    8  A    between atoms: C_16  and  N_17
REMARK    9  A    between atoms: N_20  and  C_21
REMARK   10  A    between atoms: C_24  and  C_25
REMARK   11  A    between atoms: C_31  and  N_32
REMARK                            x       y       z     vdW  Elec       q    Type
REMARK                         _______ _______ _______ _____ _____    ______ ____
ROOT
ATOM      1  C   UNL     1       1.859   7.682  19.897  0.00  0.00    +0.000 A 
ATOM      2  C   UNL     1       2.413   7.767  18.630  0.00  0.00    +0.000 A 
ATOM      3  C   UNL     1       2.921   6.629  18.008  0.00  0.00    +0.000 A 
ATOM      4  C   UNL     1       2.884   5.366  18.630  0.00  0.00    +0.000 A 
ATOM      5  C   UNL     1       2.362   5.269  19.932  0.00  0.00    +0.000 A 
ATOM      6  C   UNL     1       1.838   6.439  20.546  0.00  0.00    +0.000 A 
ENDROOT
BRANCH   1   9
ATOM      7  C   UNL     1       0.120   8.862  21.278  0.00  0.00    +0.000 C 
ATOM      8  O   UNL     1      -0.627   7.925  21.536  0.00  0.00    +0.000 OA
ATOM      9  N   UNL     1       1.322   8.797  20.579  0.00  0.00    +0.000 N 
ATOM     10  H   UNL     1       1.896   9.624  20.551  0.00  0.00    +0.000 HD
BRANCH   7  14
ATOM     11  C   UNL     1      -0.888  12.787  22.755  0.00  0.00    +0.000 A 
ATOM     12  C   UNL     1      -1.418  11.643  23.367  0.00  0.00    +0.000 A 
ATOM     13  C   UNL     1      -1.093  10.363  22.889  0.00  0.00    +0.000 A 
ATOM     14  C   UNL     1      -0.271  10.223  21.766  0.00  0.00    +0.000 A 
ATOM     15  C   UNL     1       0.206  11.368  21.128  0.00  0.00    +0.000 A 
ATOM     16  C   UNL     1      -0.006  12.637  21.673  0.00  0.00    +0.000 A 
BRANCH  16  17
ATOM     17  N   UNL     1       0.846  13.645  21.223  0.00  0.00    +0.000 N 
ATOM     18  H   UNL     1       0.504  14.596  21.227  0.00  0.00    +0.000 HD
ATOM     19  H   UNL     1       1.826  13.518  21.401  0.00  0.00    +0.000 HD
ENDBRANCH  16  17
BRANCH  11  20
ATOM     20  O   UNL     1      -1.244  13.993  23.316  0.00  0.00    +0.000 OA
BRANCH  20  22
ATOM     21  C   UNL     1      -2.938  14.853  24.827  0.00  0.00    +0.000 C 
ATOM     22  C   UNL     1      -2.656  14.254  23.449  0.00  0.00    +0.000 C 
ATOM     23  C   UNL     1      -3.074  15.276  22.389  0.00  0.00    +0.000 C 
ENDBRANCH  20  22
ENDBRANCH  11  20
ENDBRANCH   7  14
ENDBRANCH   1   9
BRANCH   5  24
ATOM     24  C   UNL     1       2.307   3.986  20.741  0.00  0.00    +0.000 C 
ATOM     25  F   UNL     1       2.282   4.129  22.095  0.00  0.00    +0.000 F 
ATOM     26  F   UNL     1       1.177   3.268  20.450  0.00  0.00    +0.000 F 
ATOM     27  F   UNL     1       3.342   3.141  20.472  0.00  0.00    +0.000 F 
ENDBRANCH   5  24
BRANCH   4  28
ATOM     28  C   UNL     1       3.266   4.168  17.777  0.00  0.00    +0.000 C 
BRANCH  28  29
ATOM     29  N   UNL     1       4.719   4.120  17.545  0.00  0.00    +0.000 NA
ATOM     30  C   UNL     1       5.447   4.764  18.656  0.00  0.00    +0.000 C 
ATOM     31  C   UNL     1       6.981   4.774  18.429  0.00  0.00    +0.000 C 
ATOM     32  N   UNL     1       7.428   5.345  17.141  0.00  0.00    +0.000 NA
ATOM     33  C   UNL     1       7.330   6.801  17.122  0.00  0.00    +0.000 C 
ATOM     34  C   UNL     1       6.641   4.739  16.053  0.00  0.00    +0.000 C 
ATOM     35  C   UNL     1       5.114   4.770  16.273  0.00  0.00    +0.000 C 
ENDBRANCH  28  29
ENDBRANCH   4  28
TORSDOF 8
ENDMDL
MODEL 8
REMARK VINA RESULT:      -7.5      7.185     10.389
REMARK  Name = 
REMARK  11 active torsions:
REMARK  status: ('A' for Active; 'I' for Inactive)
REMARK    1  A    between atoms: C_1  and  C_2
REMARK    2  A    between atoms: C_2  and  C_3
REMARK    3  A    between atoms: C_2  and  O_4
REMARK    4  A    between atoms: O_4  and  C_5
REMARK    5  A    between atoms: C_8  and  C_9
REMARK    6  A    between atoms: N_11  and  C_12
REMARK    7  A    between atoms: C_15  and  C_16
REMARK    8  A    between atoms: C_16  and  N_17
REMARK    9  A    between atoms: N_20  and  C_21
REMARK   10  A    between atoms: C_24  and  C_25
REMARK   11  A    between atoms: C_31  and  N_32
REMARK                            x       y       z     vdW  Elec       q    Type
REMARK                         _______ _______ _______ _____ _____    ______ ____
ROOT
ATOM      1  C   UNL     1       6.323   7.194  17.276  0.00  0.00    +0.000 A 
ATOM      2  C   UNL     1       6.826   5.977  16.844  0.00  0.00    +0.000 A 
ATOM      3  C   UNL     1       5.994   4.864  16.759  0.00  0.00    +0.000 A 
ATOM      4  C   UNL     1       4.629   4.932  17.097  0.00  0.00    +0.000 A 
ATOM      5  C   UNL     1       4.111   6.148  17.575  0.00  0.00    +0.000 A 
ATOM      6  C   UNL     1       4.973   7.277  17.644  0.00  0.00    +0.000 A 
ENDROOT
BRANCH   1   9
ATOM      7  C   UNL     1       8.180   8.588  18.243  0.00  0.00    +0.000 C 
ATOM      8  O   UNL     1       8.707   7.766  18.984  0.00  0.00    +0.000 OA
ATOM      9  N   UNL     1       7.113   8.361  17.377  0.00  0.00    +0.000 N 
ATOM     10  H   UNL     1       6.865   9.094  16.733  0.00  0.00    +0.000 HD
BRANCH   7  14
ATOM     11  C   UNL     1       9.691  12.626  18.350  0.00  0.00    +0.000 A 
ATOM     12  C   UNL     1       8.596  12.301  17.537  0.00  0.00    +0.000 A 
ATOM     13  C   UNL     1       8.102  10.987  17.498  0.00  0.00    +0.000 A 
ATOM     14  C   UNL     1       8.730   9.981  18.239  0.00  0.00    +0.000 A 
ATOM     15  C   UNL     1       9.853  10.301  19.002  0.00  0.00    +0.000 A 
ATOM     16  C   UNL     1      10.271  11.627  19.147  0.00  0.00    +0.000 A 
BRANCH  16  17
ATOM     17  N   UNL     1      11.103  11.889  20.234  0.00  0.00    +0.000 N 
ATOM     18  H   UNL     1      12.097  11.749  20.120  0.00  0.00    +0.000 HD
ATOM     19  H   UNL     1      10.821  12.633  20.847  0.00  0.00    +0.000 HD
ENDBRANCH  16  17
BRANCH  11  20
ATOM     20  O   UNL     1      10.081  13.946  18.339  0.00  0.00    +0.000 OA
BRANCH  20  22
ATOM     21  C   UNL     1       9.176  15.293  20.145  0.00  0.00    +0.000 C 
ATOM     22  C   UNL     1       9.073  14.924  18.665  0.00  0.00    +0.000 C 
ATOM     23  C   UNL     1       9.324  16.189  17.838  0.00  0.00    +0.000 C 
ENDBRANCH  20  22
ENDBRANCH  11  20
ENDBRANCH   7  14
ENDBRANCH   1   9
BRANCH   5  24
ATOM     24  C   UNL     1       2.675   6.353  18.024  0.00  0.00    +0.000 C 
ATOM     25  F   UNL     1       1.738   5.572  17.420  0.00  0.00    +0.000 F 
ATOM     26  F   UNL     1       2.535   6.087  19.360  0.00  0.00    +0.000 F 
ATOM     27  F   UNL     1       2.248   7.638  17.872  0.00  0.00    +0.000 F 
ENDBRANCH   5  24
BRANCH   4  28
ATOM     28  C   UNL     1       3.776   3.720  16.762  0.00  0.00    +0.000 C 
BRANCH  28  29
ATOM     29  N   UNL     1       3.583   2.861  17.942  0.00  0.00    +0.000 NA
ATOM     30  C   UNL     1       2.155   2.786  18.307  0.00  0.00    +0.000 C 
ATOM     31  C   UNL     1       1.914   1.926  19.573  0.00  0.00    +0.000 C 
ATOM     32  N   UNL     1       2.713   2.302  20.758  0.00  0.00    +0.000 NA
ATOM     33  C   UNL     1       2.219   3.522  21.390  0.00  0.00    +0.000 C 
ATOM     34  C   UNL     1       4.124   2.437  20.357  0.00  0.00    +0.000 C 
ATOM     35  C   UNL     1       4.355   3.328  19.118  0.00  0.00    +0.000 C 
ENDBRANCH  28  29
ENDBRANCH   4  28
TORSDOF 8
ENDMDL
MODEL 9
REMARK VINA RESULT:      -7.4      1.656      2.189
REMARK  Name = 
REMARK  11 active torsions:
REMARK  status: ('A' for Active; 'I' for Inactive)
REMARK    1  A    between atoms: C_1  and  C_2
REMARK    2  A    between atoms: C_2  and  C_3
REMARK    3  A    between atoms: C_2  and  O_4
REMARK    4  A    between atoms: O_4  and  C_5
REMARK    5  A    between atoms: C_8  and  C_9
REMARK    6  A    between atoms: N_11  and  C_12
REMARK    7  A    between atoms: C_15  and  C_16
REMARK    8  A    between atoms: C_16  and  N_17
REMARK    9  A    between atoms: N_20  and  C_21
REMARK   10  A    between atoms: C_24  and  C_25
REMARK   11  A    between atoms: C_31  and  N_32
REMARK                            x       y       z     vdW  Elec       q    Type
REMARK                         _______ _______ _______ _____ _____    ______ ____
ROOT
ATOM      1  C   UNL     1      -0.312  10.188  19.261  0.00  0.00    +0.000 A 
ATOM      2  C   UNL     1      -0.246  11.215  20.190  0.00  0.00    +0.000 A 
ATOM      3  C   UNL     1      -1.299  12.118  20.315  0.00  0.00    +0.000 A 
ATOM      4  C   UNL     1      -2.457  12.020  19.519  0.00  0.00    +0.000 A 
ATOM      5  C   UNL     1      -2.523  11.010  18.544  0.00  0.00    +0.000 A 
ATOM      6  C   UNL     1      -1.444  10.090  18.439  0.00  0.00    +0.000 A 
ENDROOT
BRANCH   1   9
ATOM      7  C   UNL     1       1.790   9.301  18.204  0.00  0.00    +0.000 C 
ATOM      8  O   UNL     1       2.102  10.257  17.503  0.00  0.00    +0.000 OA
ATOM      9  N   UNL     1       0.719   9.237  19.090  0.00  0.00    +0.000 N 
ATOM     10  H   UNL     1       0.656   8.436  19.697  0.00  0.00    +0.000 HD
BRANCH   7  14
ATOM     11  C   UNL     1       4.321   5.811  18.084  0.00  0.00    +0.000 A 
ATOM     12  C   UNL     1       4.482   6.835  17.141  0.00  0.00    +0.000 A 
ATOM     13  C   UNL     1       3.660   7.973  17.176  0.00  0.00    +0.000 A 
ATOM     14  C   UNL     1       2.640   8.070  18.128  0.00  0.00    +0.000 A 
ATOM     15  C   UNL     1       2.449   7.021  19.026  0.00  0.00    +0.000 A 
ATOM     16  C   UNL     1       3.343   5.948  19.081  0.00  0.00    +0.000 A 
BRANCH  16  17
ATOM     17  N   UNL     1       3.323   5.196  20.255  0.00  0.00    +0.000 N 
ATOM     18  H   UNL     1       3.970   4.425  20.340  0.00  0.00    +0.000 HD
ATOM     19  H   UNL     1       3.097   5.690  21.101  0.00  0.00    +0.000 HD
ENDBRANCH  16  17
BRANCH  11  20
ATOM     20  O   UNL     1       5.194   4.752  17.981  0.00  0.00    +0.000 OA
BRANCH  20  22
ATOM     21  C   UNL     1       7.578   4.567  17.559  0.00  0.00    +0.000 C 
ATOM     22  C   UNL     1       6.201   4.837  16.952  0.00  0.00    +0.000 C 
ATOM     23  C   UNL     1       5.924   3.763  15.897  0.00  0.00    +0.000 C 
ENDBRANCH  20  22
ENDBRANCH  11  20
ENDBRANCH   7  14
ENDBRANCH   1   9
BRANCH   5  24
ATOM     24  C   UNL     1      -3.684  10.817  17.584  0.00  0.00    +0.000 C 
ATOM     25  F   UNL     1      -3.523   9.861  16.628  0.00  0.00    +0.000 F 
ATOM     26  F   UNL     1      -4.820  10.448  18.253  0.00  0.00    +0.000 F 
ATOM     27  F   UNL     1      -4.020  11.959  16.919  0.00  0.00    +0.000 F 
ENDBRANCH   5  24
BRANCH   4  28
ATOM     28  C   UNL     1      -3.623  12.921  19.889  0.00  0.00    +0.000 C 
BRANCH  28  29
ATOM     29  N   UNL     1      -3.513  13.392  21.280  0.00  0.00    +0.000 NA
ATOM     30  C   UNL     1      -4.548  12.767  22.127  0.00  0.00    +0.000 C 
ATOM     31  C   UNL     1      -4.493  13.270  23.592  0.00  0.00    +0.000 C 
ATOM     32  N   UNL     1      -4.529  14.738  23.760  0.00  0.00    +0.000 NA
ATOM     33  C   UNL     1      -5.863  15.286  23.532  0.00  0.00    +0.000 C 
ATOM     34  C   UNL     1      -3.536  15.345  22.856  0.00  0.00    +0.000 C 
ATOM     35  C   UNL     1      -3.626  14.865  21.392  0.00  0.00    +0.000 C 
ENDBRANCH  28  29
ENDBRANCH   4  28
TORSDOF 8
ENDMDL
