MODEL 1
REMARK VINA RESULT:      -8.3      0.000      0.000
REMARK  Name = 
REMARK  5 active torsions:
REMARK  status: ('A' for Active; 'I' for Inactive)
REMARK    1  A    between atoms: C_5  and  C_6
REMARK    2  A    between atoms: C_9  and  C_10
REMARK    3  A    between atoms: C_15  and  S_16
REMARK    4  A    between atoms: S_16  and  C_19
REMARK    5  A    between atoms: C_19  and  C_20
REMARK                            x       y       z     vdW  Elec       q    Type
REMARK                         _______ _______ _______ _____ _____    ______ ____
ROOT
ATOM      1  C   UNL     1       1.053  11.368  18.739  0.00  0.00    +0.000 A 
ATOM      2  C   UNL     1       2.068  12.340  18.960  0.00  0.00    +0.000 A 
ATOM      3  C   UNL     1       1.811  13.709  19.061  0.00  0.00    +0.000 A 
ATOM      4  C   UNL     1       0.518  14.173  18.936  0.00  0.00    +0.000 A 
ATOM      5  C   UNL     1      -0.509  13.266  18.690  0.00  0.00    +0.000 A 
ATOM      6  C   UNL     1      -0.263  11.882  18.549  0.00  0.00    +0.000 A 
ENDROOT
BRANCH   1  10
ATOM      7  C   UNL     1       2.475   7.206  18.956  0.00  0.00    +0.000 A 
ATOM      8  C   UNL     1       2.568   7.965  17.778  0.00  0.00    +0.000 A 
ATOM      9  C   UNL     1       2.116   9.299  17.728  0.00  0.00    +0.000 A 
ATOM     10  C   UNL     1       1.473   9.929  18.816  0.00  0.00    +0.000 A 
ATOM     11  C   UNL     1       1.257   9.105  19.919  0.00  0.00    +0.000 A 
ATOM     12  C   UNL     1       1.795   7.819  20.011  0.00  0.00    +0.000 A 
ATOM     13  F   UNL     1       1.656   7.189  21.188  0.00  0.00    +0.000 F 
BRANCH   7  18
ATOM     14  N   UNL     1       4.770   2.168  19.704  0.00  0.00    +0.000 N 
ATOM     15  C   UNL     1       4.212   3.398  19.438  0.00  0.00    +0.000 A 
ATOM     16  N   UNL     1       5.030   4.448  19.354  0.00  0.00    +0.000 NA
ATOM     17  C   UNL     1       4.444   5.652  19.175  0.00  0.00    +0.000 A 
ATOM     18  C   UNL     1       3.077   5.869  19.082  0.00  0.00    +0.000 A 
ATOM     19  C   UNL     1       2.352   4.694  19.176  0.00  0.00    +0.000 A 
ATOM     20  N   UNL     1       2.885   3.466  19.364  0.00  0.00    +0.000 NA
ATOM     21  H   UNL     1       5.657   2.304  20.170  0.00  0.00    +0.000 HD
ATOM     22  H   UNL     1       4.084   1.601  20.184  0.00  0.00    +0.000 HD
ENDBRANCH   7  18
ENDBRANCH   1  10
BRANCH   6  23
ATOM     23  S   UNL     1      -1.682  10.833  18.219  0.00  0.00    +0.000 S 
ATOM     24  O   UNL     1      -1.426  10.054  17.023  0.00  0.00    +0.000 OA
ATOM     25  O   UNL     1      -1.971  10.168  19.481  0.00  0.00    +0.000 OA
BRANCH  23  26
ATOM     26  C   UNL     1      -3.116  11.776  17.853  0.00  0.00    +0.000 C 
BRANCH  26  27
ATOM     27  C   UNL     1      -4.395  10.983  17.914  0.00  0.00    +0.000 C 
ATOM     28  O   UNL     1      -4.647  10.061  17.141  0.00  0.00    +0.000 OA
ATOM     29  N   UNL     1      -5.333  11.399  18.857  0.00  0.00    +0.000 N 
ATOM     30  C   UNL     1      -5.207  12.573  19.729  0.00  0.00    +0.000 C 
ATOM     31  C   UNL     1      -5.914  12.359  21.073  0.00  0.00    +0.000 C 
ATOM     32  O   UNL     1      -7.259  11.893  20.902  0.00  0.00    +0.000 OA
ATOM     33  C   UNL     1      -7.273  10.651  20.181  0.00  0.00    +0.000 C 
ATOM     34  C   UNL     1      -6.692  10.848  18.783  0.00  0.00    +0.000 C 
ENDBRANCH  26  27
ENDBRANCH  23  26
ENDBRANCH   6  23
TORSDOF 5
ENDMDL
MODEL 2
REMARK VINA RESULT:      -8.0      0.940      1.546
REMARK  Name = 
REMARK  5 active torsions:
REMARK  status: ('A' for Active; 'I' for Inactive)
REMARK    1  A    between atoms: C_5  and  C_6
REMARK    2  A    between atoms: C_9  and  C_10
REMARK    3  A    between atoms: C_15  and  S_16
REMARK    4  A    between atoms: S_16  and  C_19
REMARK    5  A    between atoms: C_19  and  C_20
REMARK                            x       y       z     vdW  Elec       q    Type
REMARK                         _______ _______ _______ _____ _____    ______ ____
ROOT
ATOM      1  C   UNL     1       1.235  11.109  18.542  0.00  0.00    +0.000 A 
ATOM      2  C   UNL     1       2.272  12.080  18.618  0.00  0.00    +0.000 A 
ATOM      3  C   UNL     1       2.037  13.457  18.620  0.00  0.00    +0.000 A 
ATOM      4  C   UNL     1       0.743  13.929  18.535  0.00  0.00    +0.000 A 
ATOM      5  C   UNL     1      -0.307  13.021  18.429  0.00  0.00    +0.000 A 
ATOM      6  C   UNL     1      -0.084  11.627  18.391  0.00  0.00    +0.000 A 
ENDROOT
BRANCH   1  10
ATOM      7  C   UNL     1       2.624   6.961  19.044  0.00  0.00    +0.000 A 
ATOM      8  C   UNL     1       2.784   7.659  17.837  0.00  0.00    +0.000 A 
ATOM      9  C   UNL     1       2.342   8.990  17.695  0.00  0.00    +0.000 A 
ATOM     10  C   UNL     1       1.644   9.675  18.714  0.00  0.00    +0.000 A 
ATOM     11  C   UNL     1       1.365   8.909  19.844  0.00  0.00    +0.000 A 
ATOM     12  C   UNL     1       1.891   7.628  20.029  0.00  0.00    +0.000 A 
ATOM     13  F   UNL     1       1.686   7.058  21.227  0.00  0.00    +0.000 F 
BRANCH   7  18
ATOM     14  N   UNL     1       4.824   1.860  19.637  0.00  0.00    +0.000 N 
ATOM     15  C   UNL     1       4.285   3.125  19.573  0.00  0.00    +0.000 A 
ATOM     16  N   UNL     1       2.957   3.240  19.622  0.00  0.00    +0.000 NA
ATOM     17  C   UNL     1       2.456   4.486  19.473  0.00  0.00    +0.000 A 
ATOM     18  C   UNL     1       3.212   5.631  19.270  0.00  0.00    +0.000 A 
ATOM     19  C   UNL     1       4.571   5.367  19.252  0.00  0.00    +0.000 A 
ATOM     20  N   UNL     1       5.124   4.141  19.386  0.00  0.00    +0.000 NA
ATOM     21  H   UNL     1       4.131   1.192  19.327  0.00  0.00    +0.000 HD
ATOM     22  H   UNL     1       5.708   1.863  19.146  0.00  0.00    +0.000 HD
ENDBRANCH   7  18
ENDBRANCH   1  10
BRANCH   6  23
ATOM     23  S   UNL     1      -1.533  10.577  18.237  0.00  0.00    +0.000 S 
ATOM     24  O   UNL     1      -1.371   9.715  17.081  0.00  0.00    +0.000 OA
ATOM     25  O   UNL     1      -1.734  10.002  19.559  0.00  0.00    +0.000 OA
BRANCH  23  26
ATOM     26  C   UNL     1      -2.982  11.511  17.913  0.00  0.00    +0.000 C 
BRANCH  26  27
ATOM     27  C   UNL     1      -3.655  12.035  19.153  0.00  0.00    +0.000 C 
ATOM     28  O   UNL     1      -3.035  12.371  20.160  0.00  0.00    +0.000 OA
ATOM     29  N   UNL     1      -5.049  12.053  19.137  0.00  0.00    +0.000 N 
ATOM     30  C   UNL     1      -5.898  11.541  18.054  0.00  0.00    +0.000 C 
ATOM     31  C   UNL     1      -7.208  12.330  17.941  0.00  0.00    +0.000 C 
ATOM     32  O   UNL     1      -7.872  12.448  19.206  0.00  0.00    +0.000 OA
ATOM     33  C   UNL     1      -7.027  13.112  20.158  0.00  0.00    +0.000 C 
ATOM     34  C   UNL     1      -5.761  12.292  20.399  0.00  0.00    +0.000 C 
ENDBRANCH  26  27
ENDBRANCH  23  26
ENDBRANCH   6  23
TORSDOF 5
ENDMDL
MODEL 3
REMARK VINA RESULT:      -7.9      2.312      3.038
REMARK  Name = 
REMARK  5 active torsions:
REMARK  status: ('A' for Active; 'I' for Inactive)
REMARK    1  A    between atoms: C_5  and  C_6
REMARK    2  A    between atoms: C_9  and  C_10
REMARK    3  A    between atoms: C_15  and  S_16
REMARK    4  A    between atoms: S_16  and  C_19
REMARK    5  A    between atoms: C_19  and  C_20
REMARK                            x       y       z     vdW  Elec       q    Type
REMARK                         _______ _______ _______ _____ _____    ______ ____
ROOT
ATOM      1  C   UNL     1       0.644   9.325  20.991  0.00  0.00    +0.000 A 
ATOM      2  C   UNL     1       0.801   9.048  22.377  0.00  0.00    +0.000 A 
ATOM      3  C   UNL     1       0.042   9.664  23.375  0.00  0.00    +0.000 A 
ATOM      4  C   UNL     1      -0.911  10.600  23.029  0.00  0.00    +0.000 A 
ATOM      5  C   UNL     1      -1.085  10.930  21.688  0.00  0.00    +0.000 A 
ATOM      6  C   UNL     1      -0.302  10.343  20.669  0.00  0.00    +0.000 A 
ENDROOT
BRANCH   1  10
ATOM      7  C   UNL     1       3.080   6.923  18.220  0.00  0.00    +0.000 A 
ATOM      8  C   UNL     1       2.559   8.176  17.859  0.00  0.00    +0.000 A 
ATOM      9  C   UNL     1       1.788   8.936  18.761  0.00  0.00    +0.000 A 
ATOM     10  C   UNL     1       1.422   8.463  20.040  0.00  0.00    +0.000 A 
ATOM     11  C   UNL     1       1.824   7.157  20.314  0.00  0.00    +0.000 A 
ATOM     12  C   UNL     1       2.675   6.442  19.468  0.00  0.00    +0.000 A 
ATOM     13  F   UNL     1       3.121   5.259  19.918  0.00  0.00    +0.000 F 
BRANCH   7  18
ATOM     14  N   UNL     1       6.440   4.114  14.750  0.00  0.00    +0.000 N 
ATOM     15  C   UNL     1       5.666   4.792  15.666  0.00  0.00    +0.000 A 
ATOM     16  N   UNL     1       4.752   4.097  16.346  0.00  0.00    +0.000 NA
ATOM     17  C   UNL     1       3.955   4.806  17.174  0.00  0.00    +0.000 A 
ATOM     18  C   UNL     1       4.014   6.180  17.359  0.00  0.00    +0.000 A 
ATOM     19  C   UNL     1       5.012   6.768  16.601  0.00  0.00    +0.000 A 
ATOM     20  N   UNL     1       5.830   6.110  15.751  0.00  0.00    +0.000 NA
ATOM     21  H   UNL     1       5.946   3.282  14.457  0.00  0.00    +0.000 HD
ATOM     22  H   UNL     1       6.719   4.760  14.025  0.00  0.00    +0.000 HD
ENDBRANCH   7  18
ENDBRANCH   1  10
BRANCH   6  23
ATOM     23  S   UNL     1      -0.628  10.875  18.985  0.00  0.00    +0.000 S 
ATOM     24  O   UNL     1       0.542  11.563  18.473  0.00  0.00    +0.000 OA
ATOM     25  O   UNL     1      -1.145   9.699  18.303  0.00  0.00    +0.000 OA
BRANCH  23  26
ATOM     26  C   UNL     1      -1.922  12.058  18.916  0.00  0.00    +0.000 C 
BRANCH  26  27
ATOM     27  C   UNL     1      -3.041  11.678  17.985  0.00  0.00    +0.000 C 
ATOM     28  O   UNL     1      -2.850  11.278  16.838  0.00  0.00    +0.000 OA
ATOM     29  N   UNL     1      -4.336  11.874  18.464  0.00  0.00    +0.000 N 
ATOM     30  C   UNL     1      -4.686  12.481  19.754  0.00  0.00    +0.000 C 
ATOM     31  C   UNL     1      -5.990  11.900  20.317  0.00  0.00    +0.000 C 
ATOM     32  O   UNL     1      -7.046  11.920  19.349  0.00  0.00    +0.000 OA
ATOM     33  C   UNL     1      -6.679  11.160  18.187  0.00  0.00    +0.000 C 
ATOM     34  C   UNL     1      -5.454  11.781  17.518  0.00  0.00    +0.000 C 
ENDBRANCH  26  27
ENDBRANCH  23  26
ENDBRANCH   6  23
TORSDOF 5
ENDMDL
MODEL 4
REMARK VINA RESULT:      -7.9      5.224     10.532
REMARK  Name = 
REMARK  5 active torsions:
REMARK  status: ('A' for Active; 'I' for Inactive)
REMARK    1  A    between atoms: C_5  and  C_6
REMARK    2  A    between atoms: C_9  and  C_10
REMARK    3  A    between atoms: C_15  and  S_16
REMARK    4  A    between atoms: S_16  and  C_19
REMARK    5  A    between atoms: C_19  and  C_20
REMARK                            x       y       z     vdW  Elec       q    Type
REMARK                         _______ _______ _______ _____ _____    ______ ____
ROOT
ATOM      1  C   UNL     1       2.333   4.857  18.507  0.00  0.00    +0.000 A 
ATOM      2  C   UNL     1       1.278   3.930  18.732  0.00  0.00    +0.000 A 
ATOM      3  C   UNL     1       1.407   2.555  18.528  0.00  0.00    +0.000 A 
ATOM      4  C   UNL     1       2.605   2.040  18.078  0.00  0.00    +0.000 A 
ATOM      5  C   UNL     1       3.661   2.907  17.814  0.00  0.00    +0.000 A 
ATOM      6  C   UNL     1       3.537   4.304  17.981  0.00  0.00    +0.000 A 
ENDROOT
BRANCH   1  10
ATOM      7  C   UNL     1       1.422   9.012  19.643  0.00  0.00    +0.000 A 
ATOM      8  C   UNL     1       1.731   8.652  18.322  0.00  0.00    +0.000 A 
ATOM      9  C   UNL     1       2.012   7.316  17.973  0.00  0.00    +0.000 A 
ATOM     10  C   UNL     1       2.082   6.276  18.926  0.00  0.00    +0.000 A 
ATOM     11  C   UNL     1       1.922   6.688  20.248  0.00  0.00    +0.000 A 
ATOM     12  C   UNL     1       1.541   7.989  20.586  0.00  0.00    +0.000 A 
ATOM     13  F   UNL     1       1.260   8.219  21.878  0.00  0.00    +0.000 F 
BRANCH   7  18
ATOM     14  N   UNL     1      -0.533  14.063  21.017  0.00  0.00    +0.000 N 
ATOM     15  C   UNL     1       0.024  12.851  20.672  0.00  0.00    +0.000 A 
ATOM     16  N   UNL     1       0.078  12.536  19.377  0.00  0.00    +0.000 NA
ATOM     17  C   UNL     1       0.554  11.307  19.079  0.00  0.00    +0.000 A 
ATOM     18  C   UNL     1       0.974  10.366  20.007  0.00  0.00    +0.000 A 
ATOM     19  C   UNL     1       0.873  10.830  21.307  0.00  0.00    +0.000 A 
ATOM     20  N   UNL     1       0.397  12.044  21.662  0.00  0.00    +0.000 NA
ATOM     21  H   UNL     1      -1.158  14.358  20.279  0.00  0.00    +0.000 HD
ATOM     22  H   UNL     1      -0.927  13.982  21.945  0.00  0.00    +0.000 HD
ENDBRANCH   7  18
ENDBRANCH   1  10
BRANCH   6  23
ATOM     23  S   UNL     1       4.979   5.301  17.589  0.00  0.00    +0.000 S 
ATOM     24  O   UNL     1       4.612   6.293  16.596  0.00  0.00    +0.000 OA
ATOM     25  O   UNL     1       5.523   5.713  18.873  0.00  0.00    +0.000 OA
BRANCH  23  26
ATOM     26  C   UNL     1       6.244   4.346  16.835  0.00  0.00    +0.000 C 
BRANCH  26  27
ATOM     27  C   UNL     1       7.042   5.101  15.807  0.00  0.00    +0.000 C 
ATOM     28  O   UNL     1       7.809   6.017  16.096  0.00  0.00    +0.000 OA
ATOM     29  N   UNL     1       6.812   4.759  14.475  0.00  0.00    +0.000 N 
ATOM     30  C   UNL     1       5.816   3.789  14.002  0.00  0.00    +0.000 C 
ATOM     31  C   UNL     1       6.278   3.085  12.719  0.00  0.00    +0.000 C 
ATOM     32  O   UNL     1       6.712   4.019  11.723  0.00  0.00    +0.000 OA
ATOM     33  C   UNL     1       7.802   4.813  12.218  0.00  0.00    +0.000 C 
ATOM     34  C   UNL     1       7.349   5.633  13.425  0.00  0.00    +0.000 C 
ENDBRANCH  26  27
ENDBRANCH  23  26
ENDBRANCH   6  23
TORSDOF 5
ENDMDL
MODEL 5
REMARK VINA RESULT:      -7.8      4.896     10.474
REMARK  Name = 
REMARK  5 active torsions:
REMARK  status: ('A' for Active; 'I' for Inactive)
REMARK    1  A    between atoms: C_5  and  C_6
REMARK    2  A    between atoms: C_9  and  C_10
REMARK    3  A    between atoms: C_15  and  S_16
REMARK    4  A    between atoms: S_16  and  C_19
REMARK    5  A    between atoms: C_19  and  C_20
REMARK                            x       y       z     vdW  Elec       q    Type
REMARK                         _______ _______ _______ _____ _____    ______ ____
ROOT
ATOM      1  C   UNL     1       2.295   5.094  19.283  0.00  0.00    +0.000 A 
ATOM      2  C   UNL     1       1.326   4.282  19.936  0.00  0.00    +0.000 A 
ATOM      3  C   UNL     1       1.498   2.915  20.164  0.00  0.00    +0.000 A 
ATOM      4  C   UNL     1       2.651   2.290  19.738  0.00  0.00    +0.000 A 
ATOM      5  C   UNL     1       3.619   3.033  19.067  0.00  0.00    +0.000 A 
ATOM      6  C   UNL     1       3.447   4.408  18.797  0.00  0.00    +0.000 A 
ENDROOT
BRANCH   1  10
ATOM      7  C   UNL     1       1.346   9.390  19.115  0.00  0.00    +0.000 A 
ATOM      8  C   UNL     1       1.741   8.669  17.977  0.00  0.00    +0.000 A 
ATOM      9  C   UNL     1       2.034   7.293  18.046  0.00  0.00    +0.000 A 
ATOM     10  C   UNL     1       2.029   6.571  19.259  0.00  0.00    +0.000 A 
ATOM     11  C   UNL     1       1.782   7.342  20.393  0.00  0.00    +0.000 A 
ATOM     12  C   UNL     1       1.391   8.681  20.319  0.00  0.00    +0.000 A 
ATOM     13  F   UNL     1       1.024   9.269  21.468  0.00  0.00    +0.000 F 
BRANCH   7  18
ATOM     14  N   UNL     1      -0.451  14.654  18.583  0.00  0.00    +0.000 N 
ATOM     15  C   UNL     1       0.016  13.375  18.791  0.00  0.00    +0.000 A 
ATOM     16  N   UNL     1       1.286  13.116  18.476  0.00  0.00    +0.000 NA
ATOM     17  C   UNL     1       1.688  11.833  18.614  0.00  0.00    +0.000 A 
ATOM     18  C   UNL     1       0.887  10.787  19.045  0.00  0.00    +0.000 A 
ATOM     19  C   UNL     1      -0.400  11.200  19.346  0.00  0.00    +0.000 A 
ATOM     20  N   UNL     1      -0.857  12.465  19.218  0.00  0.00    +0.000 NA
ATOM     21  H   UNL     1       0.117  15.098  17.875  0.00  0.00    +0.000 HD
ATOM     22  H   UNL     1      -1.446  14.608  18.411  0.00  0.00    +0.000 HD
ENDBRANCH   7  18
ENDBRANCH   1  10
BRANCH   6  23
ATOM     23  S   UNL     1       4.772   5.235  17.911  0.00  0.00    +0.000 S 
ATOM     24  O   UNL     1       4.197   6.097  16.896  0.00  0.00    +0.000 OA
ATOM     25  O   UNL     1       5.638   5.788  18.941  0.00  0.00    +0.000 OA
BRANCH  23  26
ATOM     26  C   UNL     1       5.773   4.095  17.028  0.00  0.00    +0.000 C 
BRANCH  26  27
ATOM     27  C   UNL     1       6.829   4.748  16.177  0.00  0.00    +0.000 C 
ATOM     28  O   UNL     1       7.756   5.404  16.648  0.00  0.00    +0.000 OA
ATOM     29  N   UNL     1       6.664   4.638  14.797  0.00  0.00    +0.000 N 
ATOM     30  C   UNL     1       5.522   4.010  14.121  0.00  0.00    +0.000 C 
ATOM     31  C   UNL     1       5.935   3.374  12.787  0.00  0.00    +0.000 C 
ATOM     32  O   UNL     1       6.678   4.285  11.967  0.00  0.00    +0.000 OA
ATOM     33  C   UNL     1       7.866   4.719  12.647  0.00  0.00    +0.000 C 
ATOM     34  C   UNL     1       7.497   5.472  13.923  0.00  0.00    +0.000 C 
ENDBRANCH  26  27
ENDBRANCH  23  26
ENDBRANCH   6  23
TORSDOF 5
ENDMDL
MODEL 6
REMARK VINA RESULT:      -7.8      1.081      1.432
REMARK  Name = 
REMARK  5 active torsions:
REMARK  status: ('A' for Active; 'I' for Inactive)
REMARK    1  A    between atoms: C_5  and  C_6
REMARK    2  A    between atoms: C_9  and  C_10
REMARK    3  A    between atoms: C_15  and  S_16
REMARK    4  A    between atoms: S_16  and  C_19
REMARK    5  A    between atoms: C_19  and  C_20
REMARK                            x       y       z     vdW  Elec       q    Type
REMARK                         _______ _______ _______ _____ _____    ______ ____
ROOT
ATOM      1  C   UNL     1       1.483  11.271  18.688  0.00  0.00    +0.000 A 
ATOM      2  C   UNL     1       2.551  12.058  18.173  0.00  0.00    +0.000 A 
ATOM      3  C   UNL     1       2.553  13.454  18.190  0.00  0.00    +0.000 A 
ATOM      4  C   UNL     1       1.475  14.133  18.718  0.00  0.00    +0.000 A 
ATOM      5  C   UNL     1       0.390  13.412  19.208  0.00  0.00    +0.000 A 
ATOM      6  C   UNL     1       0.355  12.000  19.167  0.00  0.00    +0.000 A 
ENDROOT
BRANCH   1  10
ATOM      7  C   UNL     1       2.330   6.952  18.810  0.00  0.00    +0.000 A 
ATOM      8  C   UNL     1       2.388   7.689  17.617  0.00  0.00    +0.000 A 
ATOM      9  C   UNL     1       2.123   9.073  17.596  0.00  0.00    +0.000 A 
ATOM     10  C   UNL     1       1.706   9.788  18.740  0.00  0.00    +0.000 A 
ATOM     11  C   UNL     1       1.510   9.004  19.875  0.00  0.00    +0.000 A 
ATOM     12  C   UNL     1       1.871   7.655  19.927  0.00  0.00    +0.000 A 
ATOM     13  F   UNL     1       1.786   7.052  21.122  0.00  0.00    +0.000 F 
BRANCH   7  18
ATOM     14  N   UNL     1       4.031   1.630  18.857  0.00  0.00    +0.000 N 
ATOM     15  C   UNL     1       3.575   2.928  18.918  0.00  0.00    +0.000 A 
ATOM     16  N   UNL     1       2.386   3.197  18.376  0.00  0.00    +0.000 NA
ATOM     17  C   UNL     1       2.005   4.493  18.379  0.00  0.00    +0.000 A 
ATOM     18  C   UNL     1       2.752   5.544  18.889  0.00  0.00    +0.000 A 
ATOM     19  C   UNL     1       3.955   5.120  19.428  0.00  0.00    +0.000 A 
ATOM     20  N   UNL     1       4.389   3.840  19.443  0.00  0.00    +0.000 NA
ATOM     21  H   UNL     1       3.580   1.160  18.084  0.00  0.00    +0.000 HD
ATOM     22  H   UNL     1       5.042   1.645  18.857  0.00  0.00    +0.000 HD
ENDBRANCH   7  18
ENDBRANCH   1  10
BRANCH   6  23
ATOM     23  S   UNL     1      -1.114  11.204  19.823  0.00  0.00    +0.000 S 
ATOM     24  O   UNL     1      -1.457  10.075  18.977  0.00  0.00    +0.000 OA
ATOM     25  O   UNL     1      -0.846  11.006  21.239  0.00  0.00    +0.000 OA
BRANCH  23  26
ATOM     26  C   UNL     1      -2.511  12.264  19.759  0.00  0.00    +0.000 C 
BRANCH  26  27
ATOM     27  C   UNL     1      -3.477  11.930  18.654  0.00  0.00    +0.000 C 
ATOM     28  O   UNL     1      -3.120  11.710  17.498  0.00  0.00    +0.000 OA
ATOM     29  N   UNL     1      -4.829  11.954  18.989  0.00  0.00    +0.000 N 
ATOM     30  C   UNL     1      -5.380  12.346  20.292  0.00  0.00    +0.000 C 
ATOM     31  C   UNL     1      -6.678  11.591  20.609  0.00  0.00    +0.000 C 
ATOM     32  O   UNL     1      -7.615  11.661  19.527  0.00  0.00    +0.000 OA
ATOM     33  C   UNL     1      -7.047  11.102  18.332  0.00  0.00    +0.000 C 
ATOM     34  C   UNL     1      -5.820  11.905  17.907  0.00  0.00    +0.000 C 
ENDBRANCH  26  27
ENDBRANCH  23  26
ENDBRANCH   6  23
TORSDOF 5
ENDMDL
MODEL 7
REMARK VINA RESULT:      -7.7      5.298     10.300
REMARK  Name = 
REMARK  5 active torsions:
REMARK  status: ('A' for Active; 'I' for Inactive)
REMARK    1  A    between atoms: C_5  and  C_6
REMARK    2  A    between atoms: C_9  and  C_10
REMARK    3  A    between atoms: C_15  and  S_16
REMARK    4  A    between atoms: S_16  and  C_19
REMARK    5  A    between atoms: C_19  and  C_20
REMARK                            x       y       z     vdW  Elec       q    Type
REMARK                         _______ _______ _______ _____ _____    ______ ____
ROOT
ATOM      1  C   UNL     1       2.616   4.625  18.679  0.00  0.00    +0.000 A 
ATOM      2  C   UNL     1       1.504   3.738  18.669  0.00  0.00    +0.000 A 
ATOM      3  C   UNL     1       1.632   2.347  18.649  0.00  0.00    +0.000 A 
ATOM      4  C   UNL     1       2.888   1.776  18.627  0.00  0.00    +0.000 A 
ATOM      5  C   UNL     1       4.009   2.600  18.606  0.00  0.00    +0.000 A 
ATOM      6  C   UNL     1       3.898   4.008  18.590  0.00  0.00    +0.000 A 
ENDROOT
BRANCH   1  10
ATOM      7  C   UNL     1       1.547   8.873  19.125  0.00  0.00    +0.000 A 
ATOM      8  C   UNL     1       1.905   8.321  17.885  0.00  0.00    +0.000 A 
ATOM      9  C   UNL     1       2.236   6.958  17.757  0.00  0.00    +0.000 A 
ATOM     10  C   UNL     1       2.310   6.083  18.863  0.00  0.00    +0.000 A 
ATOM     11  C   UNL     1       2.099   6.691  20.100  0.00  0.00    +0.000 A 
ATOM     12  C   UNL     1       1.670   8.014  20.220  0.00  0.00    +0.000 A 
ATOM     13  F   UNL     1       1.344   8.434  21.453  0.00  0.00    +0.000 F 
BRANCH   7  18
ATOM     14  N   UNL     1      -0.457  14.081  19.394  0.00  0.00    +0.000 N 
ATOM     15  C   UNL     1       0.077  12.812  19.398  0.00  0.00    +0.000 A 
ATOM     16  N   UNL     1       1.247  12.626  18.785  0.00  0.00    +0.000 NA
ATOM     17  C   UNL     1       1.703  11.356  18.736  0.00  0.00    +0.000 A 
ATOM     18  C   UNL     1       1.049  10.251  19.261  0.00  0.00    +0.000 A 
ATOM     19  C   UNL     1      -0.144  10.591  19.875  0.00  0.00    +0.000 A 
ATOM     20  N   UNL     1      -0.651  11.842  19.945  0.00  0.00    +0.000 NA
ATOM     21  H   UNL     1      -0.079  14.593  18.609  0.00  0.00    +0.000 HD
ATOM     22  H   UNL     1      -1.464  14.006  19.448  0.00  0.00    +0.000 HD
ENDBRANCH   7  18
ENDBRANCH   1  10
BRANCH   6  23
ATOM     23  S   UNL     1       5.430   4.944  18.549  0.00  0.00    +0.000 S 
ATOM     24  O   UNL     1       5.538   5.728  19.765  0.00  0.00    +0.000 OA
ATOM     25  O   UNL     1       6.462   3.979  18.204  0.00  0.00    +0.000 OA
BRANCH  23  26
ATOM     26  C   UNL     1       5.439   6.118  17.244  0.00  0.00    +0.000 C 
BRANCH  26  27
ATOM     27  C   UNL     1       6.605   5.970  16.304  0.00  0.00    +0.000 C 
ATOM     28  O   UNL     1       7.712   6.454  16.530  0.00  0.00    +0.000 OA
ATOM     29  N   UNL     1       6.349   5.309  15.104  0.00  0.00    +0.000 N 
ATOM     30  C   UNL     1       5.037   4.821  14.660  0.00  0.00    +0.000 C 
ATOM     31  C   UNL     1       5.166   3.564  13.789  0.00  0.00    +0.000 C 
ATOM     32  O   UNL     1       6.118   3.742  12.732  0.00  0.00    +0.000 OA
ATOM     33  C   UNL     1       7.413   4.053  13.269  0.00  0.00    +0.000 C 
ATOM     34  C   UNL     1       7.359   5.370  14.041  0.00  0.00    +0.000 C 
ENDBRANCH  26  27
ENDBRANCH  23  26
ENDBRANCH   6  23
TORSDOF 5
ENDMDL
MODEL 8
REMARK VINA RESULT:      -7.6      3.580      6.053
REMARK  Name = 
REMARK  5 active torsions:
REMARK  status: ('A' for Active; 'I' for Inactive)
REMARK    1  A    between atoms: C_5  and  C_6
REMARK    2  A    between atoms: C_9  and  C_10
REMARK    3  A    between atoms: C_15  and  S_16
REMARK    4  A    between atoms: S_16  and  C_19
REMARK    5  A    between atoms: C_19  and  C_20
REMARK                            x       y       z     vdW  Elec       q    Type
REMARK                         _______ _______ _______ _____ _____    ______ ____
ROOT
ATOM      1  C   UNL     1      -0.348  10.575  19.137  0.00  0.00    +0.000 A 
ATOM      2  C   UNL     1      -1.599  10.334  18.505  0.00  0.00    +0.000 A 
ATOM      3  C   UNL     1      -2.529  11.339  18.233  0.00  0.00    +0.000 A 
ATOM      4  C   UNL     1      -2.252  12.642  18.593  0.00  0.00    +0.000 A 
ATOM      5  C   UNL     1      -1.054  12.928  19.241  0.00  0.00    +0.000 A 
ATOM      6  C   UNL     1      -0.118  11.919  19.555  0.00  0.00    +0.000 A 
ENDROOT
BRANCH   1  10
ATOM      7  C   UNL     1       2.284   7.052  19.360  0.00  0.00    +0.000 A 
ATOM      8  C   UNL     1       1.525   7.486  20.458  0.00  0.00    +0.000 A 
ATOM      9  C   UNL     1       0.681   8.610  20.368  0.00  0.00    +0.000 A 
ATOM     10  C   UNL     1       0.602   9.416  19.211  0.00  0.00    +0.000 A 
ATOM     11  C   UNL     1       1.479   9.053  18.190  0.00  0.00    +0.000 A 
ATOM     12  C   UNL     1       2.238   7.881  18.236  0.00  0.00    +0.000 A 
ATOM     13  F   UNL     1       2.918   7.558  17.125  0.00  0.00    +0.000 F 
BRANCH   7  18
ATOM     14  N   UNL     1       5.237   2.321  19.694  0.00  0.00    +0.000 N 
ATOM     15  C   UNL     1       4.508   3.478  19.529  0.00  0.00    +0.000 A 
ATOM     16  N   UNL     1       5.178   4.620  19.367  0.00  0.00    +0.000 NA
ATOM     17  C   UNL     1       4.435   5.745  19.291  0.00  0.00    +0.000 A 
ATOM     18  C   UNL     1       3.051   5.797  19.378  0.00  0.00    +0.000 A 
ATOM     19  C   UNL     1       2.488   4.542  19.535  0.00  0.00    +0.000 A 
ATOM     20  N   UNL     1       3.184   3.386  19.625  0.00  0.00    +0.000 NA
ATOM     21  H   UNL     1       6.154   2.560  20.047  0.00  0.00    +0.000 HD
ATOM     22  H   UNL     1       4.690   1.672  20.243  0.00  0.00    +0.000 HD
ENDBRANCH   7  18
ENDBRANCH   1  10
BRANCH   6  23
ATOM     23  S   UNL     1       1.378  12.433  20.406  0.00  0.00    +0.000 S 
ATOM     24  O   UNL     1       1.572  11.591  21.572  0.00  0.00    +0.000 OA
ATOM     25  O   UNL     1       2.401  12.507  19.375  0.00  0.00    +0.000 OA
BRANCH  23  26
ATOM     26  C   UNL     1       1.238  14.064  21.038  0.00  0.00    +0.000 C 
BRANCH  26  27
ATOM     27  C   UNL     1       2.562  14.720  21.322  0.00  0.00    +0.000 C 
ATOM     28  O   UNL     1       3.175  14.560  22.376  0.00  0.00    +0.000 OA
ATOM     29  N   UNL     1       3.038  15.595  20.348  0.00  0.00    +0.000 N 
ATOM     30  C   UNL     1       2.327  15.978  19.122  0.00  0.00    +0.000 C 
ATOM     31  C   UNL     1       3.299  16.274  17.973  0.00  0.00    +0.000 C 
ATOM     32  O   UNL     1       4.330  17.189  18.367  0.00  0.00    +0.000 OA
ATOM     33  C   UNL     1       5.083  16.655  19.467  0.00  0.00    +0.000 C 
ATOM     34  C   UNL     1       4.175  16.463  20.681  0.00  0.00    +0.000 C 
ENDBRANCH  26  27
ENDBRANCH  23  26
ENDBRANCH   6  23
TORSDOF 5
ENDMDL
MODEL 9
REMARK VINA RESULT:      -7.6      5.176     10.372
REMARK  Name = 
REMARK  5 active torsions:
REMARK  status: ('A' for Active; 'I' for Inactive)
REMARK    1  A    between atoms: C_5  and  C_6
REMARK    2  A    between atoms: C_9  and  C_10
REMARK    3  A    between atoms: C_15  and  S_16
REMARK    4  A    between atoms: S_16  and  C_19
REMARK    5  A    between atoms: C_19  and  C_20
REMARK                            x       y       z     vdW  Elec       q    Type
REMARK                         _______ _______ _______ _____ _____    ______ ____
ROOT
ATOM      1  C   UNL     1       2.801   4.675  18.934  0.00  0.00    +0.000 A 
ATOM      2  C   UNL     1       1.740   3.759  19.178  0.00  0.00    +0.000 A 
ATOM      3  C   UNL     1       1.931   2.385  19.332  0.00  0.00    +0.000 A 
ATOM      4  C   UNL     1       3.202   1.857  19.240  0.00  0.00    +0.000 A 
ATOM      5  C   UNL     1       4.273   2.705  18.974  0.00  0.00    +0.000 A 
ATOM      6  C   UNL     1       4.094   4.093  18.780  0.00  0.00    +0.000 A 
ENDROOT
BRANCH   1  10
ATOM      7  C   UNL     1       1.600   8.911  18.889  0.00  0.00    +0.000 A 
ATOM      8  C   UNL     1       2.042   8.249  17.732  0.00  0.00    +0.000 A 
ATOM      9  C   UNL     1       2.414   6.890  17.762  0.00  0.00    +0.000 A 
ATOM     10  C   UNL     1       2.448   6.133  18.953  0.00  0.00    +0.000 A 
ATOM     11  C   UNL     1       2.152   6.855  20.108  0.00  0.00    +0.000 A 
ATOM     12  C   UNL     1       1.683   8.170  20.071  0.00  0.00    +0.000 A 
ATOM     13  F   UNL     1       1.278   8.700  21.235  0.00  0.00    +0.000 F 
BRANCH   7  18
ATOM     14  N   UNL     1      -0.470  14.085  18.498  0.00  0.00    +0.000 N 
ATOM     15  C   UNL     1       0.053  12.824  18.675  0.00  0.00    +0.000 A 
ATOM     16  N   UNL     1       1.367  12.665  18.511  0.00  0.00    +0.000 NA
ATOM     17  C   UNL     1       1.836  11.402  18.610  0.00  0.00    +0.000 A 
ATOM     18  C   UNL     1       1.060  10.279  18.857  0.00  0.00    +0.000 A 
ATOM     19  C   UNL     1      -0.280  10.592  19.016  0.00  0.00    +0.000 A 
ATOM     20  N   UNL     1      -0.802  11.834  18.919  0.00  0.00    +0.000 NA
ATOM     21  H   UNL     1       0.151  14.617  17.903  0.00  0.00    +0.000 HD
ATOM     22  H   UNL     1      -1.429  13.995  18.194  0.00  0.00    +0.000 HD
ENDBRANCH   7  18
ENDBRANCH   1  10
BRANCH   6  23
ATOM     23  S   UNL     1       5.564   5.062  18.430  0.00  0.00    +0.000 S 
ATOM     24  O   UNL     1       5.580   6.227  19.295  0.00  0.00    +0.000 OA
ATOM     25  O   UNL     1       6.666   4.113  18.456  0.00  0.00    +0.000 OA
BRANCH  23  26
ATOM     26  C   UNL     1       5.545   5.706  16.797  0.00  0.00    +0.000 C 
BRANCH  26  27
ATOM     27  C   UNL     1       5.125   4.704  15.756  0.00  0.00    +0.000 C 
ATOM     28  O   UNL     1       4.101   4.030  15.850  0.00  0.00    +0.000 OA
ATOM     29  N   UNL     1       6.007   4.513  14.693  0.00  0.00    +0.000 N 
ATOM     30  C   UNL     1       7.323   5.148  14.550  0.00  0.00    +0.000 C 
ATOM     31  C   UNL     1       7.686   5.374  13.077  0.00  0.00    +0.000 C 
ATOM     32  O   UNL     1       7.516   4.185  12.295  0.00  0.00    +0.000 OA
ATOM     33  C   UNL     1       6.155   3.730  12.360  0.00  0.00    +0.000 C 
ATOM     34  C   UNL     1       5.789   3.369  13.799  0.00  0.00    +0.000 C 
ENDBRANCH  26  27
ENDBRANCH  23  26
ENDBRANCH   6  23
TORSDOF 5
ENDMDL
