MODEL 1
REMARK VINA RESULT:      -7.7      0.000      0.000
REMARK  Name = 
REMARK  6 active torsions:
REMARK  status: ('A' for Active; 'I' for Inactive)
REMARK    1  A    between atoms: C_1  and  N_2
REMARK    2  A    between atoms: C_6  and  N_7
REMARK    3  A    between atoms: C_8  and  C_10
REMARK    4  A    between atoms: C_16  and  O_17
REMARK    5  A    between atoms: O_17  and  C_18
REMARK    6  A    between atoms: C_18  and  C_19
REMARK                            x       y       z     vdW  Elec       q    Type
REMARK                         _______ _______ _______ _____ _____    ______ ____
ROOT
ATOM      1  N   UNL     1       5.736   4.057  18.915  0.00  0.00    +0.000 N 
ATOM      2  C   UNL     1       4.476   4.136  18.347  0.00  0.00    +0.000 C 
ATOM      3  O   UNL     1       4.311   4.503  17.192  0.00  0.00    +0.000 OA
ATOM      4  H   UNL     1       5.829   3.603  19.816  0.00  0.00    +0.000 HD
ENDROOT
BRANCH   1  10
ATOM      5  C   UNL     1       7.706   7.898  17.372  0.00  0.00    +0.000 C 
ATOM      6  N   UNL     1       7.405   6.483  17.375  0.00  0.00    +0.000 N 
ATOM      7  C   UNL     1       6.903   5.807  16.302  0.00  0.00    +0.000 C 
ATOM      8  O   UNL     1       6.653   6.274  15.201  0.00  0.00    +0.000 OA
ATOM      9  C   UNL     1       6.707   4.365  16.668  0.00  0.00    +0.000 C 
ATOM     10  C   UNL     1       6.958   4.319  18.167  0.00  0.00    +0.000 C 
ATOM     11  C   UNL     1       7.464   5.715  18.499  0.00  0.00    +0.000 C 
ATOM     12  O   UNL     1       7.755   6.112  19.621  0.00  0.00    +0.000 OA
ENDBRANCH   1  10
BRANCH   2  13
ATOM     13  C   UNL     1       3.333   3.766  19.251  0.00  0.00    +0.000 A 
ATOM     14  C   UNL     1       2.874   2.434  19.360  0.00  0.00    +0.000 A 
ATOM     15 CL   UNL     1       3.445   1.123  18.380  0.00  0.00    +0.000 Cl
ATOM     16  C   UNL     1       1.885   2.088  20.286  0.00  0.00    +0.000 A 
ATOM     17  C   UNL     1       1.286   3.065  21.068  0.00  0.00    +0.000 A 
ATOM     18  C   UNL     1       1.679   4.392  20.929  0.00  0.00    +0.000 A 
ATOM     19  C   UNL     1       2.722   4.756  20.058  0.00  0.00    +0.000 A 
BRANCH  19  20
ATOM     20  O   UNL     1       3.193   6.046  19.988  0.00  0.00    +0.000 OA
BRANCH  20  21
ATOM     21  C   UNL     1       2.233   7.080  19.753  0.00  0.00    +0.000 C 
BRANCH  21  22
ATOM     22  C   UNL     1       2.170   7.366  18.285  0.00  0.00    +0.000 C 
ATOM     23  C   UNL     1       2.309   8.781  17.777  0.00  0.00    +0.000 C 
ATOM     24  C   UNL     1       3.416   7.788  17.547  0.00  0.00    +0.000 C 
ENDBRANCH  21  22
ENDBRANCH  20  21
ENDBRANCH  19  20
ENDBRANCH   2  13
TORSDOF 5
ENDMDL
MODEL 2
REMARK VINA RESULT:      -7.6      1.693      2.478
REMARK  Name = 
REMARK  6 active torsions:
REMARK  status: ('A' for Active; 'I' for Inactive)
REMARK    1  A    between atoms: C_1  and  N_2
REMARK    2  A    between atoms: C_6  and  N_7
REMARK    3  A    between atoms: C_8  and  C_10
REMARK    4  A    between atoms: C_16  and  O_17
REMARK    5  A    between atoms: O_17  and  C_18
REMARK    6  A    between atoms: C_18  and  C_19
REMARK                            x       y       z     vdW  Elec       q    Type
REMARK                         _______ _______ _______ _____ _____    ______ ____
ROOT
ATOM      1  N   UNL     1       4.435   5.641  18.153  0.00  0.00    +0.000 N 
ATOM      2  C   UNL     1       4.383   4.541  18.991  0.00  0.00    +0.000 C 
ATOM      3  O   UNL     1       5.397   3.981  19.384  0.00  0.00    +0.000 OA
ATOM      4  H   UNL     1       3.579   6.157  17.985  0.00  0.00    +0.000 HD
ENDROOT
BRANCH   1  10
ATOM      5  C   UNL     1       7.277   4.953  14.624  0.00  0.00    +0.000 C 
ATOM      6  N   UNL     1       6.920   5.362  15.964  0.00  0.00    +0.000 N 
ATOM      7  C   UNL     1       7.529   4.898  17.092  0.00  0.00    +0.000 C 
ATOM      8  O   UNL     1       8.455   4.103  17.143  0.00  0.00    +0.000 OA
ATOM      9  C   UNL     1       6.895   5.528  18.297  0.00  0.00    +0.000 C 
ATOM     10  C   UNL     1       5.686   6.265  17.745  0.00  0.00    +0.000 C 
ATOM     11  C   UNL     1       5.840   6.148  16.235  0.00  0.00    +0.000 C 
ATOM     12  O   UNL     1       5.048   6.585  15.409  0.00  0.00    +0.000 OA
ENDBRANCH   1  10
BRANCH   2  13
ATOM     13  C   UNL     1       3.004   4.071  19.362  0.00  0.00    +0.000 A 
ATOM     14  C   UNL     1       2.542   2.780  19.021  0.00  0.00    +0.000 A 
ATOM     15 CL   UNL     1       3.419   1.662  18.027  0.00  0.00    +0.000 Cl
ATOM     16  C   UNL     1       1.300   2.319  19.469  0.00  0.00    +0.000 A 
ATOM     17  C   UNL     1       0.466   3.153  20.199  0.00  0.00    +0.000 A 
ATOM     18  C   UNL     1       0.875   4.451  20.488  0.00  0.00    +0.000 A 
ATOM     19  C   UNL     1       2.149   4.914  20.114  0.00  0.00    +0.000 A 
BRANCH  19  20
ATOM     20  O   UNL     1       2.609   6.155  20.484  0.00  0.00    +0.000 OA
BRANCH  20  21
ATOM     21  C   UNL     1       1.916   7.292  19.959  0.00  0.00    +0.000 C 
BRANCH  21  22
ATOM     22  C   UNL     1       1.500   8.178  21.091  0.00  0.00    +0.000 C 
ATOM     23  C   UNL     1       0.791   9.483  20.818  0.00  0.00    +0.000 C 
ATOM     24  C   UNL     1       0.038   8.332  21.428  0.00  0.00    +0.000 C 
ENDBRANCH  21  22
ENDBRANCH  20  21
ENDBRANCH  19  20
ENDBRANCH   2  13
TORSDOF 5
ENDMDL
MODEL 3
REMARK VINA RESULT:      -7.5      1.264      1.326
REMARK  Name = 
REMARK  6 active torsions:
REMARK  status: ('A' for Active; 'I' for Inactive)
REMARK    1  A    between atoms: C_1  and  N_2
REMARK    2  A    between atoms: C_6  and  N_7
REMARK    3  A    between atoms: C_8  and  C_10
REMARK    4  A    between atoms: C_16  and  O_17
REMARK    5  A    between atoms: O_17  and  C_18
REMARK    6  A    between atoms: C_18  and  C_19
REMARK                            x       y       z     vdW  Elec       q    Type
REMARK                         _______ _______ _______ _____ _____    ______ ____
ROOT
ATOM      1  N   UNL     1       5.406   4.620  18.823  0.00  0.00    +0.000 N 
ATOM      2  C   UNL     1       4.445   3.679  18.496  0.00  0.00    +0.000 C 
ATOM      3  O   UNL     1       4.441   3.110  17.413  0.00  0.00    +0.000 OA
ATOM      4  H   UNL     1       5.455   4.944  19.781  0.00  0.00    +0.000 HD
ENDROOT
BRANCH   1  10
ATOM      5  C   UNL     1       8.617   7.890  18.914  0.00  0.00    +0.000 C 
ATOM      6  N   UNL     1       7.749   6.915  18.290  0.00  0.00    +0.000 N 
ATOM      7  C   UNL     1       6.887   7.201  17.274  0.00  0.00    +0.000 C 
ATOM      8  O   UNL     1       6.730   8.287  16.737  0.00  0.00    +0.000 OA
ATOM      9  C   UNL     1       6.145   5.956  16.884  0.00  0.00    +0.000 C 
ATOM     10  C   UNL     1       6.527   4.941  17.949  0.00  0.00    +0.000 C 
ATOM     11  C   UNL     1       7.611   5.642  18.755  0.00  0.00    +0.000 C 
ATOM     12  O   UNL     1       8.172   5.175  19.739  0.00  0.00    +0.000 OA
ENDBRANCH   1  10
BRANCH   2  13
ATOM     13  C   UNL     1       3.400   3.428  19.547  0.00  0.00    +0.000 A 
ATOM     14  C   UNL     1       3.582   2.459  20.559  0.00  0.00    +0.000 A 
ATOM     15 CL   UNL     1       4.922   1.360  20.626  0.00  0.00    +0.000 Cl
ATOM     16  C   UNL     1       2.652   2.315  21.593  0.00  0.00    +0.000 A 
ATOM     17  C   UNL     1       1.493   3.077  21.602  0.00  0.00    +0.000 A 
ATOM     18  C   UNL     1       1.264   3.990  20.579  0.00  0.00    +0.000 A 
ATOM     19  C   UNL     1       2.217   4.207  19.568  0.00  0.00    +0.000 A 
BRANCH  19  20
ATOM     20  O   UNL     1       2.054   5.180  18.611  0.00  0.00    +0.000 OA
BRANCH  20  21
ATOM     21  C   UNL     1       2.333   6.529  18.997  0.00  0.00    +0.000 C 
BRANCH  21  22
ATOM     22  C   UNL     1       2.205   7.419  17.800  0.00  0.00    +0.000 C 
ATOM     23  C   UNL     1       1.742   8.848  17.957  0.00  0.00    +0.000 C 
ATOM     24  C   UNL     1       3.174   8.556  17.601  0.00  0.00    +0.000 C 
ENDBRANCH  21  22
ENDBRANCH  20  21
ENDBRANCH  19  20
ENDBRANCH   2  13
TORSDOF 5
ENDMDL
MODEL 4
REMARK VINA RESULT:      -7.5      2.370      4.239
REMARK  Name = 
REMARK  6 active torsions:
REMARK  status: ('A' for Active; 'I' for Inactive)
REMARK    1  A    between atoms: C_1  and  N_2
REMARK    2  A    between atoms: C_6  and  N_7
REMARK    3  A    between atoms: C_8  and  C_10
REMARK    4  A    between atoms: C_16  and  O_17
REMARK    5  A    between atoms: O_17  and  C_18
REMARK    6  A    between atoms: C_18  and  C_19
REMARK                            x       y       z     vdW  Elec       q    Type
REMARK                         _______ _______ _______ _____ _____    ______ ____
ROOT
ATOM      1  N   UNL     1       3.885   6.121  18.107  0.00  0.00    +0.000 N 
ATOM      2  C   UNL     1       2.510   6.106  18.271  0.00  0.00    +0.000 C 
ATOM      3  O   UNL     1       1.792   5.355  17.627  0.00  0.00    +0.000 OA
ATOM      4  H   UNL     1       4.442   6.646  18.770  0.00  0.00    +0.000 HD
ENDROOT
BRANCH   1  10
ATOM      5  C   UNL     1       8.137   4.411  18.101  0.00  0.00    +0.000 C 
ATOM      6  N   UNL     1       6.887   4.829  17.507  0.00  0.00    +0.000 N 
ATOM      7  C   UNL     1       6.790   5.719  16.479  0.00  0.00    +0.000 C 
ATOM      8  O   UNL     1       7.717   6.272  15.907  0.00  0.00    +0.000 OA
ATOM      9  C   UNL     1       5.345   5.921  16.128  0.00  0.00    +0.000 C 
ATOM     10  C   UNL     1       4.585   5.196  17.227  0.00  0.00    +0.000 C 
ATOM     11  C   UNL     1       5.671   4.476  18.013  0.00  0.00    +0.000 C 
ATOM     12  O   UNL     1       5.484   3.794  19.013  0.00  0.00    +0.000 OA
ENDBRANCH   1  10
BRANCH   2  13
ATOM     13  C   UNL     1       1.966   7.087  19.272  0.00  0.00    +0.000 A 
ATOM     14  C   UNL     1       1.706   8.432  18.927  0.00  0.00    +0.000 A 
ATOM     15 CL   UNL     1       2.115   9.144  17.400  0.00  0.00    +0.000 Cl
ATOM     16  C   UNL     1       1.097   9.303  19.836  0.00  0.00    +0.000 A 
ATOM     17  C   UNL     1       0.801   8.876  21.122  0.00  0.00    +0.000 A 
ATOM     18  C   UNL     1       1.110   7.574  21.502  0.00  0.00    +0.000 A 
ATOM     19  C   UNL     1       1.654   6.657  20.585  0.00  0.00    +0.000 A 
BRANCH  19  20
ATOM     20  O   UNL     1       1.866   5.339  20.913  0.00  0.00    +0.000 OA
BRANCH  20  21
ATOM     21  C   UNL     1       0.817   4.414  20.610  0.00  0.00    +0.000 C 
BRANCH  21  22
ATOM     22  C   UNL     1       1.294   3.023  20.889  0.00  0.00    +0.000 C 
ATOM     23  C   UNL     1       2.028   2.241  19.827  0.00  0.00    +0.000 C 
ATOM     24  C   UNL     1       2.769   2.749  21.033  0.00  0.00    +0.000 C 
ENDBRANCH  21  22
ENDBRANCH  20  21
ENDBRANCH  19  20
ENDBRANCH   2  13
TORSDOF 5
ENDMDL
MODEL 5
REMARK VINA RESULT:      -7.5      1.035      1.273
REMARK  Name = 
REMARK  6 active torsions:
REMARK  status: ('A' for Active; 'I' for Inactive)
REMARK    1  A    between atoms: C_1  and  N_2
REMARK    2  A    between atoms: C_6  and  N_7
REMARK    3  A    between atoms: C_8  and  C_10
REMARK    4  A    between atoms: C_16  and  O_17
REMARK    5  A    between atoms: O_17  and  C_18
REMARK    6  A    between atoms: C_18  and  C_19
REMARK                            x       y       z     vdW  Elec       q    Type
REMARK                         _______ _______ _______ _____ _____    ______ ____
ROOT
ATOM      1  N   UNL     1       5.562   4.688  18.802  0.00  0.00    +0.000 N 
ATOM      2  C   UNL     1       4.529   4.033  18.155  0.00  0.00    +0.000 C 
ATOM      3  O   UNL     1       4.619   3.683  16.986  0.00  0.00    +0.000 OA
ATOM      4  H   UNL     1       5.497   4.815  19.805  0.00  0.00    +0.000 HD
ENDROOT
BRANCH   1  10
ATOM      5  C   UNL     1       8.703   7.990  19.298  0.00  0.00    +0.000 C 
ATOM      6  N   UNL     1       7.989   6.948  18.592  0.00  0.00    +0.000 N 
ATOM      7  C   UNL     1       7.383   7.122  17.384  0.00  0.00    +0.000 C 
ATOM      8  O   UNL     1       7.363   8.149  16.721  0.00  0.00    +0.000 OA
ATOM      9  C   UNL     1       6.735   5.837  16.960  0.00  0.00    +0.000 C 
ATOM     10  C   UNL     1       6.855   4.935  18.178  0.00  0.00    +0.000 C 
ATOM     11  C   UNL     1       7.735   5.725  19.137  0.00  0.00    +0.000 C 
ATOM     12  O   UNL     1       8.053   5.364  20.263  0.00  0.00    +0.000 OA
ENDBRANCH   1  10
BRANCH   2  13
ATOM     13  C   UNL     1       3.290   3.805  18.976  0.00  0.00    +0.000 A 
ATOM     14  C   UNL     1       2.844   2.505  19.303  0.00  0.00    +0.000 A 
ATOM     15 CL   UNL     1       3.555   1.047  18.687  0.00  0.00    +0.000 Cl
ATOM     16  C   UNL     1       1.756   2.312  20.158  0.00  0.00    +0.000 A 
ATOM     17  C   UNL     1       1.048   3.400  20.647  0.00  0.00    +0.000 A 
ATOM     18  C   UNL     1       1.432   4.687  20.284  0.00  0.00    +0.000 A 
ATOM     19  C   UNL     1       2.567   4.911  19.485  0.00  0.00    +0.000 A 
BRANCH  19  20
ATOM     20  O   UNL     1       3.021   6.179  19.206  0.00  0.00    +0.000 OA
BRANCH  20  21
ATOM     21  C   UNL     1       2.302   6.927  18.221  0.00  0.00    +0.000 C 
BRANCH  21  22
ATOM     22  C   UNL     1       2.439   8.388  18.519  0.00  0.00    +0.000 C 
ATOM     23  C   UNL     1       1.617   9.402  17.762  0.00  0.00    +0.000 C 
ATOM     24  C   UNL     1       1.319   9.123  19.209  0.00  0.00    +0.000 C 
ENDBRANCH  21  22
ENDBRANCH  20  21
ENDBRANCH  19  20
ENDBRANCH   2  13
TORSDOF 5
ENDMDL
MODEL 6
REMARK VINA RESULT:      -7.5      1.469      2.121
REMARK  Name = 
REMARK  6 active torsions:
REMARK  status: ('A' for Active; 'I' for Inactive)
REMARK    1  A    between atoms: C_1  and  N_2
REMARK    2  A    between atoms: C_6  and  N_7
REMARK    3  A    between atoms: C_8  and  C_10
REMARK    4  A    between atoms: C_16  and  O_17
REMARK    5  A    between atoms: O_17  and  C_18
REMARK    6  A    between atoms: C_18  and  C_19
REMARK                            x       y       z     vdW  Elec       q    Type
REMARK                         _______ _______ _______ _____ _____    ______ ____
ROOT
ATOM      1  N   UNL     1       4.434   5.585  18.120  0.00  0.00    +0.000 N 
ATOM      2  C   UNL     1       4.385   4.538  19.024  0.00  0.00    +0.000 C 
ATOM      3  O   UNL     1       5.401   4.038  19.487  0.00  0.00    +0.000 OA
ATOM      4  H   UNL     1       3.569   6.061  17.890  0.00  0.00    +0.000 HD
ENDROOT
BRANCH   1  10
ATOM      5  C   UNL     1       7.249   5.003  14.550  0.00  0.00    +0.000 C 
ATOM      6  N   UNL     1       6.901   5.374  15.904  0.00  0.00    +0.000 N 
ATOM      7  C   UNL     1       7.522   4.883  17.014  0.00  0.00    +0.000 C 
ATOM      8  O   UNL     1       8.451   4.090  17.036  0.00  0.00    +0.000 OA
ATOM      9  C   UNL     1       6.896   5.479  18.241  0.00  0.00    +0.000 C 
ATOM     10  C   UNL     1       5.679   6.225  17.719  0.00  0.00    +0.000 C 
ATOM     11  C   UNL     1       5.820   6.149  16.205  0.00  0.00    +0.000 C 
ATOM     12  O   UNL     1       5.020   6.605  15.397  0.00  0.00    +0.000 OA
ENDBRANCH   1  10
BRANCH   2  13
ATOM     13  C   UNL     1       3.008   4.046  19.374  0.00  0.00    +0.000 A 
ATOM     14  C   UNL     1       2.585   2.736  19.056  0.00  0.00    +0.000 A 
ATOM     15 CL   UNL     1       3.511   1.614  18.112  0.00  0.00    +0.000 Cl
ATOM     16  C   UNL     1       1.343   2.258  19.486  0.00  0.00    +0.000 A 
ATOM     17  C   UNL     1       0.473   3.091  20.174  0.00  0.00    +0.000 A 
ATOM     18  C   UNL     1       0.845   4.404  20.440  0.00  0.00    +0.000 A 
ATOM     19  C   UNL     1       2.117   4.887  20.084  0.00  0.00    +0.000 A 
BRANCH  19  20
ATOM     20  O   UNL     1       2.540   6.148  20.432  0.00  0.00    +0.000 OA
BRANCH  20  21
ATOM     21  C   UNL     1       1.636   7.230  20.190  0.00  0.00    +0.000 C 
BRANCH  21  22
ATOM     22  C   UNL     1       2.255   8.177  19.210  0.00  0.00    +0.000 C 
ATOM     23  C   UNL     1       1.837   8.155  17.759  0.00  0.00    +0.000 C 
ATOM     24  C   UNL     1       1.438   9.309  18.638  0.00  0.00    +0.000 C 
ENDBRANCH  21  22
ENDBRANCH  20  21
ENDBRANCH  19  20
ENDBRANCH   2  13
TORSDOF 5
ENDMDL
MODEL 7
REMARK VINA RESULT:      -7.4      2.999      5.548
REMARK  Name = 
REMARK  6 active torsions:
REMARK  status: ('A' for Active; 'I' for Inactive)
REMARK    1  A    between atoms: C_1  and  N_2
REMARK    2  A    between atoms: C_6  and  N_7
REMARK    3  A    between atoms: C_8  and  C_10
REMARK    4  A    between atoms: C_16  and  O_17
REMARK    5  A    between atoms: O_17  and  C_18
REMARK    6  A    between atoms: C_18  and  C_19
REMARK                            x       y       z     vdW  Elec       q    Type
REMARK                         _______ _______ _______ _____ _____    ______ ____
ROOT
ATOM      1  N   UNL     1       2.150   6.798  18.745  0.00  0.00    +0.000 N 
ATOM      2  C   UNL     1       3.155   5.885  19.015  0.00  0.00    +0.000 C 
ATOM      3  O   UNL     1       4.265   6.239  19.388  0.00  0.00    +0.000 OA
ATOM      4  H   UNL     1       1.212   6.447  18.592  0.00  0.00    +0.000 HD
ENDROOT
BRANCH   1  10
ATOM      5  C   UNL     1      -0.517   9.979  20.688  0.00  0.00    +0.000 C 
ATOM      6  N   UNL     1       0.504   9.489  19.788  0.00  0.00    +0.000 N 
ATOM      7  C   UNL     1       0.500   9.703  18.441  0.00  0.00    +0.000 C 
ATOM      8  O   UNL     1      -0.331  10.336  17.808  0.00  0.00    +0.000 OA
ATOM      9  C   UNL     1       1.702   9.044  17.828  0.00  0.00    +0.000 C 
ATOM     10  C   UNL     1       2.304   8.229  18.962  0.00  0.00    +0.000 C 
ATOM     11  C   UNL     1       1.497   8.644  20.184  0.00  0.00    +0.000 C 
ATOM     12  O   UNL     1       1.643   8.192  21.313  0.00  0.00    +0.000 OA
ENDBRANCH   1  10
BRANCH   2  13
ATOM     13  C   UNL     1       2.796   4.441  18.796  0.00  0.00    +0.000 A 
ATOM     14  C   UNL     1       2.045   3.710  19.744  0.00  0.00    +0.000 A 
ATOM     15 CL   UNL     1       1.591   4.317  21.305  0.00  0.00    +0.000 Cl
ATOM     16  C   UNL     1       1.625   2.404  19.477  0.00  0.00    +0.000 A 
ATOM     17  C   UNL     1       2.000   1.776  18.298  0.00  0.00    +0.000 A 
ATOM     18  C   UNL     1       2.794   2.456  17.381  0.00  0.00    +0.000 A 
ATOM     19  C   UNL     1       3.168   3.795  17.592  0.00  0.00    +0.000 A 
BRANCH  19  20
ATOM     20  O   UNL     1       3.862   4.515  16.647  0.00  0.00    +0.000 OA
BRANCH  20  21
ATOM     21  C   UNL     1       5.126   3.992  16.227  0.00  0.00    +0.000 C 
BRANCH  21  22
ATOM     22  C   UNL     1       5.551   4.687  14.972  0.00  0.00    +0.000 C 
ATOM     23  C   UNL     1       7.017   4.846  14.646  0.00  0.00    +0.000 C 
ATOM     24  C   UNL     1       6.168   3.895  13.847  0.00  0.00    +0.000 C 
ENDBRANCH  21  22
ENDBRANCH  20  21
ENDBRANCH  19  20
ENDBRANCH   2  13
TORSDOF 5
ENDMDL
MODEL 8
REMARK VINA RESULT:      -7.4      1.546      1.790
REMARK  Name = 
REMARK  6 active torsions:
REMARK  status: ('A' for Active; 'I' for Inactive)
REMARK    1  A    between atoms: C_1  and  N_2
REMARK    2  A    between atoms: C_6  and  N_7
REMARK    3  A    between atoms: C_8  and  C_10
REMARK    4  A    between atoms: C_16  and  O_17
REMARK    5  A    between atoms: O_17  and  C_18
REMARK    6  A    between atoms: C_18  and  C_19
REMARK                            x       y       z     vdW  Elec       q    Type
REMARK                         _______ _______ _______ _____ _____    ______ ____
ROOT
ATOM      1  N   UNL     1       4.912   3.850  18.288  0.00  0.00    +0.000 N 
ATOM      2  C   UNL     1       4.088   2.739  18.314  0.00  0.00    +0.000 C 
ATOM      3  O   UNL     1       4.180   1.847  17.482  0.00  0.00    +0.000 OA
ATOM      4  H   UNL     1       4.898   4.477  19.084  0.00  0.00    +0.000 HD
ENDROOT
BRANCH   1  10
ATOM      5  C   UNL     1       7.637   7.366  17.181  0.00  0.00    +0.000 C 
ATOM      6  N   UNL     1       6.928   6.126  16.948  0.00  0.00    +0.000 N 
ATOM      7  C   UNL     1       6.060   5.926  15.916  0.00  0.00    +0.000 C 
ATOM      8  O   UNL     1       5.768   6.732  15.045  0.00  0.00    +0.000 OA
ATOM      9  C   UNL     1       5.507   4.533  15.993  0.00  0.00    +0.000 C 
ATOM     10  C   UNL     1       5.999   4.005  17.331  0.00  0.00    +0.000 C 
ATOM     11  C   UNL     1       6.955   5.082  17.823  0.00  0.00    +0.000 C 
ATOM     12  O   UNL     1       7.551   5.061  18.894  0.00  0.00    +0.000 OA
ENDBRANCH   1  10
BRANCH   2  13
ATOM     13  C   UNL     1       3.063   2.717  19.415  0.00  0.00    +0.000 A 
ATOM     14  C   UNL     1       3.376   2.255  20.712  0.00  0.00    +0.000 A 
ATOM     15 CL   UNL     1       4.889   1.529  21.150  0.00  0.00    +0.000 Cl
ATOM     16  C   UNL     1       2.445   2.345  21.752  0.00  0.00    +0.000 A 
ATOM     17  C   UNL     1       1.168   2.827  21.507  0.00  0.00    +0.000 A 
ATOM     18  C   UNL     1       0.819   3.226  20.221  0.00  0.00    +0.000 A 
ATOM     19  C   UNL     1       1.759   3.215  19.175  0.00  0.00    +0.000 A 
BRANCH  19  20
ATOM     20  O   UNL     1       1.461   3.705  17.925  0.00  0.00    +0.000 OA
BRANCH  20  21
ATOM     21  C   UNL     1       1.196   5.107  17.820  0.00  0.00    +0.000 C 
BRANCH  21  22
ATOM     22  C   UNL     1       2.449   5.868  18.123  0.00  0.00    +0.000 C 
ATOM     23  C   UNL     1       2.448   7.377  18.108  0.00  0.00    +0.000 C 
ATOM     24  C   UNL     1       2.566   6.639  19.413  0.00  0.00    +0.000 C 
ENDBRANCH  21  22
ENDBRANCH  20  21
ENDBRANCH  19  20
ENDBRANCH   2  13
TORSDOF 5
ENDMDL
MODEL 9
REMARK VINA RESULT:      -7.2      3.088      6.079
REMARK  Name = 
REMARK  6 active torsions:
REMARK  status: ('A' for Active; 'I' for Inactive)
REMARK    1  A    between atoms: C_1  and  N_2
REMARK    2  A    between atoms: C_6  and  N_7
REMARK    3  A    between atoms: C_8  and  C_10
REMARK    4  A    between atoms: C_16  and  O_17
REMARK    5  A    between atoms: O_17  and  C_18
REMARK    6  A    between atoms: C_18  and  C_19
REMARK                            x       y       z     vdW  Elec       q    Type
REMARK                         _______ _______ _______ _____ _____    ______ ____
ROOT
ATOM      1  N   UNL     1       2.732   7.172  19.248  0.00  0.00    +0.000 N 
ATOM      2  C   UNL     1       2.945   6.173  18.313  0.00  0.00    +0.000 C 
ATOM      3  O   UNL     1       2.024   5.669  17.686  0.00  0.00    +0.000 OA
ATOM      4  H   UNL     1       3.537   7.659  19.622  0.00  0.00    +0.000 HD
ENDROOT
BRANCH   1  10
ATOM      5  C   UNL     1       1.233  11.492  19.555  0.00  0.00    +0.000 C 
ATOM      6  N   UNL     1       1.214  10.071  19.823  0.00  0.00    +0.000 N 
ATOM      7  C   UNL     1       1.197   9.530  21.074  0.00  0.00    +0.000 C 
ATOM      8  O   UNL     1       1.180  10.143  22.131  0.00  0.00    +0.000 OA
ATOM      9  C   UNL     1       1.190   8.033  20.971  0.00  0.00    +0.000 C 
ATOM     10  C   UNL     1       1.421   7.756  19.494  0.00  0.00    +0.000 C 
ATOM     11  C   UNL     1       1.351   9.131  18.845  0.00  0.00    +0.000 C 
ATOM     12  O   UNL     1       1.519   9.359  17.653  0.00  0.00    +0.000 OA
ENDBRANCH   1  10
BRANCH   2  13
ATOM     13  C   UNL     1       4.374   5.737  18.144  0.00  0.00    +0.000 A 
ATOM     14  C   UNL     1       5.187   6.246  17.106  0.00  0.00    +0.000 A 
ATOM     15 CL   UNL     1       4.616   7.283  15.840  0.00  0.00    +0.000 Cl
ATOM     16  C   UNL     1       6.544   5.916  17.029  0.00  0.00    +0.000 A 
ATOM     17  C   UNL     1       7.100   5.024  17.934  0.00  0.00    +0.000 A 
ATOM     18  C   UNL     1       6.300   4.462  18.923  0.00  0.00    +0.000 A 
ATOM     19  C   UNL     1       4.951   4.833  19.068  0.00  0.00    +0.000 A 
BRANCH  19  20
ATOM     20  O   UNL     1       4.176   4.368  20.105  0.00  0.00    +0.000 OA
BRANCH  20  21
ATOM     21  C   UNL     1       3.757   3.002  20.044  0.00  0.00    +0.000 C 
BRANCH  21  22
ATOM     22  C   UNL     1       2.268   2.939  20.185  0.00  0.00    +0.000 C 
ATOM     23  C   UNL     1       1.639   2.661  21.530  0.00  0.00    +0.000 C 
ATOM     24  C   UNL     1       1.536   4.033  20.922  0.00  0.00    +0.000 C 
ENDBRANCH  21  22
ENDBRANCH  20  21
ENDBRANCH  19  20
ENDBRANCH   2  13
TORSDOF 5
ENDMDL
