MODEL 1
REMARK VINA RESULT:      -7.4      0.000      0.000
REMARK  Name = 
REMARK  4 active torsions:
REMARK  status: ('A' for Active; 'I' for Inactive)
REMARK    1  A    between atoms: C_1  and  O_2
REMARK    2  A    between atoms: O_2  and  C_3
REMARK    3  A    between atoms: C_6  and  N_7
REMARK    4  A    between atoms: C_11  and  C_12
REMARK                            x       y       z     vdW  Elec       q    Type
REMARK                         _______ _______ _______ _____ _____    ______ ____
ROOT
ATOM      1  N   UNL     1       1.508   8.925  19.206  0.00  0.00    +0.000 N 
ATOM      2  C   UNL     1       2.325   8.871  18.085  0.00  0.00    +0.000 A 
ATOM      3  N   UNL     1       3.133   7.917  17.743  0.00  0.00    +0.000 NA
ATOM      4  C   UNL     1       3.122   6.816  18.610  0.00  0.00    +0.000 A 
ATOM      5  C   UNL     1       3.882   5.620  18.417  0.00  0.00    +0.000 A 
ATOM      6  C   UNL     1       3.579   4.709  19.420  0.00  0.00    +0.000 A 
ATOM      7  S   UNL     1       2.444   5.313  20.558  0.00  0.00    +0.000 S 
ATOM      8  C   UNL     1       2.342   6.788  19.733  0.00  0.00    +0.000 A 
ATOM      9  C   UNL     1       1.495   7.878  20.138  0.00  0.00    +0.000 A 
ATOM     10  O   UNL     1       0.804   7.860  21.157  0.00  0.00    +0.000 OA
ENDROOT
BRANCH   1  14
ATOM     11  C   UNL     1      -1.264  12.067  19.769  0.00  0.00    +0.000 A 
ATOM     12  C   UNL     1      -0.096  12.016  20.531  0.00  0.00    +0.000 A 
ATOM     13  C   UNL     1       0.833  10.992  20.341  0.00  0.00    +0.000 A 
ATOM     14  C   UNL     1       0.612  10.015  19.365  0.00  0.00    +0.000 A 
ATOM     15  C   UNL     1      -0.549  10.083  18.581  0.00  0.00    +0.000 A 
ATOM     16  C   UNL     1      -1.493  11.091  18.800  0.00  0.00    +0.000 A 
BRANCH  11  18
ATOM     17  C   UNL     1      -3.499  12.739  20.166  0.00  0.00    +0.000 C 
ATOM     18  O   UNL     1      -2.121  13.082  20.092  0.00  0.00    +0.000 OA
ENDBRANCH  11  18
ENDBRANCH   1  14
BRANCH   5  19
ATOM     19  C   UNL     1       4.856   5.308  17.368  0.00  0.00    +0.000 A 
ATOM     20  C   UNL     1       6.084   5.981  17.320  0.00  0.00    +0.000 A 
ATOM     21  C   UNL     1       7.023   5.690  16.328  0.00  0.00    +0.000 A 
ATOM     22  C   UNL     1       6.748   4.714  15.375  0.00  0.00    +0.000 A 
ATOM     23  C   UNL     1       5.535   4.030  15.411  0.00  0.00    +0.000 A 
ATOM     24  C   UNL     1       4.594   4.326  16.401  0.00  0.00    +0.000 A 
ENDBRANCH   5  19
TORSDOF 3
ENDMDL
MODEL 2
REMARK VINA RESULT:      -7.3      0.197      1.405
REMARK  Name = 
REMARK  4 active torsions:
REMARK  status: ('A' for Active; 'I' for Inactive)
REMARK    1  A    between atoms: C_1  and  O_2
REMARK    2  A    between atoms: O_2  and  C_3
REMARK    3  A    between atoms: C_6  and  N_7
REMARK    4  A    between atoms: C_11  and  C_12
REMARK                            x       y       z     vdW  Elec       q    Type
REMARK                         _______ _______ _______ _____ _____    ______ ____
ROOT
ATOM      1  N   UNL     1       1.555   8.813  19.240  0.00  0.00    +0.000 N 
ATOM      2  C   UNL     1       2.359   8.804  18.108  0.00  0.00    +0.000 A 
ATOM      3  N   UNL     1       3.170   7.868  17.725  0.00  0.00    +0.000 NA
ATOM      4  C   UNL     1       3.175   6.737  18.552  0.00  0.00    +0.000 A 
ATOM      5  C   UNL     1       3.939   5.554  18.308  0.00  0.00    +0.000 A 
ATOM      6  C   UNL     1       3.653   4.605  19.281  0.00  0.00    +0.000 A 
ATOM      7  S   UNL     1       2.528   5.162  20.452  0.00  0.00    +0.000 S 
ATOM      8  C   UNL     1       2.407   6.664  19.681  0.00  0.00    +0.000 A 
ATOM      9  C   UNL     1       1.558   7.733  20.135  0.00  0.00    +0.000 A 
ATOM     10  O   UNL     1       0.879   7.675  21.159  0.00  0.00    +0.000 OA
ENDROOT
BRANCH   1  14
ATOM     11  C   UNL     1      -1.021  12.122  19.774  0.00  0.00    +0.000 A 
ATOM     12  C   UNL     1      -1.311  11.155  18.812  0.00  0.00    +0.000 A 
ATOM     13  C   UNL     1      -0.476  10.051  18.639  0.00  0.00    +0.000 A 
ATOM     14  C   UNL     1       0.654   9.890  19.448  0.00  0.00    +0.000 A 
ATOM     15  C   UNL     1       0.929  10.849  20.434  0.00  0.00    +0.000 A 
ATOM     16  C   UNL     1       0.108  11.971  20.579  0.00  0.00    +0.000 A 
BRANCH  11  18
ATOM     17  C   UNL     1      -3.191  12.917  20.287  0.00  0.00    +0.000 C 
ATOM     18  O   UNL     1      -1.880  13.185  19.804  0.00  0.00    +0.000 OA
ENDBRANCH  11  18
ENDBRANCH   1  14
BRANCH   5  19
ATOM     19  C   UNL     1       4.903   5.285  17.238  0.00  0.00    +0.000 A 
ATOM     20  C   UNL     1       4.603   4.359  16.231  0.00  0.00    +0.000 A 
ATOM     21  C   UNL     1       5.512   4.097  15.203  0.00  0.00    +0.000 A 
ATOM     22  C   UNL     1       6.733   4.765  15.166  0.00  0.00    +0.000 A 
ATOM     23  C   UNL     1       7.045   5.693  16.157  0.00  0.00    +0.000 A 
ATOM     24  C   UNL     1       6.137   5.951  17.186  0.00  0.00    +0.000 A 
ENDBRANCH   5  19
TORSDOF 3
ENDMDL
MODEL 3
REMARK VINA RESULT:      -7.3      1.616      2.259
REMARK  Name = 
REMARK  4 active torsions:
REMARK  status: ('A' for Active; 'I' for Inactive)
REMARK    1  A    between atoms: C_1  and  O_2
REMARK    2  A    between atoms: O_2  and  C_3
REMARK    3  A    between atoms: C_6  and  N_7
REMARK    4  A    between atoms: C_11  and  C_12
REMARK                            x       y       z     vdW  Elec       q    Type
REMARK                         _______ _______ _______ _____ _____    ______ ____
ROOT
ATOM      1  N   UNL     1       2.299   7.460  19.307  0.00  0.00    +0.000 N 
ATOM      2  C   UNL     1       3.083   7.764  18.203  0.00  0.00    +0.000 A 
ATOM      3  N   UNL     1       3.807   6.951  17.501  0.00  0.00    +0.000 NA
ATOM      4  C   UNL     1       3.731   5.613  17.913  0.00  0.00    +0.000 A 
ATOM      5  C   UNL     1       4.391   4.524  17.264  0.00  0.00    +0.000 A 
ATOM      6  C   UNL     1       4.043   3.331  17.886  0.00  0.00    +0.000 A 
ATOM      7  S   UNL     1       2.985   3.552  19.219  0.00  0.00    +0.000 S 
ATOM      8  C   UNL     1       2.977   5.229  18.987  0.00  0.00    +0.000 A 
ATOM      9  C   UNL     1       2.226   6.149  19.799  0.00  0.00    +0.000 A 
ATOM     10  O   UNL     1       1.559   5.806  20.775  0.00  0.00    +0.000 OA
ENDROOT
BRANCH   1  14
ATOM     11  C   UNL     1      -0.239  10.384  21.006  0.00  0.00    +0.000 A 
ATOM     12  C   UNL     1       0.431   9.474  21.825  0.00  0.00    +0.000 A 
ATOM     13  C   UNL     1       1.283   8.516  21.275  0.00  0.00    +0.000 A 
ATOM     14  C   UNL     1       1.493   8.472  19.892  0.00  0.00    +0.000 A 
ATOM     15  C   UNL     1       0.841   9.405  19.073  0.00  0.00    +0.000 A 
ATOM     16  C   UNL     1      -0.038  10.341  19.627  0.00  0.00    +0.000 A 
BRANCH  11  18
ATOM     17  C   UNL     1      -1.220  11.032  23.060  0.00  0.00    +0.000 C 
ATOM     18  O   UNL     1      -1.090  11.231  21.658  0.00  0.00    +0.000 OA
ENDBRANCH  11  18
ENDBRANCH   1  14
BRANCH   5  19
ATOM     19  C   UNL     1       5.314   4.552  16.127  0.00  0.00    +0.000 A 
ATOM     20  C   UNL     1       4.915   4.055  14.879  0.00  0.00    +0.000 A 
ATOM     21  C   UNL     1       5.784   4.080  13.786  0.00  0.00    +0.000 A 
ATOM     22  C   UNL     1       7.064   4.611  13.926  0.00  0.00    +0.000 A 
ATOM     23  C   UNL     1       7.475   5.114  15.158  0.00  0.00    +0.000 A 
ATOM     24  C   UNL     1       6.606   5.084  16.251  0.00  0.00    +0.000 A 
ENDBRANCH   5  19
TORSDOF 3
ENDMDL
MODEL 4
REMARK VINA RESULT:      -7.2      1.649      2.438
REMARK  Name = 
REMARK  4 active torsions:
REMARK  status: ('A' for Active; 'I' for Inactive)
REMARK    1  A    between atoms: C_1  and  O_2
REMARK    2  A    between atoms: O_2  and  C_3
REMARK    3  A    between atoms: C_6  and  N_7
REMARK    4  A    between atoms: C_11  and  C_12
REMARK                            x       y       z     vdW  Elec       q    Type
REMARK                         _______ _______ _______ _____ _____    ______ ____
ROOT
ATOM      1  N   UNL     1       2.259   7.349  19.491  0.00  0.00    +0.000 N 
ATOM      2  C   UNL     1       3.072   7.684  18.417  0.00  0.00    +0.000 A 
ATOM      3  N   UNL     1       3.786   6.885  17.689  0.00  0.00    +0.000 NA
ATOM      4  C   UNL     1       3.665   5.532  18.032  0.00  0.00    +0.000 A 
ATOM      5  C   UNL     1       4.306   4.457  17.342  0.00  0.00    +0.000 A 
ATOM      6  C   UNL     1       3.913   3.246  17.898  0.00  0.00    +0.000 A 
ATOM      7  S   UNL     1       2.837   3.432  19.222  0.00  0.00    +0.000 S 
ATOM      8  C   UNL     1       2.881   5.118  19.073  0.00  0.00    +0.000 A 
ATOM      9  C   UNL     1       2.141   6.019  19.917  0.00  0.00    +0.000 A 
ATOM     10  O   UNL     1       1.447   5.648  20.863  0.00  0.00    +0.000 OA
ENDROOT
BRANCH   1  14
ATOM     11  C   UNL     1       0.057  10.427  21.375  0.00  0.00    +0.000 A 
ATOM     12  C   UNL     1       0.112  10.355  19.982  0.00  0.00    +0.000 A 
ATOM     13  C   UNL     1       0.823   9.333  19.352  0.00  0.00    +0.000 A 
ATOM     14  C   UNL     1       1.472   8.355  20.112  0.00  0.00    +0.000 A 
ATOM     15  C   UNL     1       1.391   8.413  21.511  0.00  0.00    +0.000 A 
ATOM     16  C   UNL     1       0.707   9.458  22.138  0.00  0.00    +0.000 A 
BRANCH  11  18
ATOM     17  C   UNL     1      -1.378  11.282  23.053  0.00  0.00    +0.000 C 
ATOM     18  O   UNL     1      -0.619  11.507  21.871  0.00  0.00    +0.000 OA
ENDBRANCH  11  18
ENDBRANCH   1  14
BRANCH   5  19
ATOM     19  C   UNL     1       5.250   4.514  16.224  0.00  0.00    +0.000 A 
ATOM     20  C   UNL     1       4.850   4.122  14.939  0.00  0.00    +0.000 A 
ATOM     21  C   UNL     1       5.740   4.175  13.863  0.00  0.00    +0.000 A 
ATOM     22  C   UNL     1       7.041   4.630  14.058  0.00  0.00    +0.000 A 
ATOM     23  C   UNL     1       7.454   5.029  15.328  0.00  0.00    +0.000 A 
ATOM     24  C   UNL     1       6.565   4.970  16.403  0.00  0.00    +0.000 A 
ENDBRANCH   5  19
TORSDOF 3
ENDMDL
MODEL 5
REMARK VINA RESULT:      -7.2      0.673      1.112
REMARK  Name = 
REMARK  4 active torsions:
REMARK  status: ('A' for Active; 'I' for Inactive)
REMARK    1  A    between atoms: C_1  and  O_2
REMARK    2  A    between atoms: O_2  and  C_3
REMARK    3  A    between atoms: C_6  and  N_7
REMARK    4  A    between atoms: C_11  and  C_12
REMARK                            x       y       z     vdW  Elec       q    Type
REMARK                         _______ _______ _______ _____ _____    ______ ____
ROOT
ATOM      1  N   UNL     1       1.703   8.392  19.229  0.00  0.00    +0.000 N 
ATOM      2  C   UNL     1       2.518   8.377  18.106  0.00  0.00    +0.000 A 
ATOM      3  N   UNL     1       3.330   7.438  17.733  0.00  0.00    +0.000 NA
ATOM      4  C   UNL     1       3.325   6.310  18.565  0.00  0.00    +0.000 A 
ATOM      5  C   UNL     1       4.089   5.124  18.332  0.00  0.00    +0.000 A 
ATOM      6  C   UNL     1       3.791   4.180  19.306  0.00  0.00    +0.000 A 
ATOM      7  S   UNL     1       2.656   4.743  20.464  0.00  0.00    +0.000 S 
ATOM      8  C   UNL     1       2.546   6.243  19.686  0.00  0.00    +0.000 A 
ATOM      9  C   UNL     1       1.695   7.315  20.128  0.00  0.00    +0.000 A 
ATOM     10  O   UNL     1       1.006   7.262  21.146  0.00  0.00    +0.000 OA
ENDROOT
BRANCH   1  14
ATOM     11  C   UNL     1      -1.104  11.495  19.834  0.00  0.00    +0.000 A 
ATOM     12  C   UNL     1      -0.219  11.141  20.853  0.00  0.00    +0.000 A 
ATOM     13  C   UNL     1       0.722  10.129  20.657  0.00  0.00    +0.000 A 
ATOM     14  C   UNL     1       0.802   9.472  19.425  0.00  0.00    +0.000 A 
ATOM     15  C   UNL     1      -0.070   9.848  18.393  0.00  0.00    +0.000 A 
ATOM     16  C   UNL     1      -1.033  10.839  18.606  0.00  0.00    +0.000 A 
BRANCH  11  18
ATOM     17  C   UNL     1      -3.299  12.339  19.567  0.00  0.00    +0.000 C 
ATOM     18  O   UNL     1      -2.016  12.456  20.169  0.00  0.00    +0.000 OA
ENDBRANCH  11  18
ENDBRANCH   1  14
BRANCH   5  19
ATOM     19  C   UNL     1       5.063   4.850  17.273  0.00  0.00    +0.000 A 
ATOM     20  C   UNL     1       4.631   4.548  15.974  0.00  0.00    +0.000 A 
ATOM     21  C   UNL     1       5.549   4.289  14.955  0.00  0.00    +0.000 A 
ATOM     22  C   UNL     1       6.915   4.335  15.220  0.00  0.00    +0.000 A 
ATOM     23  C   UNL     1       7.363   4.639  16.504  0.00  0.00    +0.000 A 
ATOM     24  C   UNL     1       6.442   4.894  17.524  0.00  0.00    +0.000 A 
ENDBRANCH   5  19
TORSDOF 3
ENDMDL
MODEL 6
REMARK VINA RESULT:      -7.1      0.668      1.181
REMARK  Name = 
REMARK  4 active torsions:
REMARK  status: ('A' for Active; 'I' for Inactive)
REMARK    1  A    between atoms: C_1  and  O_2
REMARK    2  A    between atoms: O_2  and  C_3
REMARK    3  A    between atoms: C_6  and  N_7
REMARK    4  A    between atoms: C_11  and  C_12
REMARK                            x       y       z     vdW  Elec       q    Type
REMARK                         _______ _______ _______ _____ _____    ______ ____
ROOT
ATOM      1  N   UNL     1       1.381   9.053  19.304  0.00  0.00    +0.000 N 
ATOM      2  C   UNL     1       2.057   8.972  18.095  0.00  0.00    +0.000 A 
ATOM      3  N   UNL     1       2.800   7.998  17.671  0.00  0.00    +0.000 NA
ATOM      4  C   UNL     1       2.870   6.905  18.545  0.00  0.00    +0.000 A 
ATOM      5  C   UNL     1       3.577   5.693  18.276  0.00  0.00    +0.000 A 
ATOM      6  C   UNL     1       3.378   4.797  19.319  0.00  0.00    +0.000 A 
ATOM      7  S   UNL     1       2.400   5.435  20.576  0.00  0.00    +0.000 S 
ATOM      8  C   UNL     1       2.229   6.904  19.752  0.00  0.00    +0.000 A 
ATOM      9  C   UNL     1       1.458   8.015  20.244  0.00  0.00    +0.000 A 
ATOM     10  O   UNL     1       0.893   8.020  21.337  0.00  0.00    +0.000 OA
ENDROOT
BRANCH   1  14
ATOM     11  C   UNL     1      -1.059  12.446  19.942  0.00  0.00    +0.000 A 
ATOM     12  C   UNL     1      -1.523  11.384  19.166  0.00  0.00    +0.000 A 
ATOM     13  C   UNL     1      -0.732  10.253  18.963  0.00  0.00    +0.000 A 
ATOM     14  C   UNL     1       0.532  10.163  19.557  0.00  0.00    +0.000 A 
ATOM     15  C   UNL     1       0.985  11.219  20.360  0.00  0.00    +0.000 A 
ATOM     16  C   UNL     1       0.202  12.365  20.531  0.00  0.00    +0.000 A 
BRANCH  11  18
ATOM     17  C   UNL     1      -2.901  13.465  21.024  0.00  0.00    +0.000 C 
ATOM     18  O   UNL     1      -1.901  13.521  20.015  0.00  0.00    +0.000 OA
ENDBRANCH  11  18
ENDBRANCH   1  14
BRANCH   5  19
ATOM     19  C   UNL     1       4.414   5.350  17.123  0.00  0.00    +0.000 A 
ATOM     20  C   UNL     1       4.914   6.358  16.287  0.00  0.00    +0.000 A 
ATOM     21  C   UNL     1       5.715   6.046  15.187  0.00  0.00    +0.000 A 
ATOM     22  C   UNL     1       6.034   4.718  14.913  0.00  0.00    +0.000 A 
ATOM     23  C   UNL     1       5.550   3.704  15.737  0.00  0.00    +0.000 A 
ATOM     24  C   UNL     1       4.744   4.018  16.834  0.00  0.00    +0.000 A 
ENDBRANCH   5  19
TORSDOF 3
ENDMDL
MODEL 7
REMARK VINA RESULT:      -7.1      0.840      1.187
REMARK  Name = 
REMARK  4 active torsions:
REMARK  status: ('A' for Active; 'I' for Inactive)
REMARK    1  A    between atoms: C_1  and  O_2
REMARK    2  A    between atoms: O_2  and  C_3
REMARK    3  A    between atoms: C_6  and  N_7
REMARK    4  A    between atoms: C_11  and  C_12
REMARK                            x       y       z     vdW  Elec       q    Type
REMARK                         _______ _______ _______ _____ _____    ______ ____
ROOT
ATOM      1  N   UNL     1       1.380   9.126  19.339  0.00  0.00    +0.000 N 
ATOM      2  C   UNL     1       2.075   9.036  18.141  0.00  0.00    +0.000 A 
ATOM      3  N   UNL     1       2.798   8.046  17.721  0.00  0.00    +0.000 NA
ATOM      4  C   UNL     1       2.822   6.944  18.586  0.00  0.00    +0.000 A 
ATOM      5  C   UNL     1       3.500   5.714  18.318  0.00  0.00    +0.000 A 
ATOM      6  C   UNL     1       3.257   4.815  19.349  0.00  0.00    +0.000 A 
ATOM      7  S   UNL     1       2.274   5.469  20.594  0.00  0.00    +0.000 S 
ATOM      8  C   UNL     1       2.159   6.949  19.782  0.00  0.00    +0.000 A 
ATOM      9  C   UNL     1       1.411   8.077  20.269  0.00  0.00    +0.000 A 
ATOM     10  O   UNL     1       0.827   8.089  21.353  0.00  0.00    +0.000 OA
ENDROOT
BRANCH   1  14
ATOM     11  C   UNL     1      -1.156  12.400  20.190  0.00  0.00    +0.000 A 
ATOM     12  C   UNL     1       0.132  12.351  20.725  0.00  0.00    +0.000 A 
ATOM     13  C   UNL     1       0.982  11.283  20.437  0.00  0.00    +0.000 A 
ATOM     14  C   UNL     1       0.558  10.256  19.587  0.00  0.00    +0.000 A 
ATOM     15  C   UNL     1      -0.727  10.321  19.027  0.00  0.00    +0.000 A 
ATOM     16  C   UNL     1      -1.586  11.376  19.347  0.00  0.00    +0.000 A 
BRANCH  11  18
ATOM     17  C   UNL     1      -1.358  14.752  20.355  0.00  0.00    +0.000 C 
ATOM     18  O   UNL     1      -1.911  13.465  20.596  0.00  0.00    +0.000 OA
ENDBRANCH  11  18
ENDBRANCH   1  14
BRANCH   5  19
ATOM     19  C   UNL     1       4.346   5.359  17.177  0.00  0.00    +0.000 A 
ATOM     20  C   UNL     1       4.613   4.014  16.885  0.00  0.00    +0.000 A 
ATOM     21  C   UNL     1       5.415   3.662  15.797  0.00  0.00    +0.000 A 
ATOM     22  C   UNL     1       5.956   4.653  14.981  0.00  0.00    +0.000 A 
ATOM     23  C   UNL     1       5.696   5.994  15.253  0.00  0.00    +0.000 A 
ATOM     24  C   UNL     1       4.897   6.345  16.345  0.00  0.00    +0.000 A 
ENDBRANCH   5  19
TORSDOF 3
ENDMDL
MODEL 8
REMARK VINA RESULT:      -7.0      1.114      1.873
REMARK  Name = 
REMARK  4 active torsions:
REMARK  status: ('A' for Active; 'I' for Inactive)
REMARK    1  A    between atoms: C_1  and  O_2
REMARK    2  A    between atoms: O_2  and  C_3
REMARK    3  A    between atoms: C_6  and  N_7
REMARK    4  A    between atoms: C_11  and  C_12
REMARK                            x       y       z     vdW  Elec       q    Type
REMARK                         _______ _______ _______ _____ _____    ______ ____
ROOT
ATOM      1  N   UNL     1       2.092   7.883  19.226  0.00  0.00    +0.000 N 
ATOM      2  C   UNL     1       2.846   8.074  18.076  0.00  0.00    +0.000 A 
ATOM      3  N   UNL     1       3.638   7.224  17.502  0.00  0.00    +0.000 NA
ATOM      4  C   UNL     1       3.678   5.968  18.121  0.00  0.00    +0.000 A 
ATOM      5  C   UNL     1       4.431   4.850  17.644  0.00  0.00    +0.000 A 
ATOM      6  C   UNL     1       4.187   3.746  18.451  0.00  0.00    +0.000 A 
ATOM      7  S   UNL     1       3.114   4.085  19.747  0.00  0.00    +0.000 S 
ATOM      8  C   UNL     1       2.961   5.696  19.253  0.00  0.00    +0.000 A 
ATOM      9  C   UNL     1       2.133   6.666  19.920  0.00  0.00    +0.000 A 
ATOM     10  O   UNL     1       1.499   6.427  20.947  0.00  0.00    +0.000 OA
ENDROOT
BRANCH   1  14
ATOM     11  C   UNL     1      -0.425  11.021  20.525  0.00  0.00    +0.000 A 
ATOM     12  C   UNL     1      -0.326  10.718  19.167  0.00  0.00    +0.000 A 
ATOM     13  C   UNL     1       0.489   9.673  18.730  0.00  0.00    +0.000 A 
ATOM     14  C   UNL     1       1.201   8.903  19.655  0.00  0.00    +0.000 A 
ATOM     15  C   UNL     1       1.079   9.191  21.022  0.00  0.00    +0.000 A 
ATOM     16  C   UNL     1       0.287  10.261  21.451  0.00  0.00    +0.000 A 
BRANCH  11  18
ATOM     17  C   UNL     1      -2.025  12.592  19.764  0.00  0.00    +0.000 C 
ATOM     18  O   UNL     1      -1.207  12.103  20.820  0.00  0.00    +0.000 OA
ENDBRANCH  11  18
ENDBRANCH   1  14
BRANCH   5  19
ATOM     19  C   UNL     1       5.347   4.776  16.503  0.00  0.00    +0.000 A 
ATOM     20  C   UNL     1       4.919   4.233  15.285  0.00  0.00    +0.000 A 
ATOM     21  C   UNL     1       5.781   4.160  14.189  0.00  0.00    +0.000 A 
ATOM     22  C   UNL     1       7.085   4.638  14.296  0.00  0.00    +0.000 A 
ATOM     23  C   UNL     1       7.525   5.187  15.498  0.00  0.00    +0.000 A 
ATOM     24  C   UNL     1       6.663   5.254  16.595  0.00  0.00    +0.000 A 
ENDBRANCH   5  19
TORSDOF 3
ENDMDL
MODEL 9
REMARK VINA RESULT:      -6.7      2.370      8.054
REMARK  Name = 
REMARK  4 active torsions:
REMARK  status: ('A' for Active; 'I' for Inactive)
REMARK    1  A    between atoms: C_1  and  O_2
REMARK    2  A    between atoms: O_2  and  C_3
REMARK    3  A    between atoms: C_6  and  N_7
REMARK    4  A    between atoms: C_11  and  C_12
REMARK                            x       y       z     vdW  Elec       q    Type
REMARK                         _______ _______ _______ _____ _____    ______ ____
ROOT
ATOM      1  N   UNL     1       2.871   7.246  18.232  0.00  0.00    +0.000 N 
ATOM      2  C   UNL     1       2.653   8.454  17.584  0.00  0.00    +0.000 A 
ATOM      3  N   UNL     1       2.002   9.482  18.030  0.00  0.00    +0.000 NA
ATOM      4  C   UNL     1       1.514   9.331  19.335  0.00  0.00    +0.000 A 
ATOM      5  C   UNL     1       0.816  10.343  20.065  0.00  0.00    +0.000 A 
ATOM      6  C   UNL     1       0.542   9.886  21.348  0.00  0.00    +0.000 A 
ATOM      7  S   UNL     1       1.086   8.281  21.621  0.00  0.00    +0.000 S 
ATOM      8  C   UNL     1       1.691   8.175  20.044  0.00  0.00    +0.000 A 
ATOM      9  C   UNL     1       2.360   7.015  19.517  0.00  0.00    +0.000 A 
ATOM     10  O   UNL     1       2.507   5.969  20.148  0.00  0.00    +0.000 OA
ENDROOT
BRANCH   1  14
ATOM     11  C   UNL     1       5.226   4.331  16.275  0.00  0.00    +0.000 A 
ATOM     12  C   UNL     1       5.674   5.649  16.366  0.00  0.00    +0.000 A 
ATOM     13  C   UNL     1       4.911   6.615  17.024  0.00  0.00    +0.000 A 
ATOM     14  C   UNL     1       3.696   6.264  17.621  0.00  0.00    +0.000 A 
ATOM     15  C   UNL     1       3.261   4.933  17.553  0.00  0.00    +0.000 A 
ATOM     16  C   UNL     1       4.012   3.977  16.862  0.00  0.00    +0.000 A 
BRANCH  11  18
ATOM     17  C   UNL     1       6.283   3.874  14.206  0.00  0.00    +0.000 C 
ATOM     18  O   UNL     1       6.032   3.495  15.554  0.00  0.00    +0.000 OA
ENDBRANCH  11  18
ENDBRANCH   1  14
BRANCH   5  19
ATOM     19  C   UNL     1       0.401  11.676  19.622  0.00  0.00    +0.000 A 
ATOM     20  C   UNL     1       1.359  12.656  19.333  0.00  0.00    +0.000 A 
ATOM     21  C   UNL     1       0.976  13.930  18.906  0.00  0.00    +0.000 A 
ATOM     22  C   UNL     1      -0.373  14.237  18.756  0.00  0.00    +0.000 A 
ATOM     23  C   UNL     1      -1.339  13.273  19.034  0.00  0.00    +0.000 A 
ATOM     24  C   UNL     1      -0.955  12.001  19.466  0.00  0.00    +0.000 A 
ENDBRANCH   5  19
TORSDOF 3
ENDMDL
