MODEL 1
REMARK VINA RESULT:      -7.3      0.000      0.000
REMARK  Name = 
REMARK  3 active torsions:
REMARK  status: ('A' for Active; 'I' for Inactive)
REMARK    1  A    between atoms: C_1  and  S_2
REMARK    2  A    between atoms: S_2  and  N_5
REMARK    3  A    between atoms: N_14  and  C_15
REMARK                            x       y       z     vdW  Elec       q    Type
REMARK                         _______ _______ _______ _____ _____    ______ ____
ROOT
ATOM      1  N   UNL     1       0.732  11.127  19.640  0.00  0.00    +0.000 NA
ATOM      2  C   UNL     1       1.281  10.501  20.895  0.00  0.00    +0.000 C 
ATOM      3  C   UNL     1       1.080   8.972  20.906  0.00  0.00    +0.000 C 
ATOM      4  N   UNL     1       1.690   8.368  19.711  0.00  0.00    +0.000 N 
ATOM      5  C   UNL     1       2.185   7.071  19.690  0.00  0.00    +0.000 A 
ATOM      6  C   UNL     1       1.693   6.051  20.645  0.00  0.00    +0.000 A 
ATOM      7  C   UNL     1       2.142   4.804  20.522  0.00  0.00    +0.000 A 
ATOM      8  C   UNL     1       3.127   4.444  19.483  0.00  0.00    +0.000 A 
ATOM      9  O   UNL     1       3.490   3.269  19.448  0.00  0.00    +0.000 OA
ATOM     10  N   UNL     1       3.579   5.499  18.690  0.00  0.00    +0.000 N 
ATOM     11  N   UNL     1       3.091   6.784  18.794  0.00  0.00    +0.000 NA
ATOM     12  C   UNL     1       1.251   8.966  18.433  0.00  0.00    +0.000 C 
ATOM     13  C   UNL     1       1.396  10.495  18.453  0.00  0.00    +0.000 C 
ENDROOT
BRANCH  10  14
ATOM     14  C   UNL     1       4.581   5.349  17.677  0.00  0.00    +0.000 A 
ATOM     15  C   UNL     1       5.796   6.046  17.726  0.00  0.00    +0.000 A 
ATOM     16  C   UNL     1       6.756   5.898  16.718  0.00  0.00    +0.000 A 
ATOM     17  C   UNL     1       6.505   5.061  15.637  0.00  0.00    +0.000 A 
ATOM     18 CL   UNL     1       7.676   4.901  14.388  0.00  0.00    +0.000 Cl
ATOM     19  C   UNL     1       5.311   4.353  15.565  0.00  0.00    +0.000 A 
ATOM     20  C   UNL     1       4.363   4.484  16.588  0.00  0.00    +0.000 A 
ENDBRANCH  10  14
BRANCH   1  22
ATOM     21  C   UNL     1      -1.257  12.756  18.708  0.00  0.00    +0.000 C 
ATOM     22  S   UNL     1      -0.962  11.267  19.641  0.00  0.00    +0.000 S 
ATOM     23  O   UNL     1      -1.367  11.504  21.011  0.00  0.00    +0.000 OA
ATOM     24  O   UNL     1      -1.506  10.155  18.896  0.00  0.00    +0.000 OA
ENDBRANCH   1  22
TORSDOF 2
ENDMDL
MODEL 2
REMARK VINA RESULT:      -7.0      0.844      1.372
REMARK  Name = 
REMARK  3 active torsions:
REMARK  status: ('A' for Active; 'I' for Inactive)
REMARK    1  A    between atoms: C_1  and  S_2
REMARK    2  A    between atoms: S_2  and  N_5
REMARK    3  A    between atoms: N_14  and  C_15
REMARK                            x       y       z     vdW  Elec       q    Type
REMARK                         _______ _______ _______ _____ _____    ______ ____
ROOT
ATOM      1  N   UNL     1       0.653  11.476  19.580  0.00  0.00    +0.000 NA
ATOM      2  C   UNL     1       1.226  10.884  20.842  0.00  0.00    +0.000 C 
ATOM      3  C   UNL     1       0.988   9.363  20.919  0.00  0.00    +0.000 C 
ATOM      4  N   UNL     1       1.547   8.697  19.731  0.00  0.00    +0.000 N 
ATOM      5  C   UNL     1       2.009   7.389  19.746  0.00  0.00    +0.000 A 
ATOM      6  C   UNL     1       1.522   6.419  20.755  0.00  0.00    +0.000 A 
ATOM      7  C   UNL     1       1.936   5.158  20.667  0.00  0.00    +0.000 A 
ATOM      8  C   UNL     1       2.880   4.733  19.614  0.00  0.00    +0.000 A 
ATOM      9  O   UNL     1       3.213   3.549  19.615  0.00  0.00    +0.000 OA
ATOM     10  N   UNL     1       3.333   5.745  18.767  0.00  0.00    +0.000 N 
ATOM     11  N   UNL     1       2.880   7.045  18.835  0.00  0.00    +0.000 NA
ATOM     12  C   UNL     1       1.083   9.257  18.444  0.00  0.00    +0.000 C 
ATOM     13  C   UNL     1       1.265  10.781  18.400  0.00  0.00    +0.000 C 
ENDROOT
BRANCH  10  14
ATOM     14  C   UNL     1       4.300   5.530  17.731  0.00  0.00    +0.000 A 
ATOM     15  C   UNL     1       4.174   4.487  16.803  0.00  0.00    +0.000 A 
ATOM     16  C   UNL     1       5.137   4.283  15.809  0.00  0.00    +0.000 A 
ATOM     17  C   UNL     1       6.250   5.113  15.740  0.00  0.00    +0.000 A 
ATOM     18 CL   UNL     1       7.446   4.845  14.533  0.00  0.00    +0.000 Cl
ATOM     19  C   UNL     1       6.398   6.160  16.644  0.00  0.00    +0.000 A 
ATOM     20  C   UNL     1       5.420   6.375  17.622  0.00  0.00    +0.000 A 
ENDBRANCH  10  14
BRANCH   1  22
ATOM     21  C   UNL     1      -1.379  11.925  21.353  0.00  0.00    +0.000 C 
ATOM     22  S   UNL     1      -1.035  11.659  19.626  0.00  0.00    +0.000 S 
ATOM     23  O   UNL     1      -1.610  10.386  19.241  0.00  0.00    +0.000 OA
ATOM     24  O   UNL     1      -1.377  12.866  18.908  0.00  0.00    +0.000 OA
ENDBRANCH   1  22
TORSDOF 2
ENDMDL
MODEL 3
REMARK VINA RESULT:      -6.6      1.025      1.117
REMARK  Name = 
REMARK  3 active torsions:
REMARK  status: ('A' for Active; 'I' for Inactive)
REMARK    1  A    between atoms: C_1  and  S_2
REMARK    2  A    between atoms: S_2  and  N_5
REMARK    3  A    between atoms: N_14  and  C_15
REMARK                            x       y       z     vdW  Elec       q    Type
REMARK                         _______ _______ _______ _____ _____    ______ ____
ROOT
ATOM      1  N   UNL     1       0.634  11.960  19.458  0.00  0.00    +0.000 NA
ATOM      2  C   UNL     1       1.260  11.409  20.713  0.00  0.00    +0.000 C 
ATOM      3  C   UNL     1       0.959   9.908  20.889  0.00  0.00    +0.000 C 
ATOM      4  N   UNL     1       1.410   9.154  19.709  0.00  0.00    +0.000 N 
ATOM      5  C   UNL     1       1.813   7.828  19.768  0.00  0.00    +0.000 A 
ATOM      6  C   UNL     1       1.350   6.937  20.858  0.00  0.00    +0.000 A 
ATOM      7  C   UNL     1       1.701   5.654  20.815  0.00  0.00    +0.000 A 
ATOM      8  C   UNL     1       2.555   5.129  19.731  0.00  0.00    +0.000 A 
ATOM      9  O   UNL     1       2.835   3.932  19.777  0.00  0.00    +0.000 OA
ATOM     10  N   UNL     1       2.997   6.072  18.803  0.00  0.00    +0.000 N 
ATOM     11  N   UNL     1       2.608   7.394  18.826  0.00  0.00    +0.000 NA
ATOM     12  C   UNL     1       0.890   9.666  18.424  0.00  0.00    +0.000 C 
ATOM     13  C   UNL     1       1.137  11.175  18.283  0.00  0.00    +0.000 C 
ENDROOT
BRANCH  10  14
ATOM     14  C   UNL     1       3.885   5.756  17.723  0.00  0.00    +0.000 A 
ATOM     15  C   UNL     1       4.656   6.738  17.085  0.00  0.00    +0.000 A 
ATOM     16  C   UNL     1       5.505   6.413  16.021  0.00  0.00    +0.000 A 
ATOM     17  C   UNL     1       5.581   5.101  15.569  0.00  0.00    +0.000 A 
ATOM     18 CL   UNL     1       6.606   4.708  14.245  0.00  0.00    +0.000 Cl
ATOM     19  C   UNL     1       4.831   4.105  16.186  0.00  0.00    +0.000 A 
ATOM     20  C   UNL     1       4.002   4.430  17.266  0.00  0.00    +0.000 A 
ENDBRANCH  10  14
BRANCH   1  22
ATOM     21  C   UNL     1      -1.639  11.987  17.938  0.00  0.00    +0.000 C 
ATOM     22  S   UNL     1      -1.038  12.226  19.598  0.00  0.00    +0.000 S 
ATOM     23  O   UNL     1      -1.218  13.620  19.947  0.00  0.00    +0.000 OA
ATOM     24  O   UNL     1      -1.593  11.184  20.432  0.00  0.00    +0.000 OA
ENDBRANCH   1  22
TORSDOF 2
ENDMDL
MODEL 4
REMARK VINA RESULT:      -6.4      4.311      8.287
REMARK  Name = 
REMARK  3 active torsions:
REMARK  status: ('A' for Active; 'I' for Inactive)
REMARK    1  A    between atoms: C_1  and  S_2
REMARK    2  A    between atoms: S_2  and  N_5
REMARK    3  A    between atoms: N_14  and  C_15
REMARK                            x       y       z     vdW  Elec       q    Type
REMARK                         _______ _______ _______ _____ _____    ______ ____
ROOT
ATOM      1  N   UNL     1       3.125   3.700  20.034  0.00  0.00    +0.000 NA
ATOM      2  C   UNL     1       4.209   4.720  19.802  0.00  0.00    +0.000 C 
ATOM      3  C   UNL     1       3.745   5.841  18.852  0.00  0.00    +0.000 C 
ATOM      4  N   UNL     1       2.529   6.484  19.375  0.00  0.00    +0.000 N 
ATOM      5  C   UNL     1       2.203   7.807  19.117  0.00  0.00    +0.000 A 
ATOM      6  C   UNL     1       2.737   8.507  17.925  0.00  0.00    +0.000 A 
ATOM      7  C   UNL     1       2.323   9.748  17.684  0.00  0.00    +0.000 A 
ATOM      8  C   UNL     1       1.380  10.431  18.592  0.00  0.00    +0.000 A 
ATOM      9  O   UNL     1       1.058  11.580  18.294  0.00  0.00    +0.000 OA
ATOM     10  N   UNL     1       1.004   9.707  19.724  0.00  0.00    +0.000 N 
ATOM     11  N   UNL     1       1.405   8.409  19.959  0.00  0.00    +0.000 NA
ATOM     12  C   UNL     1       1.430   5.546  19.689  0.00  0.00    +0.000 C 
ATOM     13  C   UNL     1       1.916   4.396  20.584  0.00  0.00    +0.000 C 
ENDROOT
BRANCH  10  14
ATOM     14  C   UNL     1       0.149  10.234  20.747  0.00  0.00    +0.000 A 
ATOM     15  C   UNL     1       0.105   9.682  22.034  0.00  0.00    +0.000 A 
ATOM     16  C   UNL     1      -0.749  10.200  23.014  0.00  0.00    +0.000 A 
ATOM     17  C   UNL     1      -1.583  11.271  22.714  0.00  0.00    +0.000 A 
ATOM     18 CL   UNL     1      -2.649  11.890  23.913  0.00  0.00    +0.000 Cl
ATOM     19  C   UNL     1      -1.556  11.843  21.446  0.00  0.00    +0.000 A 
ATOM     20  C   UNL     1      -0.683  11.337  20.476  0.00  0.00    +0.000 A 
ENDBRANCH  10  14
BRANCH   1  22
ATOM     21  C   UNL     1       1.226   2.093  18.897  0.00  0.00    +0.000 C 
ATOM     22  S   UNL     1       2.918   2.626  18.733  0.00  0.00    +0.000 S 
ATOM     23  O   UNL     1       3.777   1.487  18.984  0.00  0.00    +0.000 OA
ATOM     24  O   UNL     1       3.036   3.378  17.505  0.00  0.00    +0.000 OA
ENDBRANCH   1  22
TORSDOF 2
ENDMDL
MODEL 5
REMARK VINA RESULT:      -6.2      3.576      5.536
REMARK  Name = 
REMARK  3 active torsions:
REMARK  status: ('A' for Active; 'I' for Inactive)
REMARK    1  A    between atoms: C_1  and  S_2
REMARK    2  A    between atoms: S_2  and  N_5
REMARK    3  A    between atoms: N_14  and  C_15
REMARK                            x       y       z     vdW  Elec       q    Type
REMARK                         _______ _______ _______ _____ _____    ______ ____
ROOT
ATOM      1  N   UNL     1       1.923  15.773  19.430  0.00  0.00    +0.000 NA
ATOM      2  C   UNL     1       2.033  15.419  20.890  0.00  0.00    +0.000 C 
ATOM      3  C   UNL     1       0.945  14.415  21.318  0.00  0.00    +0.000 C 
ATOM      4  N   UNL     1       1.010  13.205  20.483  0.00  0.00    +0.000 N 
ATOM      5  C   UNL     1       0.613  11.954  20.934  0.00  0.00    +0.000 A 
ATOM      6  C   UNL     1      -0.355  11.815  22.047  0.00  0.00    +0.000 A 
ATOM      7  C   UNL     1      -0.762  10.593  22.379  0.00  0.00    +0.000 A 
ATOM      8  C   UNL     1      -0.245   9.397  21.684  0.00  0.00    +0.000 A 
ATOM      9  O   UNL     1      -0.673   8.308  22.063  0.00  0.00    +0.000 OA
ATOM     10  N   UNL     1       0.719   9.640  20.705  0.00  0.00    +0.000 N 
ATOM     11  N   UNL     1       1.118  10.907  20.337  0.00  0.00    +0.000 NA
ATOM     12  C   UNL     1       0.969  13.465  19.028  0.00  0.00    +0.000 C 
ATOM     13  C   UNL     1       2.013  14.514  18.619  0.00  0.00    +0.000 C 
ENDROOT
BRANCH  10  14
ATOM     14  C   UNL     1       1.379   8.599  19.975  0.00  0.00    +0.000 A 
ATOM     15  C   UNL     1       1.722   8.743  18.623  0.00  0.00    +0.000 A 
ATOM     16  C   UNL     1       2.351   7.708  17.922  0.00  0.00    +0.000 A 
ATOM     17  C   UNL     1       2.630   6.506  18.562  0.00  0.00    +0.000 A 
ATOM     18 CL   UNL     1       3.380   5.226  17.690  0.00  0.00    +0.000 Cl
ATOM     19  C   UNL     1       2.305   6.336  19.903  0.00  0.00    +0.000 A 
ATOM     20  C   UNL     1       1.699   7.383  20.608  0.00  0.00    +0.000 A 
ENDBRANCH  10  14
BRANCH   1  22
ATOM     21  C   UNL     1       1.302  17.828  17.735  0.00  0.00    +0.000 C 
ATOM     22  S   UNL     1       0.666  16.864  19.092  0.00  0.00    +0.000 S 
ATOM     23  O   UNL     1       0.538  17.734  20.243  0.00  0.00    +0.000 OA
ATOM     24  O   UNL     1      -0.470  16.110  18.613  0.00  0.00    +0.000 OA
ENDBRANCH   1  22
TORSDOF 2
ENDMDL
MODEL 6
REMARK VINA RESULT:      -6.1      4.354      8.341
REMARK  Name = 
REMARK  3 active torsions:
REMARK  status: ('A' for Active; 'I' for Inactive)
REMARK    1  A    between atoms: C_1  and  S_2
REMARK    2  A    between atoms: S_2  and  N_5
REMARK    3  A    between atoms: N_14  and  C_15
REMARK                            x       y       z     vdW  Elec       q    Type
REMARK                         _______ _______ _______ _____ _____    ______ ____
ROOT
ATOM      1  N   UNL     1       2.916   3.690  20.253  0.00  0.00    +0.000 NA
ATOM      2  C   UNL     1       4.019   4.684  19.996  0.00  0.00    +0.000 C 
ATOM      3  C   UNL     1       3.580   5.781  19.006  0.00  0.00    +0.000 C 
ATOM      4  N   UNL     1       2.372   6.461  19.499  0.00  0.00    +0.000 N 
ATOM      5  C   UNL     1       2.071   7.781  19.196  0.00  0.00    +0.000 A 
ATOM      6  C   UNL     1       2.625   8.432  17.985  0.00  0.00    +0.000 A 
ATOM      7  C   UNL     1       2.233   9.671  17.702  0.00  0.00    +0.000 A 
ATOM      8  C   UNL     1       1.296  10.399  18.580  0.00  0.00    +0.000 A 
ATOM      9  O   UNL     1       0.996  11.543  18.242  0.00  0.00    +0.000 OA
ATOM     10  N   UNL     1       0.900   9.719  19.732  0.00  0.00    +0.000 N 
ATOM     11  N   UNL     1       1.278   8.423  20.011  0.00  0.00    +0.000 NA
ATOM     12  C   UNL     1       1.256   5.552  19.835  0.00  0.00    +0.000 C 
ATOM     13  C   UNL     1       1.715   4.425  20.771  0.00  0.00    +0.000 C 
ENDROOT
BRANCH  10  14
ATOM     14  C   UNL     1       0.047  10.294  20.730  0.00  0.00    +0.000 A 
ATOM     15  C   UNL     1      -0.819  11.358  20.443  0.00  0.00    +0.000 A 
ATOM     16  C   UNL     1      -1.632  11.916  21.436  0.00  0.00    +0.000 A 
ATOM     17  C   UNL     1      -1.577  11.427  22.736  0.00  0.00    +0.000 A 
ATOM     18 CL   UNL     1      -2.559  12.132  23.959  0.00  0.00    +0.000 Cl
ATOM     19  C   UNL     1      -0.731  10.368  23.048  0.00  0.00    +0.000 A 
ATOM     20  C   UNL     1       0.063   9.796  22.047  0.00  0.00    +0.000 A 
ENDBRANCH  10  14
BRANCH   1  22
ATOM     21  C   UNL     1       4.123   1.514  19.119  0.00  0.00    +0.000 C 
ATOM     22  S   UNL     1       2.701   2.578  18.986  0.00  0.00    +0.000 S 
ATOM     23  O   UNL     1       2.806   3.321  17.747  0.00  0.00    +0.000 OA
ATOM     24  O   UNL     1       1.523   1.792  19.273  0.00  0.00    +0.000 OA
ENDBRANCH   1  22
TORSDOF 2
ENDMDL
MODEL 7
REMARK VINA RESULT:      -6.1      3.493      5.404
REMARK  Name = 
REMARK  3 active torsions:
REMARK  status: ('A' for Active; 'I' for Inactive)
REMARK    1  A    between atoms: C_1  and  S_2
REMARK    2  A    between atoms: S_2  and  N_5
REMARK    3  A    between atoms: N_14  and  C_15
REMARK                            x       y       z     vdW  Elec       q    Type
REMARK                         _______ _______ _______ _____ _____    ______ ____
ROOT
ATOM      1  N   UNL     1       2.276  15.572  19.413  0.00  0.00    +0.000 NA
ATOM      2  C   UNL     1       2.323  15.212  20.876  0.00  0.00    +0.000 C 
ATOM      3  C   UNL     1       1.185  14.248  21.264  0.00  0.00    +0.000 C 
ATOM      4  N   UNL     1       1.232  13.038  20.428  0.00  0.00    +0.000 N 
ATOM      5  C   UNL     1       0.774  11.802  20.861  0.00  0.00    +0.000 A 
ATOM      6  C   UNL     1      -0.235  11.698  21.941  0.00  0.00    +0.000 A 
ATOM      7  C   UNL     1      -0.699  10.491  22.256  0.00  0.00    +0.000 A 
ATOM      8  C   UNL     1      -0.204   9.278  21.574  0.00  0.00    +0.000 A 
ATOM      9  O   UNL     1      -0.685   8.205  21.936  0.00  0.00    +0.000 OA
ATOM     10  N   UNL     1       0.801   9.486  20.630  0.00  0.00    +0.000 N 
ATOM     11  N   UNL     1       1.259  10.738  20.278  0.00  0.00    +0.000 NA
ATOM     12  C   UNL     1       1.250  13.302  18.973  0.00  0.00    +0.000 C 
ATOM     13  C   UNL     1       2.346  14.312  18.603  0.00  0.00    +0.000 C 
ENDROOT
BRANCH  10  14
ATOM     14  C   UNL     1       1.445   8.422  19.918  0.00  0.00    +0.000 A 
ATOM     15  C   UNL     1       1.778   7.210  20.539  0.00  0.00    +0.000 A 
ATOM     16  C   UNL     1       2.422   6.189  19.832  0.00  0.00    +0.000 A 
ATOM     17  C   UNL     1       2.755   6.373  18.495  0.00  0.00    +0.000 A 
ATOM     18 CL   UNL     1       3.569   5.125  17.635  0.00  0.00    +0.000 Cl
ATOM     19  C   UNL     1       2.432   7.563  17.852  0.00  0.00    +0.000 A 
ATOM     20  C   UNL     1       1.766   8.573  18.556  0.00  0.00    +0.000 A 
ENDBRANCH  10  14
BRANCH   1  22
ATOM     21  C   UNL     1       1.725  17.550  17.608  0.00  0.00    +0.000 C 
ATOM     22  S   UNL     1       1.072  16.710  19.037  0.00  0.00    +0.000 S 
ATOM     23  O   UNL     1       1.024  17.655  20.133  0.00  0.00    +0.000 OA
ATOM     24  O   UNL     1      -0.116  15.993  18.633  0.00  0.00    +0.000 OA
ENDBRANCH   1  22
TORSDOF 2
ENDMDL
MODEL 8
REMARK VINA RESULT:      -6.1      4.508      6.914
REMARK  Name = 
REMARK  3 active torsions:
REMARK  status: ('A' for Active; 'I' for Inactive)
REMARK    1  A    between atoms: C_1  and  S_2
REMARK    2  A    between atoms: S_2  and  N_5
REMARK    3  A    between atoms: N_14  and  C_15
REMARK                            x       y       z     vdW  Elec       q    Type
REMARK                         _______ _______ _______ _____ _____    ______ ____
ROOT
ATOM      1  N   UNL     1       3.766  16.155  21.158  0.00  0.00    +0.000 NA
ATOM      2  C   UNL     1       2.355  16.049  21.677  0.00  0.00    +0.000 C 
ATOM      3  C   UNL     1       1.387  15.529  20.596  0.00  0.00    +0.000 C 
ATOM      4  N   UNL     1       1.849  14.231  20.077  0.00  0.00    +0.000 N 
ATOM      5  C   UNL     1       0.986  13.269  19.574  0.00  0.00    +0.000 A 
ATOM      6  C   UNL     1      -0.348  13.640  19.046  0.00  0.00    +0.000 A 
ATOM      7  C   UNL     1      -1.096  12.686  18.498  0.00  0.00    +0.000 A 
ATOM      8  C   UNL     1      -0.632  11.285  18.442  0.00  0.00    +0.000 A 
ATOM      9  O   UNL     1      -1.394  10.470  17.924  0.00  0.00    +0.000 OA
ATOM     10  N   UNL     1       0.604  11.036  19.039  0.00  0.00    +0.000 N 
ATOM     11  N   UNL     1       1.396  12.028  19.577  0.00  0.00    +0.000 NA
ATOM     12  C   UNL     1       3.249  14.229  19.602  0.00  0.00    +0.000 C 
ATOM     13  C   UNL     1       4.199  14.808  20.660  0.00  0.00    +0.000 C 
ENDROOT
BRANCH  10  14
ATOM     14  C   UNL     1       1.181   9.728  19.136  0.00  0.00    +0.000 A 
ATOM     15  C   UNL     1       1.117   8.975  20.317  0.00  0.00    +0.000 A 
ATOM     16  C   UNL     1       1.701   7.706  20.398  0.00  0.00    +0.000 A 
ATOM     17  C   UNL     1       2.373   7.179  19.300  0.00  0.00    +0.000 A 
ATOM     18 CL   UNL     1       3.112   5.630  19.411  0.00  0.00    +0.000 Cl
ATOM     19  C   UNL     1       2.448   7.902  18.115  0.00  0.00    +0.000 A 
ATOM     20  C   UNL     1       1.841   9.161  18.030  0.00  0.00    +0.000 A 
ENDBRANCH  10  14
BRANCH   1  22
ATOM     21  C   UNL     1       5.236  18.458  21.050  0.00  0.00    +0.000 C 
ATOM     22  S   UNL     1       4.020  17.507  20.161  0.00  0.00    +0.000 S 
ATOM     23  O   UNL     1       2.783  18.259  20.144  0.00  0.00    +0.000 OA
ATOM     24  O   UNL     1       4.619  17.051  18.927  0.00  0.00    +0.000 OA
ENDBRANCH   1  22
TORSDOF 2
ENDMDL
MODEL 9
REMARK VINA RESULT:      -6.0      3.687      5.546
REMARK  Name = 
REMARK  3 active torsions:
REMARK  status: ('A' for Active; 'I' for Inactive)
REMARK    1  A    between atoms: C_1  and  S_2
REMARK    2  A    between atoms: S_2  and  N_5
REMARK    3  A    between atoms: N_14  and  C_15
REMARK                            x       y       z     vdW  Elec       q    Type
REMARK                         _______ _______ _______ _____ _____    ______ ____
ROOT
ATOM      1  N   UNL     1       2.948  15.490  19.127  0.00  0.00    +0.000 NA
ATOM      2  C   UNL     1       2.869  15.186  20.600  0.00  0.00    +0.000 C 
ATOM      3  C   UNL     1       1.633  14.330  20.940  0.00  0.00    +0.000 C 
ATOM      4  N   UNL     1       1.639  13.087  20.152  0.00  0.00    +0.000 N 
ATOM      5  C   UNL     1       1.055  11.909  20.595  0.00  0.00    +0.000 A 
ATOM      6  C   UNL     1      -0.029  11.926  21.604  0.00  0.00    +0.000 A 
ATOM      7  C   UNL     1      -0.608  10.773  21.927  0.00  0.00    +0.000 A 
ATOM      8  C   UNL     1      -0.168   9.499  21.324  0.00  0.00    +0.000 A 
ATOM      9  O   UNL     1      -0.756   8.482  21.687  0.00  0.00    +0.000 OA
ATOM     10  N   UNL     1       0.912   9.591  20.445  0.00  0.00    +0.000 N 
ATOM     11  N   UNL     1       1.492  10.788  20.084  0.00  0.00    +0.000 NA
ATOM     12  C   UNL     1       1.775  13.291  18.694  0.00  0.00    +0.000 C 
ATOM     13  C   UNL     1       2.971  14.197  18.367  0.00  0.00    +0.000 C 
ENDROOT
BRANCH  10  14
ATOM     14  C   UNL     1       1.515   8.452  19.818  0.00  0.00    +0.000 A 
ATOM     15  C   UNL     1       1.746   7.258  20.513  0.00  0.00    +0.000 A 
ATOM     16  C   UNL     1       2.351   6.162  19.888  0.00  0.00    +0.000 A 
ATOM     17  C   UNL     1       2.748   6.253  18.559  0.00  0.00    +0.000 A 
ATOM     18 CL   UNL     1       3.514   4.913  17.799  0.00  0.00    +0.000 Cl
ATOM     19  C   UNL     1       2.526   7.424  17.842  0.00  0.00    +0.000 A 
ATOM     20  C   UNL     1       1.898   8.509  18.464  0.00  0.00    +0.000 A 
ENDBRANCH  10  14
BRANCH   1  22
ATOM     21  C   UNL     1       1.853  17.838  20.001  0.00  0.00    +0.000 C 
ATOM     22  S   UNL     1       1.868  16.703  18.628  0.00  0.00    +0.000 S 
ATOM     23  O   UNL     1       0.558  16.091  18.534  0.00  0.00    +0.000 OA
ATOM     24  O   UNL     1       2.445  17.381  17.490  0.00  0.00    +0.000 OA
ENDBRANCH   1  22
TORSDOF 2
ENDMDL
