MODEL 1
REMARK VINA RESULT:      -7.0      0.000      0.000
REMARK  Name = 
REMARK  5 active torsions:
REMARK  status: ('A' for Active; 'I' for Inactive)
REMARK    1  A    between atoms: C_2  and  C_3
REMARK    2  A    between atoms: C_3  and  O_4
REMARK    3  A    between atoms: O_4  and  C_5
REMARK    4  A    between atoms: C_5  and  C_7
REMARK    5  A    between atoms: N_12  and  C_13
REMARK                            x       y       z     vdW  Elec       q    Type
REMARK                         _______ _______ _______ _____ _____    ______ ____
ROOT
ATOM      1  O   UNL     1       7.429   8.885  17.447  0.00  0.00    +0.000 OA
ATOM      2  C   UNL     1       8.119   8.317  18.289  0.00  0.00    +0.000 C 
ATOM      3  N   UNL     1       9.040   8.916  19.137  0.00  0.00    +0.000 N 
ATOM      4  H   UNL     1       9.610   8.288  19.694  0.00  0.00    +0.000 HD
ENDROOT
BRANCH   3   5
ATOM      5  C   UNL     1       9.347  10.291  19.203  0.00  0.00    +0.000 A 
ATOM      6  C   UNL     1       9.332  11.026  20.392  0.00  0.00    +0.000 A 
ATOM      7  C   UNL     1       9.604  12.397  20.392  0.00  0.00    +0.000 A 
ATOM      8  C   UNL     1       9.898  13.043  19.195  0.00  0.00    +0.000 A 
ATOM      9 BR   UNL     1      10.217  14.905  19.190  0.00  0.00    +0.000 Br
ATOM     10  C   UNL     1       9.950  12.322  18.005  0.00  0.00    +0.000 A 
ATOM     11  C   UNL     1       9.685  10.946  18.011  0.00  0.00    +0.000 A 
ENDBRANCH   3   5
BRANCH   2  12
ATOM     12  C   UNL     1       7.954   6.818  18.534  0.00  0.00    +0.000 C 
BRANCH  12  13
ATOM     13  O   UNL     1       7.056   6.166  17.640  0.00  0.00    +0.000 OA
BRANCH  13  14
ATOM     14  C   UNL     1       7.453   4.925  17.232  0.00  0.00    +0.000 C 
ATOM     15  O   UNL     1       8.098   4.142  17.920  0.00  0.00    +0.000 OA
BRANCH  14  16
ATOM     16  C   UNL     1       7.000   4.676  15.886  0.00  0.00    +0.000 A 
ATOM     17  C   UNL     1       5.959   3.896  15.412  0.00  0.00    +0.000 A 
ATOM     18  C   UNL     1       5.975   4.005  14.000  0.00  0.00    +0.000 A 
ATOM     19  C   UNL     1       7.025   4.836  13.693  0.00  0.00    +0.000 A 
ATOM     20  O   UNL     1       7.649   5.253  14.825  0.00  0.00    +0.000 OA
ENDBRANCH  14  16
ENDBRANCH  13  14
ENDBRANCH  12  13
ENDBRANCH   2  12
TORSDOF 5
ENDMDL
MODEL 2
REMARK VINA RESULT:      -6.9      6.337      7.516
REMARK  Name = 
REMARK  5 active torsions:
REMARK  status: ('A' for Active; 'I' for Inactive)
REMARK    1  A    between atoms: C_2  and  C_3
REMARK    2  A    between atoms: C_3  and  O_4
REMARK    3  A    between atoms: O_4  and  C_5
REMARK    4  A    between atoms: C_5  and  C_7
REMARK    5  A    between atoms: N_12  and  C_13
REMARK                            x       y       z     vdW  Elec       q    Type
REMARK                         _______ _______ _______ _____ _____    ______ ____
ROOT
ATOM      1  O   UNL     1       4.920   5.492  19.415  0.00  0.00    +0.000 OA
ATOM      2  C   UNL     1       4.187   5.094  18.514  0.00  0.00    +0.000 C 
ATOM      3  N   UNL     1       3.002   5.683  18.097  0.00  0.00    +0.000 N 
ATOM      4  H   UNL     1       2.458   5.163  17.416  0.00  0.00    +0.000 HD
ENDROOT
BRANCH   3   5
ATOM      5  C   UNL     1       2.423   6.859  18.619  0.00  0.00    +0.000 A 
ATOM      6  C   UNL     1       2.187   8.004  17.853  0.00  0.00    +0.000 A 
ATOM      7  C   UNL     1       1.648   9.157  18.433  0.00  0.00    +0.000 A 
ATOM      8  C   UNL     1       1.339   9.168  19.789  0.00  0.00    +0.000 A 
ATOM      9 BR   UNL     1       0.657  10.743  20.581  0.00  0.00    +0.000 Br
ATOM     10  C   UNL     1       1.537   8.027  20.561  0.00  0.00    +0.000 A 
ATOM     11  C   UNL     1       2.068   6.871  19.974  0.00  0.00    +0.000 A 
ENDBRANCH   3   5
BRANCH   2  12
ATOM     12  C   UNL     1       4.586   3.878  17.679  0.00  0.00    +0.000 C 
BRANCH  12  13
ATOM     13  O   UNL     1       3.540   2.931  17.474  0.00  0.00    +0.000 OA
BRANCH  13  14
ATOM     14  C   UNL     1       3.438   1.972  18.441  0.00  0.00    +0.000 C 
ATOM     15  O   UNL     1       3.964   0.866  18.379  0.00  0.00    +0.000 OA
BRANCH  14  16
ATOM     16  C   UNL     1       2.632   2.452  19.535  0.00  0.00    +0.000 A 
ATOM     17  C   UNL     1       1.309   2.858  19.573  0.00  0.00    +0.000 A 
ATOM     18  C   UNL     1       1.036   3.242  20.909  0.00  0.00    +0.000 A 
ATOM     19  C   UNL     1       2.204   3.055  21.606  0.00  0.00    +0.000 A 
ATOM     20  O   UNL     1       3.175   2.573  20.788  0.00  0.00    +0.000 OA
ENDBRANCH  14  16
ENDBRANCH  13  14
ENDBRANCH  12  13
ENDBRANCH   2  12
TORSDOF 5
ENDMDL
MODEL 3
REMARK VINA RESULT:      -6.9      5.696      6.484
REMARK  Name = 
REMARK  5 active torsions:
REMARK  status: ('A' for Active; 'I' for Inactive)
REMARK    1  A    between atoms: C_2  and  C_3
REMARK    2  A    between atoms: C_3  and  O_4
REMARK    3  A    between atoms: O_4  and  C_5
REMARK    4  A    between atoms: C_5  and  C_7
REMARK    5  A    between atoms: N_12  and  C_13
REMARK                            x       y       z     vdW  Elec       q    Type
REMARK                         _______ _______ _______ _____ _____    ______ ____
ROOT
ATOM      1  O   UNL     1       1.920   4.871  18.228  0.00  0.00    +0.000 OA
ATOM      2  C   UNL     1       2.757   5.131  19.088  0.00  0.00    +0.000 C 
ATOM      3  N   UNL     1       2.955   6.362  19.696  0.00  0.00    +0.000 N 
ATOM      4  H   UNL     1       3.765   6.437  20.304  0.00  0.00    +0.000 HD
ENDROOT
BRANCH   3   5
ATOM      5  C   UNL     1       2.223   7.544  19.453  0.00  0.00    +0.000 A 
ATOM      6  C   UNL     1       2.173   8.174  18.206  0.00  0.00    +0.000 A 
ATOM      7  C   UNL     1       1.464   9.367  18.033  0.00  0.00    +0.000 A 
ATOM      8  C   UNL     1       0.795   9.935  19.112  0.00  0.00    +0.000 A 
ATOM      9 BR   UNL     1      -0.122  11.572  18.888  0.00  0.00    +0.000 Br
ATOM     10  C   UNL     1       0.807   9.305  20.354  0.00  0.00    +0.000 A 
ATOM     11  C   UNL     1       1.510   8.105  20.520  0.00  0.00    +0.000 A 
ENDBRANCH   3   5
BRANCH   2  12
ATOM     12  C   UNL     1       3.657   4.028  19.644  0.00  0.00    +0.000 C 
BRANCH  12  13
ATOM     13  O   UNL     1       4.618   3.525  18.719  0.00  0.00    +0.000 OA
BRANCH  13  14
ATOM     14  C   UNL     1       5.704   4.329  18.526  0.00  0.00    +0.000 C 
ATOM     15  O   UNL     1       6.323   4.886  19.426  0.00  0.00    +0.000 OA
BRANCH  14  16
ATOM     16  C   UNL     1       6.012   4.421  17.121  0.00  0.00    +0.000 A 
ATOM     17  C   UNL     1       7.202   4.700  16.472  0.00  0.00    +0.000 A 
ATOM     18  C   UNL     1       6.929   4.672  15.082  0.00  0.00    +0.000 A 
ATOM     19  C   UNL     1       5.592   4.385  14.962  0.00  0.00    +0.000 A 
ATOM     20  O   UNL     1       5.027   4.226  16.187  0.00  0.00    +0.000 OA
ENDBRANCH  14  16
ENDBRANCH  13  14
ENDBRANCH  12  13
ENDBRANCH   2  12
TORSDOF 5
ENDMDL
MODEL 4
REMARK VINA RESULT:      -6.9      5.838      6.718
REMARK  Name = 
REMARK  5 active torsions:
REMARK  status: ('A' for Active; 'I' for Inactive)
REMARK    1  A    between atoms: C_2  and  C_3
REMARK    2  A    between atoms: C_3  and  O_4
REMARK    3  A    between atoms: O_4  and  C_5
REMARK    4  A    between atoms: C_5  and  C_7
REMARK    5  A    between atoms: N_12  and  C_13
REMARK                            x       y       z     vdW  Elec       q    Type
REMARK                         _______ _______ _______ _____ _____    ______ ____
ROOT
ATOM      1  O   UNL     1       1.117   4.607  20.197  0.00  0.00    +0.000 OA
ATOM      2  C   UNL     1       2.315   4.812  20.022  0.00  0.00    +0.000 C 
ATOM      3  N   UNL     1       2.908   6.033  19.735  0.00  0.00    +0.000 N 
ATOM      4  H   UNL     1       3.896   6.009  19.506  0.00  0.00    +0.000 HD
ENDROOT
BRANCH   3   5
ATOM      5  C   UNL     1       2.248   7.274  19.607  0.00  0.00    +0.000 A 
ATOM      6  C   UNL     1       1.566   7.893  20.658  0.00  0.00    +0.000 A 
ATOM      7  C   UNL     1       0.894   9.105  20.462  0.00  0.00    +0.000 A 
ATOM      8  C   UNL     1       0.906   9.706  19.208  0.00  0.00    +0.000 A 
ATOM      9 BR   UNL     1      -0.042  11.317  18.933  0.00  0.00    +0.000 Br
ATOM     10  C   UNL     1       1.607   9.120  18.157  0.00  0.00    +0.000 A 
ATOM     11  C   UNL     1       2.287   7.912  18.360  0.00  0.00    +0.000 A 
ENDBRANCH   3   5
BRANCH   2  12
ATOM     12  C   UNL     1       3.321   3.673  20.187  0.00  0.00    +0.000 C 
BRANCH  12  13
ATOM     13  O   UNL     1       4.425   3.723  19.287  0.00  0.00    +0.000 OA
BRANCH  13  14
ATOM     14  C   UNL     1       4.159   3.270  18.027  0.00  0.00    +0.000 C 
ATOM     15  O   UNL     1       3.545   2.239  17.777  0.00  0.00    +0.000 OA
BRANCH  14  16
ATOM     16  C   UNL     1       4.699   4.178  17.047  0.00  0.00    +0.000 A 
ATOM     17  C   UNL     1       5.458   3.940  15.914  0.00  0.00    +0.000 A 
ATOM     18  C   UNL     1       5.721   5.200  15.324  0.00  0.00    +0.000 A 
ATOM     19  C   UNL     1       5.116   6.133  16.129  0.00  0.00    +0.000 A 
ATOM     20  O   UNL     1       4.489   5.528  17.171  0.00  0.00    +0.000 OA
ENDBRANCH  14  16
ENDBRANCH  13  14
ENDBRANCH  12  13
ENDBRANCH   2  12
TORSDOF 5
ENDMDL
MODEL 5
REMARK VINA RESULT:      -6.9      6.071      7.205
REMARK  Name = 
REMARK  5 active torsions:
REMARK  status: ('A' for Active; 'I' for Inactive)
REMARK    1  A    between atoms: C_2  and  C_3
REMARK    2  A    between atoms: C_3  and  O_4
REMARK    3  A    between atoms: O_4  and  C_5
REMARK    4  A    between atoms: C_5  and  C_7
REMARK    5  A    between atoms: N_12  and  C_13
REMARK                            x       y       z     vdW  Elec       q    Type
REMARK                         _______ _______ _______ _____ _____    ______ ____
ROOT
ATOM      1  O   UNL     1       5.050   7.121  17.528  0.00  0.00    +0.000 OA
ATOM      2  C   UNL     1       4.266   6.186  17.658  0.00  0.00    +0.000 C 
ATOM      3  N   UNL     1       2.982   6.256  18.181  0.00  0.00    +0.000 N 
ATOM      4  H   UNL     1       2.508   5.370  18.326  0.00  0.00    +0.000 HD
ENDROOT
BRANCH   3   5
ATOM      5  C   UNL     1       2.330   7.417  18.647  0.00  0.00    +0.000 A 
ATOM      6  C   UNL     1       1.967   7.612  19.982  0.00  0.00    +0.000 A 
ATOM      7  C   UNL     1       1.285   8.766  20.379  0.00  0.00    +0.000 A 
ATOM      8  C   UNL     1       0.966   9.738  19.437  0.00  0.00    +0.000 A 
ATOM      9 BR   UNL     1       0.001  11.275  19.967  0.00  0.00    +0.000 Br
ATOM     10  C   UNL     1       1.348   9.578  18.108  0.00  0.00    +0.000 A 
ATOM     11  C   UNL     1       2.040   8.424  17.716  0.00  0.00    +0.000 A 
ENDBRANCH   3   5
BRANCH   2  12
ATOM     12  C   UNL     1       4.640   4.791  17.156  0.00  0.00    +0.000 C 
BRANCH  12  13
ATOM     13  O   UNL     1       3.904   3.728  17.755  0.00  0.00    +0.000 OA
BRANCH  13  14
ATOM     14  C   UNL     1       4.237   3.459  19.051  0.00  0.00    +0.000 C 
ATOM     15  O   UNL     1       5.387   3.346  19.463  0.00  0.00    +0.000 OA
BRANCH  14  16
ATOM     16  C   UNL     1       3.047   3.332  19.855  0.00  0.00    +0.000 A 
ATOM     17  C   UNL     1       2.846   2.725  21.083  0.00  0.00    +0.000 A 
ATOM     18  C   UNL     1       1.476   2.892  21.403  0.00  0.00    +0.000 A 
ATOM     19  C   UNL     1       0.920   3.582  20.354  0.00  0.00    +0.000 A 
ATOM     20  O   UNL     1       1.861   3.860  19.415  0.00  0.00    +0.000 OA
ENDBRANCH  14  16
ENDBRANCH  13  14
ENDBRANCH  12  13
ENDBRANCH   2  12
TORSDOF 5
ENDMDL
MODEL 6
REMARK VINA RESULT:      -6.9      6.142      7.461
REMARK  Name = 
REMARK  5 active torsions:
REMARK  status: ('A' for Active; 'I' for Inactive)
REMARK    1  A    between atoms: C_2  and  C_3
REMARK    2  A    between atoms: C_3  and  O_4
REMARK    3  A    between atoms: O_4  and  C_5
REMARK    4  A    between atoms: C_5  and  C_7
REMARK    5  A    between atoms: N_12  and  C_13
REMARK                            x       y       z     vdW  Elec       q    Type
REMARK                         _______ _______ _______ _____ _____    ______ ____
ROOT
ATOM      1  O   UNL     1       4.330   6.999  17.724  0.00  0.00    +0.000 OA
ATOM      2  C   UNL     1       4.553   6.083  16.938  0.00  0.00    +0.000 C 
ATOM      3  N   UNL     1       4.179   4.756  17.094  0.00  0.00    +0.000 N 
ATOM      4  H   UNL     1       4.541   4.104  16.406  0.00  0.00    +0.000 HD
ENDROOT
BRANCH   3   5
ATOM      5  C   UNL     1       3.458   4.211  18.178  0.00  0.00    +0.000 A 
ATOM      6  C   UNL     1       2.086   4.405  18.363  0.00  0.00    +0.000 A 
ATOM      7  C   UNL     1       1.431   3.875  19.480  0.00  0.00    +0.000 A 
ATOM      8  C   UNL     1       2.149   3.142  20.418  0.00  0.00    +0.000 A 
ATOM      9 BR   UNL     1       1.272   2.469  21.951  0.00  0.00    +0.000 Br
ATOM     10  C   UNL     1       3.510   2.911  20.234  0.00  0.00    +0.000 A 
ATOM     11  C   UNL     1       4.160   3.435  19.109  0.00  0.00    +0.000 A 
ENDBRANCH   3   5
BRANCH   2  12
ATOM     12  C   UNL     1       5.243   6.365  15.604  0.00  0.00    +0.000 C 
BRANCH  12  13
ATOM     13  O   UNL     1       6.667   6.330  15.654  0.00  0.00    +0.000 OA
BRANCH  13  14
ATOM     14  C   UNL     1       7.215   5.088  15.502  0.00  0.00    +0.000 C 
ATOM     15  O   UNL     1       7.793   4.472  16.391  0.00  0.00    +0.000 OA
BRANCH  14  16
ATOM     16  C   UNL     1       7.011   4.615  14.156  0.00  0.00    +0.000 A 
ATOM     17  C   UNL     1       6.241   3.572  13.671  0.00  0.00    +0.000 A 
ATOM     18  C   UNL     1       6.419   3.550  12.266  0.00  0.00    +0.000 A 
ATOM     19  C   UNL     1       7.288   4.572  11.975  0.00  0.00    +0.000 A 
ATOM     20  O   UNL     1       7.649   5.227  13.108  0.00  0.00    +0.000 OA
ENDBRANCH  14  16
ENDBRANCH  13  14
ENDBRANCH  12  13
ENDBRANCH   2  12
TORSDOF 5
ENDMDL
MODEL 7
REMARK VINA RESULT:      -6.9      6.273      7.445
REMARK  Name = 
REMARK  5 active torsions:
REMARK  status: ('A' for Active; 'I' for Inactive)
REMARK    1  A    between atoms: C_2  and  C_3
REMARK    2  A    between atoms: C_3  and  O_4
REMARK    3  A    between atoms: O_4  and  C_5
REMARK    4  A    between atoms: C_5  and  C_7
REMARK    5  A    between atoms: N_12  and  C_13
REMARK                            x       y       z     vdW  Elec       q    Type
REMARK                         _______ _______ _______ _____ _____    ______ ____
ROOT
ATOM      1  O   UNL     1       4.774   5.666  19.541  0.00  0.00    +0.000 OA
ATOM      2  C   UNL     1       4.139   5.393  18.526  0.00  0.00    +0.000 C 
ATOM      3  N   UNL     1       3.030   6.071  18.043  0.00  0.00    +0.000 N 
ATOM      4  H   UNL     1       2.553   5.647  17.254  0.00  0.00    +0.000 HD
ENDROOT
BRANCH   3   5
ATOM      5  C   UNL     1       2.430   7.212  18.617  0.00  0.00    +0.000 A 
ATOM      6  C   UNL     1       2.033   7.280  19.955  0.00  0.00    +0.000 A 
ATOM      7  C   UNL     1       1.405   8.424  20.460  0.00  0.00    +0.000 A 
ATOM      8  C   UNL     1       1.175   9.511  19.624  0.00  0.00    +0.000 A 
ATOM      9 BR   UNL     1       0.284  11.036  20.295  0.00  0.00    +0.000 Br
ATOM     10  C   UNL     1       1.593   9.475  18.296  0.00  0.00    +0.000 A 
ATOM     11  C   UNL     1       2.230   8.331  17.797  0.00  0.00    +0.000 A 
ENDBRANCH   3   5
BRANCH   2  12
ATOM     12  C   UNL     1       4.596   4.252  17.618  0.00  0.00    +0.000 C 
BRANCH  12  13
ATOM     13  O   UNL     1       4.228   2.951  18.070  0.00  0.00    +0.000 OA
BRANCH  13  14
ATOM     14  C   UNL     1       2.884   2.712  18.096  0.00  0.00    +0.000 C 
ATOM     15  O   UNL     1       2.198   2.502  17.102  0.00  0.00    +0.000 OA
BRANCH  14  16
ATOM     16  C   UNL     1       2.400   2.739  19.454  0.00  0.00    +0.000 A 
ATOM     17  C   UNL     1       1.122   2.919  19.954  0.00  0.00    +0.000 A 
ATOM     18  C   UNL     1       1.223   2.864  21.366  0.00  0.00    +0.000 A 
ATOM     19  C   UNL     1       2.552   2.661  21.646  0.00  0.00    +0.000 A 
ATOM     20  O   UNL     1       3.273   2.578  20.498  0.00  0.00    +0.000 OA
ENDBRANCH  14  16
ENDBRANCH  13  14
ENDBRANCH  12  13
ENDBRANCH   2  12
TORSDOF 5
ENDMDL
MODEL 8
REMARK VINA RESULT:      -6.8      5.814      6.306
REMARK  Name = 
REMARK  5 active torsions:
REMARK  status: ('A' for Active; 'I' for Inactive)
REMARK    1  A    between atoms: C_2  and  C_3
REMARK    2  A    between atoms: C_3  and  O_4
REMARK    3  A    between atoms: O_4  and  C_5
REMARK    4  A    between atoms: C_5  and  C_7
REMARK    5  A    between atoms: N_12  and  C_13
REMARK                            x       y       z     vdW  Elec       q    Type
REMARK                         _______ _______ _______ _____ _____    ______ ____
ROOT
ATOM      1  O   UNL     1       2.045   4.781  17.619  0.00  0.00    +0.000 OA
ATOM      2  C   UNL     1       3.175   5.221  17.809  0.00  0.00    +0.000 C 
ATOM      3  N   UNL     1       3.496   6.483  18.288  0.00  0.00    +0.000 N 
ATOM      4  H   UNL     1       4.480   6.729  18.279  0.00  0.00    +0.000 HD
ENDROOT
BRANCH   3   5
ATOM      5  C   UNL     1       2.585   7.494  18.661  0.00  0.00    +0.000 A 
ATOM      6  C   UNL     1       2.141   8.489  17.787  0.00  0.00    +0.000 A 
ATOM      7  C   UNL     1       1.268   9.491  18.223  0.00  0.00    +0.000 A 
ATOM      8  C   UNL     1       0.831   9.499  19.543  0.00  0.00    +0.000 A 
ATOM      9 BR   UNL     1      -0.310  10.880  20.144  0.00  0.00    +0.000 Br
ATOM     10  C   UNL     1       1.236   8.496  20.421  0.00  0.00    +0.000 A 
ATOM     11  C   UNL     1       2.103   7.489  19.977  0.00  0.00    +0.000 A 
ENDBRANCH   3   5
BRANCH   2  12
ATOM     12  C   UNL     1       4.395   4.328  17.587  0.00  0.00    +0.000 C 
BRANCH  12  13
ATOM     13  O   UNL     1       4.877   4.306  16.246  0.00  0.00    +0.000 OA
BRANCH  13  14
ATOM     14  C   UNL     1       6.232   4.416  16.122  0.00  0.00    +0.000 C 
ATOM     15  O   UNL     1       7.014   4.460  17.066  0.00  0.00    +0.000 OA
BRANCH  14  16
ATOM     16  C   UNL     1       6.602   4.469  14.730  0.00  0.00    +0.000 A 
ATOM     17  C   UNL     1       6.097   3.792  13.634  0.00  0.00    +0.000 A 
ATOM     18  C   UNL     1       6.841   4.221  12.507  0.00  0.00    +0.000 A 
ATOM     19  C   UNL     1       7.758   5.128  12.979  0.00  0.00    +0.000 A 
ATOM     20  O   UNL     1       7.620   5.291  14.320  0.00  0.00    +0.000 OA
ENDBRANCH  14  16
ENDBRANCH  13  14
ENDBRANCH  12  13
ENDBRANCH   2  12
TORSDOF 5
ENDMDL
MODEL 9
REMARK VINA RESULT:      -6.8      6.140      7.373
REMARK  Name = 
REMARK  5 active torsions:
REMARK  status: ('A' for Active; 'I' for Inactive)
REMARK    1  A    between atoms: C_2  and  C_3
REMARK    2  A    between atoms: C_3  and  O_4
REMARK    3  A    between atoms: O_4  and  C_5
REMARK    4  A    between atoms: C_5  and  C_7
REMARK    5  A    between atoms: N_12  and  C_13
REMARK                            x       y       z     vdW  Elec       q    Type
REMARK                         _______ _______ _______ _____ _____    ______ ____
ROOT
ATOM      1  O   UNL     1       5.169   6.456  17.841  0.00  0.00    +0.000 OA
ATOM      2  C   UNL     1       4.716   5.791  18.768  0.00  0.00    +0.000 C 
ATOM      3  N   UNL     1       3.567   6.066  19.494  0.00  0.00    +0.000 N 
ATOM      4  H   UNL     1       3.395   5.479  20.303  0.00  0.00    +0.000 HD
ENDROOT
BRANCH   3   5
ATOM      5  C   UNL     1       2.691   7.154  19.294  0.00  0.00    +0.000 A 
ATOM      6  C   UNL     1       2.550   7.811  18.068  0.00  0.00    +0.000 A 
ATOM      7  C   UNL     1       1.697   8.912  17.937  0.00  0.00    +0.000 A 
ATOM      8  C   UNL     1       0.974   9.359  19.038  0.00  0.00    +0.000 A 
ATOM      9 BR   UNL     1      -0.141  10.876  18.872  0.00  0.00    +0.000 Br
ATOM     10  C   UNL     1       1.076   8.698  20.259  0.00  0.00    +0.000 A 
ATOM     11  C   UNL     1       1.925   7.590  20.383  0.00  0.00    +0.000 A 
ENDBRANCH   3   5
BRANCH   2  12
ATOM     12  C   UNL     1       5.391   4.481  19.176  0.00  0.00    +0.000 C 
BRANCH  12  13
ATOM     13  O   UNL     1       4.685   3.305  18.789  0.00  0.00    +0.000 OA
BRANCH  13  14
ATOM     14  C   UNL     1       4.363   2.466  19.817  0.00  0.00    +0.000 C 
ATOM     15  O   UNL     1       5.134   1.656  20.319  0.00  0.00    +0.000 OA
BRANCH  14  16
ATOM     16  C   UNL     1       2.995   2.677  20.222  0.00  0.00    +0.000 A 
ATOM     17  C   UNL     1       2.446   2.898  21.473  0.00  0.00    +0.000 A 
ATOM     18  C   UNL     1       1.048   3.028  21.290  0.00  0.00    +0.000 A 
ATOM     19  C   UNL     1       0.823   2.874  19.945  0.00  0.00    +0.000 A 
ATOM     20  O   UNL     1       1.993   2.667  19.287  0.00  0.00    +0.000 OA
ENDBRANCH  14  16
ENDBRANCH  13  14
ENDBRANCH  12  13
ENDBRANCH   2  12
TORSDOF 5
ENDMDL
