MODEL 1
REMARK VINA RESULT:      -8.7      0.000      0.000
REMARK  Name = 
REMARK  10 active torsions:
REMARK  status: ('A' for Active; 'I' for Inactive)
REMARK    1  A    between atoms: C_1  and  O_2
REMARK    2  A    between atoms: O_2  and  C_3
REMARK    3  A    between atoms: C_5  and  C_6
REMARK    4  A    between atoms: C_7  and  C_8
REMARK    5  A    between atoms: C_10  and  C_11
REMARK    6  A    between atoms: C_17  and  C_18
REMARK    7  A    between atoms: C_18  and  C_19
REMARK    8  A    between atoms: C_19  and  C_20
REMARK    9  A    between atoms: C_23  and  C_24
REMARK   10  A    between atoms: C_30  and  C_31
REMARK                            x       y       z     vdW  Elec       q    Type
REMARK                         _______ _______ _______ _____ _____    ______ ____
ROOT
ATOM      1  C   UNL     1       3.777   4.981  18.919  0.00  0.00    +0.000 A 
ATOM      2  C   UNL     1       3.669   3.964  19.877  0.00  0.00    +0.000 A 
ATOM      3  C   UNL     1       2.689   4.022  20.853  0.00  0.00    +0.000 A 
ATOM      4  N   UNL     1       1.913   5.109  21.079  0.00  0.00    +0.000 NA
ATOM      5  C   UNL     1       2.062   6.144  20.241  0.00  0.00    +0.000 A 
ATOM      6  C   UNL     1       1.405   7.339  20.545  0.00  0.00    +0.000 A 
ATOM      7  C   UNL     1       1.510   8.485  19.739  0.00  0.00    +0.000 A 
ATOM      8  C   UNL     1       2.203   8.366  18.539  0.00  0.00    +0.000 A 
ATOM      9  C   UNL     1       2.796   7.160  18.180  0.00  0.00    +0.000 A 
ATOM     10  C   UNL     1       2.881   6.084  19.082  0.00  0.00    +0.000 A 
ENDROOT
BRANCH   1  15
ATOM     11  C   UNL     1       6.782   4.723  15.719  0.00  0.00    +0.000 A 
ATOM     12  C   UNL     1       5.519   4.185  15.552  0.00  0.00    +0.000 A 
ATOM     13  C   UNL     1       4.534   4.277  16.563  0.00  0.00    +0.000 A 
ATOM     14  C   UNL     1       3.201   3.666  16.184  0.00  0.00    +0.000 C 
ATOM     15  C   UNL     1       4.833   4.868  17.836  0.00  0.00    +0.000 A 
ATOM     16  C   UNL     1       6.186   5.306  18.019  0.00  0.00    +0.000 A 
ATOM     17  C   UNL     1       6.790   5.841  19.300  0.00  0.00    +0.000 C 
ATOM     18  C   UNL     1       7.108   5.269  16.947  0.00  0.00    +0.000 A 
BRANCH  11  20
ATOM     19  C   UNL     1       7.339   4.759  13.427  0.00  0.00    +0.000 C 
ATOM     20  O   UNL     1       7.775   4.726  14.782  0.00  0.00    +0.000 OA
ENDBRANCH  11  20
ENDBRANCH   1  15
BRANCH   3  21
ATOM     21  C   UNL     1       2.431   2.801  21.686  0.00  0.00    +0.000 C 
ATOM     22  N   UNL     1       1.134   2.601  22.071  0.00  0.00    +0.000 N 
ATOM     23  O   UNL     1       3.314   2.003  21.977  0.00  0.00    +0.000 OA
ATOM     24  H   UNL     1       0.414   3.243  21.764  0.00  0.00    +0.000 HD
ATOM     25  H   UNL     1       0.895   1.762  22.581  0.00  0.00    +0.000 HD
ENDBRANCH   3  21
BRANCH   7  26
ATOM     26  C   UNL     1       0.917   9.800  20.201  0.00  0.00    +0.000 C 
BRANCH  26  27
ATOM     27  C   UNL     1       0.642  10.792  19.061  0.00  0.00    +0.000 C 
BRANCH  27  28
ATOM     28  C   UNL     1      -0.798  10.885  18.684  0.00  0.00    +0.000 A 
ATOM     29  C   UNL     1      -1.370  10.052  17.754  0.00  0.00    +0.000 A 
ATOM     30  N   UNL     1      -2.672  10.085  17.409  0.00  0.00    +0.000 NA
ATOM     31  C   UNL     1      -3.423  11.012  18.031  0.00  0.00    +0.000 A 
ATOM     32  C   UNL     1      -4.876  11.081  17.685  0.00  0.00    +0.000 C 
ATOM     33  N   UNL     1      -2.961  11.883  18.949  0.00  0.00    +0.000 NA
ATOM     34  C   UNL     1      -1.654  11.801  19.253  0.00  0.00    +0.000 A 
ENDBRANCH  27  28
ENDBRANCH  26  27
ENDBRANCH   7  26
TORSDOF 6
ENDMDL
MODEL 2
REMARK VINA RESULT:      -8.3      1.648      2.087
REMARK  Name = 
REMARK  10 active torsions:
REMARK  status: ('A' for Active; 'I' for Inactive)
REMARK    1  A    between atoms: C_1  and  O_2
REMARK    2  A    between atoms: O_2  and  C_3
REMARK    3  A    between atoms: C_5  and  C_6
REMARK    4  A    between atoms: C_7  and  C_8
REMARK    5  A    between atoms: C_10  and  C_11
REMARK    6  A    between atoms: C_17  and  C_18
REMARK    7  A    between atoms: C_18  and  C_19
REMARK    8  A    between atoms: C_19  and  C_20
REMARK    9  A    between atoms: C_23  and  C_24
REMARK   10  A    between atoms: C_30  and  C_31
REMARK                            x       y       z     vdW  Elec       q    Type
REMARK                         _______ _______ _______ _____ _____    ______ ____
ROOT
ATOM      1  C   UNL     1       3.787   4.948  18.932  0.00  0.00    +0.000 A 
ATOM      2  C   UNL     1       3.669   3.941  19.898  0.00  0.00    +0.000 A 
ATOM      3  C   UNL     1       2.687   4.014  20.871  0.00  0.00    +0.000 A 
ATOM      4  N   UNL     1       1.919   5.108  21.086  0.00  0.00    +0.000 NA
ATOM      5  C   UNL     1       2.078   6.136  20.240  0.00  0.00    +0.000 A 
ATOM      6  C   UNL     1       1.430   7.338  20.532  0.00  0.00    +0.000 A 
ATOM      7  C   UNL     1       1.545   8.476  19.717  0.00  0.00    +0.000 A 
ATOM      8  C   UNL     1       2.240   8.342  18.520  0.00  0.00    +0.000 A 
ATOM      9  C   UNL     1       2.825   7.129  18.173  0.00  0.00    +0.000 A 
ATOM     10  C   UNL     1       2.900   6.060  19.084  0.00  0.00    +0.000 A 
ENDROOT
BRANCH   1  15
ATOM     11  C   UNL     1       6.799   4.643  15.742  0.00  0.00    +0.000 A 
ATOM     12  C   UNL     1       5.521   4.146  15.562  0.00  0.00    +0.000 A 
ATOM     13  C   UNL     1       4.534   4.254  16.570  0.00  0.00    +0.000 A 
ATOM     14  C   UNL     1       3.185   3.688  16.176  0.00  0.00    +0.000 C 
ATOM     15  C   UNL     1       4.845   4.819  17.851  0.00  0.00    +0.000 A 
ATOM     16  C   UNL     1       6.209   5.213  18.047  0.00  0.00    +0.000 A 
ATOM     17  C   UNL     1       6.822   5.712  19.338  0.00  0.00    +0.000 C 
ATOM     18  C   UNL     1       7.135   5.163  16.979  0.00  0.00    +0.000 A 
BRANCH  11  20
ATOM     19  C   UNL     1       7.366   4.656  13.452  0.00  0.00    +0.000 C 
ATOM     20  O   UNL     1       7.797   4.630  14.810  0.00  0.00    +0.000 OA
ENDBRANCH  11  20
ENDBRANCH   1  15
BRANCH   3  21
ATOM     21  C   UNL     1       2.417   2.802  21.713  0.00  0.00    +0.000 C 
ATOM     22  N   UNL     1       1.122   2.626  22.114  0.00  0.00    +0.000 N 
ATOM     23  O   UNL     1       3.290   1.990  21.998  0.00  0.00    +0.000 OA
ATOM     24  H   UNL     1       0.410   3.279  21.812  0.00  0.00    +0.000 HD
ATOM     25  H   UNL     1       0.874   1.794  22.631  0.00  0.00    +0.000 HD
ENDBRANCH   3  21
BRANCH   7  26
ATOM     26  C   UNL     1       0.962   9.800  20.167  0.00  0.00    +0.000 C 
BRANCH  26  27
ATOM     27  C   UNL     1       0.499   9.809  21.632  0.00  0.00    +0.000 C 
BRANCH  27  28
ATOM     28  C   UNL     1      -0.612  10.768  21.902  0.00  0.00    +0.000 A 
ATOM     29  C   UNL     1      -1.124  11.592  20.931  0.00  0.00    +0.000 A 
ATOM     30  N   UNL     1      -2.146  12.449  21.129  0.00  0.00    +0.000 NA
ATOM     31  C   UNL     1      -2.662  12.474  22.371  0.00  0.00    +0.000 A 
ATOM     32  C   UNL     1      -3.802  13.405  22.635  0.00  0.00    +0.000 C 
ATOM     33  N   UNL     1      -2.227  11.716  23.397  0.00  0.00    +0.000 NA
ATOM     34  C   UNL     1      -1.207  10.880  23.138  0.00  0.00    +0.000 A 
ENDBRANCH  27  28
ENDBRANCH  26  27
ENDBRANCH   7  26
TORSDOF 6
ENDMDL
MODEL 3
REMARK VINA RESULT:      -8.2      1.752      2.438
REMARK  Name = 
REMARK  10 active torsions:
REMARK  status: ('A' for Active; 'I' for Inactive)
REMARK    1  A    between atoms: C_1  and  O_2
REMARK    2  A    between atoms: O_2  and  C_3
REMARK    3  A    between atoms: C_5  and  C_6
REMARK    4  A    between atoms: C_7  and  C_8
REMARK    5  A    between atoms: C_10  and  C_11
REMARK    6  A    between atoms: C_17  and  C_18
REMARK    7  A    between atoms: C_18  and  C_19
REMARK    8  A    between atoms: C_19  and  C_20
REMARK    9  A    between atoms: C_23  and  C_24
REMARK   10  A    between atoms: C_30  and  C_31
REMARK                            x       y       z     vdW  Elec       q    Type
REMARK                         _______ _______ _______ _____ _____    ______ ____
ROOT
ATOM      1  C   UNL     1       3.733   4.966  18.951  0.00  0.00    +0.000 A 
ATOM      2  C   UNL     1       3.612   3.949  19.907  0.00  0.00    +0.000 A 
ATOM      3  C   UNL     1       2.631   4.016  20.882  0.00  0.00    +0.000 A 
ATOM      4  N   UNL     1       1.868   5.110  21.109  0.00  0.00    +0.000 NA
ATOM      5  C   UNL     1       2.030   6.146  20.274  0.00  0.00    +0.000 A 
ATOM      6  C   UNL     1       1.387   7.347  20.580  0.00  0.00    +0.000 A 
ATOM      7  C   UNL     1       1.506   8.494  19.778  0.00  0.00    +0.000 A 
ATOM      8  C   UNL     1       2.198   8.370  18.578  0.00  0.00    +0.000 A 
ATOM      9  C   UNL     1       2.778   7.159  18.217  0.00  0.00    +0.000 A 
ATOM     10  C   UNL     1       2.850   6.080  19.116  0.00  0.00    +0.000 A 
ENDROOT
BRANCH   1  15
ATOM     11  C   UNL     1       6.737   4.680  15.752  0.00  0.00    +0.000 A 
ATOM     12  C   UNL     1       5.477   4.130  15.595  0.00  0.00    +0.000 A 
ATOM     13  C   UNL     1       4.492   4.231  16.606  0.00  0.00    +0.000 A 
ATOM     14  C   UNL     1       3.163   3.604  16.237  0.00  0.00    +0.000 C 
ATOM     15  C   UNL     1       4.788   4.844  17.868  0.00  0.00    +0.000 A 
ATOM     16  C   UNL     1       6.139   5.294  18.044  0.00  0.00    +0.000 A 
ATOM     17  C   UNL     1       6.739   5.854  19.315  0.00  0.00    +0.000 C 
ATOM     18  C   UNL     1       7.060   5.247  16.971  0.00  0.00    +0.000 A 
BRANCH  11  20
ATOM     19  C   UNL     1       7.293   4.776  13.462  0.00  0.00    +0.000 C 
ATOM     20  O   UNL     1       7.729   4.676  14.815  0.00  0.00    +0.000 OA
ENDBRANCH  11  20
ENDBRANCH   1  15
BRANCH   3  21
ATOM     21  C   UNL     1       2.358   2.795  21.711  0.00  0.00    +0.000 C 
ATOM     22  N   UNL     1       1.053   2.591  22.065  0.00  0.00    +0.000 N 
ATOM     23  O   UNL     1       3.237   2.002  22.025  0.00  0.00    +0.000 OA
ATOM     24  H   UNL     1       0.338   3.229  21.739  0.00  0.00    +0.000 HD
ATOM     25  H   UNL     1       0.805   1.752  22.571  0.00  0.00    +0.000 HD
ENDBRANCH   3  21
BRANCH   7  26
ATOM     26  C   UNL     1       0.928   9.815  20.243  0.00  0.00    +0.000 C 
BRANCH  26  27
ATOM     27  C   UNL     1       0.145  10.568  19.157  0.00  0.00    +0.000 C 
BRANCH  27  28
ATOM     28  C   UNL     1       0.566  11.990  18.993  0.00  0.00    +0.000 A 
ATOM     29  C   UNL     1      -0.338  13.018  18.894  0.00  0.00    +0.000 A 
ATOM     30  N   UNL     1       0.004  14.316  18.776  0.00  0.00    +0.000 NA
ATOM     31  C   UNL     1       1.323  14.578  18.749  0.00  0.00    +0.000 A 
ATOM     32  C   UNL     1       1.749  16.006  18.627  0.00  0.00    +0.000 C 
ATOM     33  N   UNL     1       2.292  13.645  18.829  0.00  0.00    +0.000 NA
ATOM     34  C   UNL     1       1.889  12.368  18.947  0.00  0.00    +0.000 A 
ENDBRANCH  27  28
ENDBRANCH  26  27
ENDBRANCH   7  26
TORSDOF 6
ENDMDL
MODEL 4
REMARK VINA RESULT:      -8.0      0.476      1.805
REMARK  Name = 
REMARK  10 active torsions:
REMARK  status: ('A' for Active; 'I' for Inactive)
REMARK    1  A    between atoms: C_1  and  O_2
REMARK    2  A    between atoms: O_2  and  C_3
REMARK    3  A    between atoms: C_5  and  C_6
REMARK    4  A    between atoms: C_7  and  C_8
REMARK    5  A    between atoms: C_10  and  C_11
REMARK    6  A    between atoms: C_17  and  C_18
REMARK    7  A    between atoms: C_18  and  C_19
REMARK    8  A    between atoms: C_19  and  C_20
REMARK    9  A    between atoms: C_23  and  C_24
REMARK   10  A    between atoms: C_30  and  C_31
REMARK                            x       y       z     vdW  Elec       q    Type
REMARK                         _______ _______ _______ _____ _____    ______ ____
ROOT
ATOM      1  C   UNL     1       3.686   5.018  18.641  0.00  0.00    +0.000 A 
ATOM      2  C   UNL     1       3.693   4.000  19.603  0.00  0.00    +0.000 A 
ATOM      3  C   UNL     1       2.831   4.052  20.686  0.00  0.00    +0.000 A 
ATOM      4  N   UNL     1       2.083   5.134  21.002  0.00  0.00    +0.000 NA
ATOM      5  C   UNL     1       2.131   6.172  20.155  0.00  0.00    +0.000 A 
ATOM      6  C   UNL     1       1.508   7.363  20.535  0.00  0.00    +0.000 A 
ATOM      7  C   UNL     1       1.515   8.512  19.726  0.00  0.00    +0.000 A 
ATOM      8  C   UNL     1       2.065   8.398  18.453  0.00  0.00    +0.000 A 
ATOM      9  C   UNL     1       2.618   7.196  18.026  0.00  0.00    +0.000 A 
ATOM     10  C   UNL     1       2.811   6.118  18.909  0.00  0.00    +0.000 A 
ENDROOT
BRANCH   1  15
ATOM     11  C   UNL     1       6.438   4.668  15.229  0.00  0.00    +0.000 A 
ATOM     12  C   UNL     1       6.699   5.547  16.265  0.00  0.00    +0.000 A 
ATOM     13  C   UNL     1       5.835   5.658  17.380  0.00  0.00    +0.000 A 
ATOM     14  C   UNL     1       6.306   6.642  18.430  0.00  0.00    +0.000 C 
ATOM     15  C   UNL     1       4.610   4.913  17.443  0.00  0.00    +0.000 A 
ATOM     16  C   UNL     1       4.310   4.104  16.297  0.00  0.00    +0.000 A 
ATOM     17  C   UNL     1       3.033   3.328  16.057  0.00  0.00    +0.000 C 
ATOM     18  C   UNL     1       5.249   3.963  15.248  0.00  0.00    +0.000 A 
BRANCH  11  20
ATOM     19  C   UNL     1       6.598   3.868  13.016  0.00  0.00    +0.000 C 
ATOM     20  O   UNL     1       7.239   4.458  14.143  0.00  0.00    +0.000 OA
ENDBRANCH  11  20
ENDBRANCH   1  15
BRANCH   3  21
ATOM     21  C   UNL     1       2.676   2.828  21.539  0.00  0.00    +0.000 C 
ATOM     22  N   UNL     1       1.443   2.641  22.100  0.00  0.00    +0.000 N 
ATOM     23  O   UNL     1       3.581   2.017  21.700  0.00  0.00    +0.000 OA
ATOM     24  H   UNL     1       0.696   3.293  21.900  0.00  0.00    +0.000 HD
ATOM     25  H   UNL     1       1.266   1.801  22.634  0.00  0.00    +0.000 HD
ENDBRANCH   3  21
BRANCH   7  26
ATOM     26  C   UNL     1       0.974   9.823  20.257  0.00  0.00    +0.000 C 
BRANCH  26  27
ATOM     27  C   UNL     1       0.689  10.865  19.165  0.00  0.00    +0.000 C 
BRANCH  27  28
ATOM     28  C   UNL     1      -0.743  10.914  18.746  0.00  0.00    +0.000 A 
ATOM     29  C   UNL     1      -1.646  11.777  19.314  0.00  0.00    +0.000 A 
ATOM     30  N   UNL     1      -2.938  11.872  18.942  0.00  0.00    +0.000 NA
ATOM     31  C   UNL     1      -3.329  11.046  17.955  0.00  0.00    +0.000 A 
ATOM     32  C   UNL     1      -4.753  11.121  17.504  0.00  0.00    +0.000 C 
ATOM     33  N   UNL     1      -2.528  10.156  17.337  0.00  0.00    +0.000 NA
ATOM     34  C   UNL     1      -1.250  10.109  17.751  0.00  0.00    +0.000 A 
ENDBRANCH  27  28
ENDBRANCH  26  27
ENDBRANCH   7  26
TORSDOF 6
ENDMDL
MODEL 5
REMARK VINA RESULT:      -8.0      2.167      2.558
REMARK  Name = 
REMARK  10 active torsions:
REMARK  status: ('A' for Active; 'I' for Inactive)
REMARK    1  A    between atoms: C_1  and  O_2
REMARK    2  A    between atoms: O_2  and  C_3
REMARK    3  A    between atoms: C_5  and  C_6
REMARK    4  A    between atoms: C_7  and  C_8
REMARK    5  A    between atoms: C_10  and  C_11
REMARK    6  A    between atoms: C_17  and  C_18
REMARK    7  A    between atoms: C_18  and  C_19
REMARK    8  A    between atoms: C_19  and  C_20
REMARK    9  A    between atoms: C_23  and  C_24
REMARK   10  A    between atoms: C_30  and  C_31
REMARK                            x       y       z     vdW  Elec       q    Type
REMARK                         _______ _______ _______ _____ _____    ______ ____
ROOT
ATOM      1  C   UNL     1       4.022   5.086  18.583  0.00  0.00    +0.000 A 
ATOM      2  C   UNL     1       3.976   4.069  19.545  0.00  0.00    +0.000 A 
ATOM      3  C   UNL     1       3.009   4.085  20.536  0.00  0.00    +0.000 A 
ATOM      4  N   UNL     1       2.188   5.135  20.771  0.00  0.00    +0.000 NA
ATOM      5  C   UNL     1       2.276   6.174  19.928  0.00  0.00    +0.000 A 
ATOM      6  C   UNL     1       1.570   7.338  20.240  0.00  0.00    +0.000 A 
ATOM      7  C   UNL     1       1.609   8.485  19.430  0.00  0.00    +0.000 A 
ATOM      8  C   UNL     1       2.287   8.394  18.219  0.00  0.00    +0.000 A 
ATOM      9  C   UNL     1       2.930   7.216  17.854  0.00  0.00    +0.000 A 
ATOM     10  C   UNL     1       3.079   6.148  18.757  0.00  0.00    +0.000 A 
ENDROOT
BRANCH   1  15
ATOM     11  C   UNL     1       6.982   4.953  15.334  0.00  0.00    +0.000 A 
ATOM     12  C   UNL     1       5.765   4.307  15.213  0.00  0.00    +0.000 A 
ATOM     13  C   UNL     1       4.794   4.356  16.239  0.00  0.00    +0.000 A 
ATOM     14  C   UNL     1       3.510   3.623  15.910  0.00  0.00    +0.000 C 
ATOM     15  C   UNL     1       5.065   5.020  17.483  0.00  0.00    +0.000 A 
ATOM     16  C   UNL     1       6.380   5.574  17.622  0.00  0.00    +0.000 A 
ATOM     17  C   UNL     1       6.959   6.206  18.870  0.00  0.00    +0.000 C 
ATOM     18  C   UNL     1       7.283   5.571  16.534  0.00  0.00    +0.000 A 
BRANCH  11  20
ATOM     19  C   UNL     1       7.501   4.870  13.034  0.00  0.00    +0.000 C 
ATOM     20  O   UNL     1       7.956   5.002  14.377  0.00  0.00    +0.000 OA
ENDBRANCH  11  20
ENDBRANCH   1  15
BRANCH   3  21
ATOM     21  C   UNL     1       2.821   2.856  21.376  0.00  0.00    +0.000 C 
ATOM     22  N   UNL     1       1.577   2.685  21.917  0.00  0.00    +0.000 N 
ATOM     23  O   UNL     1       3.709   2.029  21.541  0.00  0.00    +0.000 OA
ATOM     24  H   UNL     1       0.844   3.352  21.714  0.00  0.00    +0.000 HD
ATOM     25  H   UNL     1       1.379   1.844  22.441  0.00  0.00    +0.000 HD
ENDBRANCH   3  21
BRANCH   7  26
ATOM     26  C   UNL     1       0.963   9.773  19.898  0.00  0.00    +0.000 C 
BRANCH  26  27
ATOM     27  C   UNL     1       0.467   9.727  21.351  0.00  0.00    +0.000 C 
BRANCH  27  28
ATOM     28  C   UNL     1      -0.054  11.034  21.846  0.00  0.00    +0.000 A 
ATOM     29  C   UNL     1      -0.924  11.126  22.904  0.00  0.00    +0.000 A 
ATOM     30  N   UNL     1      -1.393  12.289  23.399  0.00  0.00    +0.000 NA
ATOM     31  C   UNL     1      -0.963  13.406  22.784  0.00  0.00    +0.000 A 
ATOM     32  C   UNL     1      -1.452  14.720  23.304  0.00  0.00    +0.000 C 
ATOM     33  N   UNL     1      -0.120  13.428  21.734  0.00  0.00    +0.000 NA
ATOM     34  C   UNL     1       0.315  12.237  21.286  0.00  0.00    +0.000 A 
ENDBRANCH  27  28
ENDBRANCH  26  27
ENDBRANCH   7  26
TORSDOF 6
ENDMDL
MODEL 6
REMARK VINA RESULT:      -7.8      0.879      1.146
REMARK  Name = 
REMARK  10 active torsions:
REMARK  status: ('A' for Active; 'I' for Inactive)
REMARK    1  A    between atoms: C_1  and  O_2
REMARK    2  A    between atoms: O_2  and  C_3
REMARK    3  A    between atoms: C_5  and  C_6
REMARK    4  A    between atoms: C_7  and  C_8
REMARK    5  A    between atoms: C_10  and  C_11
REMARK    6  A    between atoms: C_17  and  C_18
REMARK    7  A    between atoms: C_18  and  C_19
REMARK    8  A    between atoms: C_19  and  C_20
REMARK    9  A    between atoms: C_23  and  C_24
REMARK   10  A    between atoms: C_30  and  C_31
REMARK                            x       y       z     vdW  Elec       q    Type
REMARK                         _______ _______ _______ _____ _____    ______ ____
ROOT
ATOM      1  C   UNL     1       3.728   5.132  18.602  0.00  0.00    +0.000 A 
ATOM      2  C   UNL     1       3.683   4.124  19.575  0.00  0.00    +0.000 A 
ATOM      3  C   UNL     1       2.799   4.213  20.636  0.00  0.00    +0.000 A 
ATOM      4  N   UNL     1       2.075   5.320  20.923  0.00  0.00    +0.000 NA
ATOM      5  C   UNL     1       2.172   6.347  20.066  0.00  0.00    +0.000 A 
ATOM      6  C   UNL     1       1.576   7.559  20.419  0.00  0.00    +0.000 A 
ATOM      7  C   UNL     1       1.634   8.698  19.598  0.00  0.00    +0.000 A 
ATOM      8  C   UNL     1       2.210   8.554  18.340  0.00  0.00    +0.000 A 
ATOM      9  C   UNL     1       2.738   7.331  17.938  0.00  0.00    +0.000 A 
ATOM     10  C   UNL     1       2.879   6.259  18.838  0.00  0.00    +0.000 A 
ENDROOT
BRANCH   1  15
ATOM     11  C   UNL     1       6.406   4.756  15.134  0.00  0.00    +0.000 A 
ATOM     12  C   UNL     1       5.240   4.016  15.214  0.00  0.00    +0.000 A 
ATOM     13  C   UNL     1       4.357   4.140  16.313  0.00  0.00    +0.000 A 
ATOM     14  C   UNL     1       3.114   3.281  16.206  0.00  0.00    +0.000 C 
ATOM     15  C   UNL     1       4.677   4.986  17.427  0.00  0.00    +0.000 A 
ATOM     16  C   UNL     1       5.949   5.644  17.367  0.00  0.00    +0.000 A 
ATOM     17  C   UNL     1       6.577   6.482  18.460  0.00  0.00    +0.000 C 
ATOM     18  C   UNL     1       6.755   5.554  16.208  0.00  0.00    +0.000 A 
BRANCH  11  20
ATOM     19  C   UNL     1       6.835   4.074  12.917  0.00  0.00    +0.000 C 
ATOM     20  O   UNL     1       7.288   4.740  14.092  0.00  0.00    +0.000 OA
ENDBRANCH  11  20
ENDBRANCH   1  15
BRANCH   3  21
ATOM     21  C   UNL     1       2.589   3.004  21.499  0.00  0.00    +0.000 C 
ATOM     22  N   UNL     1       1.334   2.851  22.021  0.00  0.00    +0.000 N 
ATOM     23  O   UNL     1       3.469   2.176  21.700  0.00  0.00    +0.000 OA
ATOM     24  H   UNL     1       0.608   3.517  21.789  0.00  0.00    +0.000 HD
ATOM     25  H   UNL     1       1.121   2.023  22.559  0.00  0.00    +0.000 HD
ENDBRANCH   3  21
BRANCH   7  26
ATOM     26  C   UNL     1       1.120  10.030  20.101  0.00  0.00    +0.000 C 
BRANCH  26  27
ATOM     27  C   UNL     1      -0.403  10.074  20.299  0.00  0.00    +0.000 C 
BRANCH  27  28
ATOM     28  C   UNL     1      -1.159  10.374  19.048  0.00  0.00    +0.000 A 
ATOM     29  C   UNL     1      -1.126  11.607  18.446  0.00  0.00    +0.000 A 
ATOM     30  N   UNL     1      -1.771  11.908  17.302  0.00  0.00    +0.000 NA
ATOM     31  C   UNL     1      -2.488  10.912  16.751  0.00  0.00    +0.000 A 
ATOM     32  C   UNL     1      -3.215  11.197  15.475  0.00  0.00    +0.000 C 
ATOM     33  N   UNL     1      -2.596   9.671  17.263  0.00  0.00    +0.000 NA
ATOM     34  C   UNL     1      -1.929   9.431  18.406  0.00  0.00    +0.000 A 
ENDBRANCH  27  28
ENDBRANCH  26  27
ENDBRANCH   7  26
TORSDOF 6
ENDMDL
MODEL 7
REMARK VINA RESULT:      -7.8      1.053      1.110
REMARK  Name = 
REMARK  10 active torsions:
REMARK  status: ('A' for Active; 'I' for Inactive)
REMARK    1  A    between atoms: C_1  and  O_2
REMARK    2  A    between atoms: O_2  and  C_3
REMARK    3  A    between atoms: C_5  and  C_6
REMARK    4  A    between atoms: C_7  and  C_8
REMARK    5  A    between atoms: C_10  and  C_11
REMARK    6  A    between atoms: C_17  and  C_18
REMARK    7  A    between atoms: C_18  and  C_19
REMARK    8  A    between atoms: C_19  and  C_20
REMARK    9  A    between atoms: C_23  and  C_24
REMARK   10  A    between atoms: C_30  and  C_31
REMARK                            x       y       z     vdW  Elec       q    Type
REMARK                         _______ _______ _______ _____ _____    ______ ____
ROOT
ATOM      1  C   UNL     1       4.413   5.000  18.164  0.00  0.00    +0.000 A 
ATOM      2  C   UNL     1       4.525   3.976  19.112  0.00  0.00    +0.000 A 
ATOM      3  C   UNL     1       3.641   3.904  20.175  0.00  0.00    +0.000 A 
ATOM      4  N   UNL     1       2.757   4.881  20.487  0.00  0.00    +0.000 NA
ATOM      5  C   UNL     1       2.694   5.929  19.654  0.00  0.00    +0.000 A 
ATOM      6  C   UNL     1       1.920   7.028  20.035  0.00  0.00    +0.000 A 
ATOM      7  C   UNL     1       1.802   8.181  19.240  0.00  0.00    +0.000 A 
ATOM      8  C   UNL     1       2.389   8.155  17.980  0.00  0.00    +0.000 A 
ATOM      9  C   UNL     1       3.096   7.038  17.551  0.00  0.00    +0.000 A 
ATOM     10  C   UNL     1       3.402   5.979  18.425  0.00  0.00    +0.000 A 
ENDROOT
BRANCH   1  15
ATOM     11  C   UNL     1       7.109   5.128  14.692  0.00  0.00    +0.000 A 
ATOM     12  C   UNL     1       6.003   4.298  14.702  0.00  0.00    +0.000 A 
ATOM     13  C   UNL     1       5.114   4.259  15.802  0.00  0.00    +0.000 A 
ATOM     14  C   UNL     1       3.940   3.320  15.614  0.00  0.00    +0.000 C 
ATOM     15  C   UNL     1       5.369   5.029  16.986  0.00  0.00    +0.000 A 
ATOM     16  C   UNL     1       6.588   5.784  16.990  0.00  0.00    +0.000 A 
ATOM     17  C   UNL     1       7.151   6.571  18.155  0.00  0.00    +0.000 C 
ATOM     18  C   UNL     1       7.397   5.855  15.833  0.00  0.00    +0.000 A 
BRANCH  11  20
ATOM     19  C   UNL     1       7.477   4.942  12.369  0.00  0.00    +0.000 C 
ATOM     20  O   UNL     1       7.989   5.268  13.658  0.00  0.00    +0.000 OA
ENDBRANCH  11  20
ENDBRANCH   1  15
BRANCH   3  21
ATOM     21  C   UNL     1       3.620   2.658  21.010  0.00  0.00    +0.000 C 
ATOM     22  N   UNL     1       4.603   1.744  20.747  0.00  0.00    +0.000 N 
ATOM     23  O   UNL     1       2.801   2.475  21.903  0.00  0.00    +0.000 OA
ATOM     24  H   UNL     1       5.304   1.948  20.046  0.00  0.00    +0.000 HD
ATOM     25  H   UNL     1       4.672   0.915  21.320  0.00  0.00    +0.000 HD
ENDBRANCH   3  21
BRANCH   7  26
ATOM     26  C   UNL     1       1.091   9.407  19.775  0.00  0.00    +0.000 C 
BRANCH  26  27
ATOM     27  C   UNL     1       0.831  10.486  18.713  0.00  0.00    +0.000 C 
BRANCH  27  28
ATOM     28  C   UNL     1      -0.617  10.739  18.459  0.00  0.00    +0.000 A 
ATOM     29  C   UNL     1      -1.356   9.975  17.590  0.00  0.00    +0.000 A 
ATOM     30  N   UNL     1      -2.671  10.153  17.357  0.00  0.00    +0.000 NA
ATOM     31  C   UNL     1      -3.258  11.158  18.032  0.00  0.00    +0.000 A 
ATOM     32  C   UNL     1      -4.719  11.388  17.810  0.00  0.00    +0.000 C 
ATOM     33  N   UNL     1      -2.625  11.972  18.898  0.00  0.00    +0.000 NA
ATOM     34  C   UNL     1      -1.314  11.744  19.090  0.00  0.00    +0.000 A 
ENDBRANCH  27  28
ENDBRANCH  26  27
ENDBRANCH   7  26
TORSDOF 6
ENDMDL
MODEL 8
REMARK VINA RESULT:      -7.7      1.963      2.634
REMARK  Name = 
REMARK  10 active torsions:
REMARK  status: ('A' for Active; 'I' for Inactive)
REMARK    1  A    between atoms: C_1  and  O_2
REMARK    2  A    between atoms: O_2  and  C_3
REMARK    3  A    between atoms: C_5  and  C_6
REMARK    4  A    between atoms: C_7  and  C_8
REMARK    5  A    between atoms: C_10  and  C_11
REMARK    6  A    between atoms: C_17  and  C_18
REMARK    7  A    between atoms: C_18  and  C_19
REMARK    8  A    between atoms: C_19  and  C_20
REMARK    9  A    between atoms: C_23  and  C_24
REMARK   10  A    between atoms: C_30  and  C_31
REMARK                            x       y       z     vdW  Elec       q    Type
REMARK                         _______ _______ _______ _____ _____    ______ ____
ROOT
ATOM      1  C   UNL     1       3.757   4.987  18.876  0.00  0.00    +0.000 A 
ATOM      2  C   UNL     1       3.655   3.953  19.816  0.00  0.00    +0.000 A 
ATOM      3  C   UNL     1       2.684   3.995  20.802  0.00  0.00    +0.000 A 
ATOM      4  N   UNL     1       1.913   5.079  21.055  0.00  0.00    +0.000 NA
ATOM      5  C   UNL     1       2.057   6.130  20.235  0.00  0.00    +0.000 A 
ATOM      6  C   UNL     1       1.405   7.319  20.567  0.00  0.00    +0.000 A 
ATOM      7  C   UNL     1       1.505   8.480  19.782  0.00  0.00    +0.000 A 
ATOM      8  C   UNL     1       2.187   8.382  18.574  0.00  0.00    +0.000 A 
ATOM      9  C   UNL     1       2.774   7.182  18.187  0.00  0.00    +0.000 A 
ATOM     10  C   UNL     1       2.865   6.089  19.068  0.00  0.00    +0.000 A 
ENDROOT
BRANCH   1  15
ATOM     11  C   UNL     1       6.731   4.781  15.643  0.00  0.00    +0.000 A 
ATOM     12  C   UNL     1       5.475   4.220  15.490  0.00  0.00    +0.000 A 
ATOM     13  C   UNL     1       4.500   4.295  16.512  0.00  0.00    +0.000 A 
ATOM     14  C   UNL     1       3.174   3.660  16.148  0.00  0.00    +0.000 C 
ATOM     15  C   UNL     1       4.803   4.893  17.781  0.00  0.00    +0.000 A 
ATOM     16  C   UNL     1       6.150   5.354  17.950  0.00  0.00    +0.000 A 
ATOM     17  C   UNL     1       6.758   5.902  19.223  0.00  0.00    +0.000 C 
ATOM     18  C   UNL     1       7.060   5.333  16.867  0.00  0.00    +0.000 A 
BRANCH  11  20
ATOM     19  C   UNL     1       7.274   4.609  13.354  0.00  0.00    +0.000 C 
ATOM     20  O   UNL     1       7.713   4.801  14.696  0.00  0.00    +0.000 OA
ENDBRANCH  11  20
ENDBRANCH   1  15
BRANCH   3  21
ATOM     21  C   UNL     1       2.431   2.759  21.614  0.00  0.00    +0.000 C 
ATOM     22  N   UNL     1       3.443   1.840  21.638  0.00  0.00    +0.000 N 
ATOM     23  O   UNL     1       1.400   2.590  22.254  0.00  0.00    +0.000 OA
ATOM     24  H   UNL     1       4.309   2.033  21.151  0.00  0.00    +0.000 HD
ATOM     25  H   UNL     1       3.349   1.018  22.218  0.00  0.00    +0.000 HD
ENDBRANCH   3  21
BRANCH   7  26
ATOM     26  C   UNL     1       0.920   9.788  20.274  0.00  0.00    +0.000 C 
BRANCH  26  27
ATOM     27  C   UNL     1       0.295  10.646  19.164  0.00  0.00    +0.000 C 
BRANCH  27  28
ATOM     28  C   UNL     1       0.938  11.983  19.009  0.00  0.00    +0.000 A 
ATOM     29  C   UNL     1       2.152  12.150  18.391  0.00  0.00    +0.000 A 
ATOM     30  N   UNL     1       2.749  13.343  18.206  0.00  0.00    +0.000 NA
ATOM     31  C   UNL     1       2.085  14.414  18.679  0.00  0.00    +0.000 A 
ATOM     32  C   UNL     1       2.707  15.761  18.490  0.00  0.00    +0.000 C 
ATOM     33  N   UNL     1       0.895  14.361  19.309  0.00  0.00    +0.000 NA
ATOM     34  C   UNL     1       0.349  13.142  19.462  0.00  0.00    +0.000 A 
ENDBRANCH  27  28
ENDBRANCH  26  27
ENDBRANCH   7  26
TORSDOF 6
ENDMDL
MODEL 9
REMARK VINA RESULT:      -7.7      1.584      1.812
REMARK  Name = 
REMARK  10 active torsions:
REMARK  status: ('A' for Active; 'I' for Inactive)
REMARK    1  A    between atoms: C_1  and  O_2
REMARK    2  A    between atoms: O_2  and  C_3
REMARK    3  A    between atoms: C_5  and  C_6
REMARK    4  A    between atoms: C_7  and  C_8
REMARK    5  A    between atoms: C_10  and  C_11
REMARK    6  A    between atoms: C_17  and  C_18
REMARK    7  A    between atoms: C_18  and  C_19
REMARK    8  A    between atoms: C_19  and  C_20
REMARK    9  A    between atoms: C_23  and  C_24
REMARK   10  A    between atoms: C_30  and  C_31
REMARK                            x       y       z     vdW  Elec       q    Type
REMARK                         _______ _______ _______ _____ _____    ______ ____
ROOT
ATOM      1  C   UNL     1       3.861   4.959  18.838  0.00  0.00    +0.000 A 
ATOM      2  C   UNL     1       3.793   3.930  19.786  0.00  0.00    +0.000 A 
ATOM      3  C   UNL     1       2.832   3.958  20.783  0.00  0.00    +0.000 A 
ATOM      4  N   UNL     1       2.041   5.026  21.038  0.00  0.00    +0.000 NA
ATOM      5  C   UNL     1       2.153   6.074  20.209  0.00  0.00    +0.000 A 
ATOM      6  C   UNL     1       1.479   7.252  20.540  0.00  0.00    +0.000 A 
ATOM      7  C   UNL     1       1.545   8.409  19.746  0.00  0.00    +0.000 A 
ATOM      8  C   UNL     1       2.214   8.317  18.531  0.00  0.00    +0.000 A 
ATOM      9  C   UNL     1       2.823   7.127  18.146  0.00  0.00    +0.000 A 
ATOM     10  C   UNL     1       2.948   6.043  19.033  0.00  0.00    +0.000 A 
ENDROOT
BRANCH   1  15
ATOM     11  C   UNL     1       6.801   4.794  15.571  0.00  0.00    +0.000 A 
ATOM     12  C   UNL     1       5.557   4.205  15.438  0.00  0.00    +0.000 A 
ATOM     13  C   UNL     1       4.592   4.266  16.471  0.00  0.00    +0.000 A 
ATOM     14  C   UNL     1       3.276   3.599  16.127  0.00  0.00    +0.000 C 
ATOM     15  C   UNL     1       4.896   4.880  17.731  0.00  0.00    +0.000 A 
ATOM     16  C   UNL     1       6.235   5.372  17.880  0.00  0.00    +0.000 A 
ATOM     17  C   UNL     1       6.845   5.942  19.143  0.00  0.00    +0.000 C 
ATOM     18  C   UNL     1       7.133   5.363  16.788  0.00  0.00    +0.000 A 
BRANCH  11  20
ATOM     19  C   UNL     1       7.312   4.691  13.271  0.00  0.00    +0.000 C 
ATOM     20  O   UNL     1       7.772   4.829  14.612  0.00  0.00    +0.000 OA
ENDBRANCH  11  20
ENDBRANCH   1  15
BRANCH   3  21
ATOM     21  C   UNL     1       2.616   2.722  21.607  0.00  0.00    +0.000 C 
ATOM     22  N   UNL     1       1.352   2.542  22.096  0.00  0.00    +0.000 N 
ATOM     23  O   UNL     1       3.500   1.897  21.803  0.00  0.00    +0.000 OA
ATOM     24  H   UNL     1       0.625   3.208  21.867  0.00  0.00    +0.000 HD
ATOM     25  H   UNL     1       1.136   1.697  22.606  0.00  0.00    +0.000 HD
ENDBRANCH   3  21
BRANCH   7  26
ATOM     26  C   UNL     1       0.937   9.707  20.236  0.00  0.00    +0.000 C 
BRANCH  26  27
ATOM     27  C   UNL     1       0.663  10.725  19.119  0.00  0.00    +0.000 C 
BRANCH  27  28
ATOM     28  C   UNL     1      -0.080  11.934  19.582  0.00  0.00    +0.000 A 
ATOM     29  C   UNL     1       0.052  13.156  18.971  0.00  0.00    +0.000 A 
ATOM     30  N   UNL     1      -0.624  14.262  19.340  0.00  0.00    +0.000 NA
ATOM     31  C   UNL     1      -1.463  14.120  20.382  0.00  0.00    +0.000 A 
ATOM     32  C   UNL     1      -2.239  15.320  20.822  0.00  0.00    +0.000 C 
ATOM     33  N   UNL     1      -1.658  12.971  21.057  0.00  0.00    +0.000 NA
ATOM     34  C   UNL     1      -0.958  11.901  20.642  0.00  0.00    +0.000 A 
ENDBRANCH  27  28
ENDBRANCH  26  27
ENDBRANCH   7  26
TORSDOF 6
ENDMDL
