MODEL 1
REMARK VINA RESULT:      -8.1      0.000      0.000
REMARK  Name = 
REMARK  12 active torsions:
REMARK  status: ('A' for Active; 'I' for Inactive)
REMARK    1  A    between atoms: N_1  and  C_2
REMARK    2  A    between atoms: C_2  and  C_3
REMARK    3  A    between atoms: C_3  and  N_4
REMARK    4  A    between atoms: C_5  and  C_7
REMARK    5  A    between atoms: C_11  and  C_12
REMARK    6  A    between atoms: C_15  and  O_16
REMARK    7  A    between atoms: O_16  and  C_17
REMARK    8  A    between atoms: C_19  and  C_20
REMARK    9  A    between atoms: C_20  and  O_21
REMARK   10  A    between atoms: C_22  and  O_23
REMARK   11  A    between atoms: C_24  and  O_25
REMARK   12  A    between atoms: C_26  and  O_27
REMARK                            x       y       z     vdW  Elec       q    Type
REMARK                         _______ _______ _______ _____ _____    ______ ____
ROOT
ATOM      1  C   UNL     1       1.289   9.603  19.207  0.00  0.00    +0.000 A 
ATOM      2  C   UNL     1       1.367   8.662  20.252  0.00  0.00    +0.000 A 
ATOM      3  C   UNL     1       1.974   7.392  20.060  0.00  0.00    +0.000 A 
ATOM      4  C   UNL     1       2.507   7.042  18.821  0.00  0.00    +0.000 A 
ATOM      5  C   UNL     1       2.496   7.988  17.803  0.00  0.00    +0.000 A 
ATOM      6  C   UNL     1       1.884   9.228  17.989  0.00  0.00    +0.000 A 
ENDROOT
BRANCH   1  11
ATOM      7  C   UNL     1      -1.461  12.251  19.454  0.00  0.00    +0.000 A 
ATOM      8  C   UNL     1      -0.809  13.352  18.889  0.00  0.00    +0.000 A 
ATOM      9  C   UNL     1       0.536  13.270  18.567  0.00  0.00    +0.000 A 
ATOM     10  C   UNL     1       1.222  12.073  18.781  0.00  0.00    +0.000 A 
ATOM     11  C   UNL     1       0.583  10.913  19.280  0.00  0.00    +0.000 A 
ATOM     12  C   UNL     1      -0.766  11.041  19.664  0.00  0.00    +0.000 A 
BRANCH   7  14
ATOM     13  N   UNL     1      -3.753  12.154  18.613  0.00  0.00    +0.000 N 
ATOM     14  C   UNL     1      -2.926  12.382  19.689  0.00  0.00    +0.000 C 
ATOM     15  O   UNL     1      -3.343  12.651  20.812  0.00  0.00    +0.000 OA
ATOM     16  H   UNL     1      -3.403  11.625  17.823  0.00  0.00    +0.000 HD
BRANCH  13  17
ATOM     17  C   UNL     1      -5.194  12.152  18.804  0.00  0.00    +0.000 C 
BRANCH  17  18
ATOM     18  C   UNL     1      -5.842  10.864  18.288  0.00  0.00    +0.000 C 
BRANCH  18  19
ATOM     19  N   UNL     1      -7.216  10.714  18.781  0.00  0.00    +0.000 NA
ATOM     20  H   UNL     1      -7.269   9.867  19.349  0.00  0.00    +0.000 HD
ATOM     21  H   UNL     1      -7.834  10.548  17.986  0.00  0.00    +0.000 HD
ENDBRANCH  18  19
ENDBRANCH  17  18
ENDBRANCH  13  17
ENDBRANCH   7  14
ENDBRANCH   1  11
BRANCH   4  22
ATOM     22  O   UNL     1       3.046   5.848  18.437  0.00  0.00    +0.000 OA
BRANCH  22  23
ATOM     23  C   UNL     1       3.841   5.088  19.348  0.00  0.00    +0.000 C 
ATOM     24  O   UNL     1       3.115   4.533  20.466  0.00  0.00    +0.000 OA
ATOM     25  C   UNL     1       2.067   3.634  20.061  0.00  0.00    +0.000 C 
ATOM     26  C   UNL     1       2.617   2.417  19.314  0.00  0.00    +0.000 C 
ATOM     27  C   UNL     1       3.499   2.877  18.136  0.00  0.00    +0.000 C 
ATOM     28  C   UNL     1       4.526   3.933  18.576  0.00  0.00    +0.000 C 
BRANCH  26  29
ATOM     29  O   UNL     1       1.534   1.594  18.859  0.00  0.00    +0.000 OA
ATOM     30  H   UNL     1       1.872   0.701  18.674  0.00  0.00    +0.000 HD
ENDBRANCH  26  29
BRANCH  27  31
ATOM     31  O   UNL     1       4.173   1.744  17.563  0.00  0.00    +0.000 OA
ATOM     32  H   UNL     1       3.886   1.694  16.629  0.00  0.00    +0.000 HD
ENDBRANCH  27  31
BRANCH  28  33
ATOM     33  O   UNL     1       5.529   3.279  19.381  0.00  0.00    +0.000 OA
ATOM     34  H   UNL     1       5.139   3.116  20.263  0.00  0.00    +0.000 HD
ENDBRANCH  28  33
BRANCH  25  35
ATOM     35  C   UNL     1       1.292   3.227  21.319  0.00  0.00    +0.000 C 
BRANCH  35  36
ATOM     36  O   UNL     1       1.955   2.169  22.016  0.00  0.00    +0.000 OA
ATOM     37  H   UNL     1       2.672   2.590  22.522  0.00  0.00    +0.000 HD
ENDBRANCH  35  36
ENDBRANCH  25  35
ENDBRANCH  22  23
ENDBRANCH   4  22
TORSDOF 12
ENDMDL
MODEL 2
REMARK VINA RESULT:      -8.1      2.050      2.371
REMARK  Name = 
REMARK  12 active torsions:
REMARK  status: ('A' for Active; 'I' for Inactive)
REMARK    1  A    between atoms: N_1  and  C_2
REMARK    2  A    between atoms: C_2  and  C_3
REMARK    3  A    between atoms: C_3  and  N_4
REMARK    4  A    between atoms: C_5  and  C_7
REMARK    5  A    between atoms: C_11  and  C_12
REMARK    6  A    between atoms: C_15  and  O_16
REMARK    7  A    between atoms: O_16  and  C_17
REMARK    8  A    between atoms: C_19  and  C_20
REMARK    9  A    between atoms: C_20  and  O_21
REMARK   10  A    between atoms: C_22  and  O_23
REMARK   11  A    between atoms: C_24  and  O_25
REMARK   12  A    between atoms: C_26  and  O_27
REMARK                            x       y       z     vdW  Elec       q    Type
REMARK                         _______ _______ _______ _____ _____    ______ ____
ROOT
ATOM      1  C   UNL     1       0.792   9.479  19.491  0.00  0.00    +0.000 A 
ATOM      2  C   UNL     1       1.206   8.591  20.504  0.00  0.00    +0.000 A 
ATOM      3  C   UNL     1       2.017   7.462  20.212  0.00  0.00    +0.000 A 
ATOM      4  C   UNL     1       2.423   7.201  18.904  0.00  0.00    +0.000 A 
ATOM      5  C   UNL     1       2.077   8.106  17.909  0.00  0.00    +0.000 A 
ATOM      6  C   UNL     1       1.266   9.205  18.195  0.00  0.00    +0.000 A 
ENDROOT
BRANCH   1  11
ATOM      7  C   UNL     1      -1.627  11.984  21.074  0.00  0.00    +0.000 A 
ATOM      8  C   UNL     1      -2.297  12.449  19.936  0.00  0.00    +0.000 A 
ATOM      9  C   UNL     1      -1.872  12.059  18.676  0.00  0.00    +0.000 A 
ATOM     10  C   UNL     1      -0.797  11.177  18.555  0.00  0.00    +0.000 A 
ATOM     11  C   UNL     1      -0.140  10.625  19.680  0.00  0.00    +0.000 A 
ATOM     12  C   UNL     1      -0.544  11.088  20.948  0.00  0.00    +0.000 A 
BRANCH   7  14
ATOM     13  N   UNL     1      -3.036  13.461  22.417  0.00  0.00    +0.000 N 
ATOM     14  C   UNL     1      -2.194  12.372  22.395  0.00  0.00    +0.000 C 
ATOM     15  O   UNL     1      -1.928  11.709  23.393  0.00  0.00    +0.000 OA
ATOM     16  H   UNL     1      -3.480  13.761  21.558  0.00  0.00    +0.000 HD
BRANCH  13  17
ATOM     17  C   UNL     1      -3.713  13.819  23.653  0.00  0.00    +0.000 C 
BRANCH  17  18
ATOM     18  C   UNL     1      -4.987  12.998  23.871  0.00  0.00    +0.000 C 
BRANCH  18  19
ATOM     19  N   UNL     1      -4.823  12.021  24.954  0.00  0.00    +0.000 NA
ATOM     20  H   UNL     1      -4.881  11.081  24.559  0.00  0.00    +0.000 HD
ATOM     21  H   UNL     1      -5.618  12.099  25.590  0.00  0.00    +0.000 HD
ENDBRANCH  18  19
ENDBRANCH  17  18
ENDBRANCH  13  17
ENDBRANCH   7  14
ENDBRANCH   1  11
BRANCH   4  22
ATOM     22  O   UNL     1       3.125   6.129  18.433  0.00  0.00    +0.000 OA
BRANCH  22  23
ATOM     23  C   UNL     1       3.960   5.370  19.310  0.00  0.00    +0.000 C 
ATOM     24  O   UNL     1       3.268   4.748  20.414  0.00  0.00    +0.000 OA
ATOM     25  C   UNL     1       2.252   3.823  19.987  0.00  0.00    +0.000 C 
ATOM     26  C   UNL     1       2.843   2.655  19.192  0.00  0.00    +0.000 C 
ATOM     27  C   UNL     1       3.694   3.191  18.023  0.00  0.00    +0.000 C 
ATOM     28  C   UNL     1       4.683   4.272  18.492  0.00  0.00    +0.000 C 
BRANCH  26  29
ATOM     29  O   UNL     1       1.789   1.806  18.718  0.00  0.00    +0.000 OA
ATOM     30  H   UNL     1       1.302   1.451  19.482  0.00  0.00    +0.000 HD
ENDBRANCH  26  29
BRANCH  27  31
ATOM     31  O   UNL     1       4.407   2.107  17.405  0.00  0.00    +0.000 OA
ATOM     32  H   UNL     1       5.256   2.025  17.884  0.00  0.00    +0.000 HD
ENDBRANCH  27  31
BRANCH  28  33
ATOM     33  O   UNL     1       5.718   3.631  19.264  0.00  0.00    +0.000 OA
ATOM     34  H   UNL     1       5.849   2.734  18.895  0.00  0.00    +0.000 HD
ENDBRANCH  28  33
BRANCH  25  35
ATOM     35  C   UNL     1       1.508   3.341  21.236  0.00  0.00    +0.000 C 
BRANCH  35  36
ATOM     36  O   UNL     1       2.235   2.310  21.908  0.00  0.00    +0.000 OA
ATOM     37  H   UNL     1       1.816   2.214  22.782  0.00  0.00    +0.000 HD
ENDBRANCH  35  36
ENDBRANCH  25  35
ENDBRANCH  22  23
ENDBRANCH   4  22
TORSDOF 12
ENDMDL
MODEL 3
REMARK VINA RESULT:      -8.0      2.434      3.532
REMARK  Name = 
REMARK  12 active torsions:
REMARK  status: ('A' for Active; 'I' for Inactive)
REMARK    1  A    between atoms: N_1  and  C_2
REMARK    2  A    between atoms: C_2  and  C_3
REMARK    3  A    between atoms: C_3  and  N_4
REMARK    4  A    between atoms: C_5  and  C_7
REMARK    5  A    between atoms: C_11  and  C_12
REMARK    6  A    between atoms: C_15  and  O_16
REMARK    7  A    between atoms: O_16  and  C_17
REMARK    8  A    between atoms: C_19  and  C_20
REMARK    9  A    between atoms: C_20  and  O_21
REMARK   10  A    between atoms: C_22  and  O_23
REMARK   11  A    between atoms: C_24  and  O_25
REMARK   12  A    between atoms: C_26  and  O_27
REMARK                            x       y       z     vdW  Elec       q    Type
REMARK                         _______ _______ _______ _____ _____    ______ ____
ROOT
ATOM      1  C   UNL     1       0.724   9.995  19.603  0.00  0.00    +0.000 A 
ATOM      2  C   UNL     1       1.175   9.721  18.297  0.00  0.00    +0.000 A 
ATOM      3  C   UNL     1       1.928   8.553  18.003  0.00  0.00    +0.000 A 
ATOM      4  C   UNL     1       2.246   7.644  19.010  0.00  0.00    +0.000 A 
ATOM      5  C   UNL     1       1.749   7.869  20.288  0.00  0.00    +0.000 A 
ATOM      6  C   UNL     1       1.024   9.025  20.578  0.00  0.00    +0.000 A 
ENDROOT
BRANCH   1  11
ATOM      7  C   UNL     1      -1.477  12.454  21.537  0.00  0.00    +0.000 A 
ATOM      8  C   UNL     1      -1.720  13.414  20.548  0.00  0.00    +0.000 A 
ATOM      9  C   UNL     1      -1.067  13.332  19.328  0.00  0.00    +0.000 A 
ATOM     10  C   UNL     1      -0.195  12.269  19.086  0.00  0.00    +0.000 A 
ATOM     11  C   UNL     1       0.022  11.237  20.029  0.00  0.00    +0.000 A 
ATOM     12  C   UNL     1      -0.599  11.378  21.286  0.00  0.00    +0.000 A 
BRANCH   7  14
ATOM     13  N   UNL     1      -2.894  13.762  23.038  0.00  0.00    +0.000 N 
ATOM     14  C   UNL     1      -2.281  12.555  22.787  0.00  0.00    +0.000 C 
ATOM     15  O   UNL     1      -2.398  11.577  23.519  0.00  0.00    +0.000 OA
ATOM     16  H   UNL     1      -3.046  14.409  22.273  0.00  0.00    +0.000 HD
BRANCH  13  17
ATOM     17  C   UNL     1      -3.786  13.889  24.178  0.00  0.00    +0.000 C 
BRANCH  17  18
ATOM     18  C   UNL     1      -5.123  13.180  23.946  0.00  0.00    +0.000 C 
BRANCH  18  19
ATOM     19  N   UNL     1      -5.278  12.015  24.824  0.00  0.00    +0.000 NA
ATOM     20  H   UNL     1      -5.741  12.312  25.684  0.00  0.00    +0.000 HD
ATOM     21  H   UNL     1      -4.352  11.693  25.110  0.00  0.00    +0.000 HD
ENDBRANCH  18  19
ENDBRANCH  17  18
ENDBRANCH  13  17
ENDBRANCH   7  14
ENDBRANCH   1  11
BRANCH   4  22
ATOM     22  O   UNL     1       3.023   6.525  18.926  0.00  0.00    +0.000 OA
BRANCH  22  23
ATOM     23  C   UNL     1       2.865   5.615  17.836  0.00  0.00    +0.000 C 
ATOM     24  O   UNL     1       4.097   5.219  17.197  0.00  0.00    +0.000 OA
ATOM     25  C   UNL     1       5.005   4.555  18.095  0.00  0.00    +0.000 C 
ATOM     26  C   UNL     1       4.415   3.253  18.642  0.00  0.00    +0.000 C 
ATOM     27  C   UNL     1       3.037   3.525  19.277  0.00  0.00    +0.000 C 
ATOM     28  C   UNL     1       2.134   4.346  18.342  0.00  0.00    +0.000 C 
BRANCH  26  29
ATOM     29  O   UNL     1       5.317   2.671  19.593  0.00  0.00    +0.000 OA
ATOM     30  H   UNL     1       5.039   2.926  20.490  0.00  0.00    +0.000 HD
ENDBRANCH  26  29
BRANCH  27  31
ATOM     31  O   UNL     1       2.400   2.279  19.606  0.00  0.00    +0.000 OA
ATOM     32  H   UNL     1       2.768   1.999  20.469  0.00  0.00    +0.000 HD
ENDBRANCH  27  31
BRANCH  28  33
ATOM     33  O   UNL     1       1.728   3.498  17.249  0.00  0.00    +0.000 OA
ATOM     34  H   UNL     1       2.272   2.686  17.287  0.00  0.00    +0.000 HD
ENDBRANCH  28  33
BRANCH  25  35
ATOM     35  C   UNL     1       6.314   4.312  17.338  0.00  0.00    +0.000 C 
BRANCH  35  36
ATOM     36  O   UNL     1       7.423   4.220  18.235  0.00  0.00    +0.000 OA
ATOM     37  H   UNL     1       8.212   4.438  17.707  0.00  0.00    +0.000 HD
ENDBRANCH  35  36
ENDBRANCH  25  35
ENDBRANCH  22  23
ENDBRANCH   4  22
TORSDOF 12
ENDMDL
MODEL 4
REMARK VINA RESULT:      -7.9      1.177      1.291
REMARK  Name = 
REMARK  12 active torsions:
REMARK  status: ('A' for Active; 'I' for Inactive)
REMARK    1  A    between atoms: N_1  and  C_2
REMARK    2  A    between atoms: C_2  and  C_3
REMARK    3  A    between atoms: C_3  and  N_4
REMARK    4  A    between atoms: C_5  and  C_7
REMARK    5  A    between atoms: C_11  and  C_12
REMARK    6  A    between atoms: C_15  and  O_16
REMARK    7  A    between atoms: O_16  and  C_17
REMARK    8  A    between atoms: C_19  and  C_20
REMARK    9  A    between atoms: C_20  and  O_21
REMARK   10  A    between atoms: C_22  and  O_23
REMARK   11  A    between atoms: C_24  and  O_25
REMARK   12  A    between atoms: C_26  and  O_27
REMARK                            x       y       z     vdW  Elec       q    Type
REMARK                         _______ _______ _______ _____ _____    ______ ____
ROOT
ATOM      1  C   UNL     1       1.191   9.467  19.239  0.00  0.00    +0.000 A 
ATOM      2  C   UNL     1       1.292   8.512  20.270  0.00  0.00    +0.000 A 
ATOM      3  C   UNL     1       1.938   7.264  20.063  0.00  0.00    +0.000 A 
ATOM      4  C   UNL     1       2.489   6.949  18.823  0.00  0.00    +0.000 A 
ATOM      5  C   UNL     1       2.456   7.910  17.819  0.00  0.00    +0.000 A 
ATOM      6  C   UNL     1       1.805   9.128  18.019  0.00  0.00    +0.000 A 
ENDROOT
BRANCH   1  11
ATOM      7  C   UNL     1      -1.623  12.057  19.182  0.00  0.00    +0.000 A 
ATOM      8  C   UNL     1      -0.889  13.229  18.966  0.00  0.00    +0.000 A 
ATOM      9  C   UNL     1       0.496  13.191  18.981  0.00  0.00    +0.000 A 
ATOM     10  C   UNL     1       1.148  11.973  19.179  0.00  0.00    +0.000 A 
ATOM     11  C   UNL     1       0.446  10.753  19.326  0.00  0.00    +0.000 A 
ATOM     12  C   UNL     1      -0.960  10.827  19.377  0.00  0.00    +0.000 A 
BRANCH   7  14
ATOM     13  N   UNL     1      -3.762  12.865  20.042  0.00  0.00    +0.000 N 
ATOM     14  C   UNL     1      -3.104  12.157  19.062  0.00  0.00    +0.000 C 
ATOM     15  O   UNL     1      -3.675  11.648  18.103  0.00  0.00    +0.000 OA
ATOM     16  H   UNL     1      -3.245  13.528  20.607  0.00  0.00    +0.000 HD
BRANCH  13  17
ATOM     17  C   UNL     1      -5.192  13.097  19.921  0.00  0.00    +0.000 C 
BRANCH  17  18
ATOM     18  C   UNL     1      -5.887  13.140  21.285  0.00  0.00    +0.000 C 
BRANCH  18  19
ATOM     19  N   UNL     1      -5.068  12.512  22.329  0.00  0.00    +0.000 NA
ATOM     20  H   UNL     1      -5.687  12.044  22.993  0.00  0.00    +0.000 HD
ATOM     21  H   UNL     1      -4.598  13.244  22.864  0.00  0.00    +0.000 HD
ENDBRANCH  18  19
ENDBRANCH  17  18
ENDBRANCH  13  17
ENDBRANCH   7  14
ENDBRANCH   1  11
BRANCH   4  22
ATOM     22  O   UNL     1       3.066   5.778  18.424  0.00  0.00    +0.000 OA
BRANCH  22  23
ATOM     23  C   UNL     1       3.814   4.989  19.352  0.00  0.00    +0.000 C 
ATOM     24  O   UNL     1       3.027   4.378  20.396  0.00  0.00    +0.000 OA
ATOM     25  C   UNL     1       2.020   3.484  19.887  0.00  0.00    +0.000 C 
ATOM     26  C   UNL     1       2.636   2.308  19.125  0.00  0.00    +0.000 C 
ATOM     27  C   UNL     1       3.584   2.829  18.027  0.00  0.00    +0.000 C 
ATOM     28  C   UNL     1       4.565   3.878  18.577  0.00  0.00    +0.000 C 
BRANCH  26  29
ATOM     29  O   UNL     1       1.597   1.492  18.567  0.00  0.00    +0.000 OA
ATOM     30  H   UNL     1       1.055   1.131  19.291  0.00  0.00    +0.000 HD
ENDBRANCH  26  29
BRANCH  27  31
ATOM     31  O   UNL     1       4.310   1.730  17.451  0.00  0.00    +0.000 OA
ATOM     32  H   UNL     1       3.752   0.936  17.573  0.00  0.00    +0.000 HD
ENDBRANCH  27  31
BRANCH  28  33
ATOM     33  O   UNL     1       5.524   3.202  19.415  0.00  0.00    +0.000 OA
ATOM     34  H   UNL     1       5.620   2.290  19.076  0.00  0.00    +0.000 HD
ENDBRANCH  28  33
BRANCH  25  35
ATOM     35  C   UNL     1       1.174   3.013  21.074  0.00  0.00    +0.000 C 
BRANCH  35  36
ATOM     36  O   UNL     1       1.979   2.816  22.239  0.00  0.00    +0.000 OA
ATOM     37  H   UNL     1       1.691   1.968  22.622  0.00  0.00    +0.000 HD
ENDBRANCH  35  36
ENDBRANCH  25  35
ENDBRANCH  22  23
ENDBRANCH   4  22
TORSDOF 12
ENDMDL
MODEL 5
REMARK VINA RESULT:      -7.9      2.672      3.242
REMARK  Name = 
REMARK  12 active torsions:
REMARK  status: ('A' for Active; 'I' for Inactive)
REMARK    1  A    between atoms: N_1  and  C_2
REMARK    2  A    between atoms: C_2  and  C_3
REMARK    3  A    between atoms: C_3  and  N_4
REMARK    4  A    between atoms: C_5  and  C_7
REMARK    5  A    between atoms: C_11  and  C_12
REMARK    6  A    between atoms: C_15  and  O_16
REMARK    7  A    between atoms: O_16  and  C_17
REMARK    8  A    between atoms: C_19  and  C_20
REMARK    9  A    between atoms: C_20  and  O_21
REMARK   10  A    between atoms: C_22  and  O_23
REMARK   11  A    between atoms: C_24  and  O_25
REMARK   12  A    between atoms: C_26  and  O_27
REMARK                            x       y       z     vdW  Elec       q    Type
REMARK                         _______ _______ _______ _____ _____    ______ ____
ROOT
ATOM      1  C   UNL     1       1.058   9.046  18.972  0.00  0.00    +0.000 A 
ATOM      2  C   UNL     1       1.275   8.422  20.216  0.00  0.00    +0.000 A 
ATOM      3  C   UNL     1       2.165   7.322  20.348  0.00  0.00    +0.000 A 
ATOM      4  C   UNL     1       2.847   6.827  19.238  0.00  0.00    +0.000 A 
ATOM      5  C   UNL     1       2.692   7.477  18.019  0.00  0.00    +0.000 A 
ATOM      6  C   UNL     1       1.805   8.546  17.889  0.00  0.00    +0.000 A 
ENDROOT
BRANCH   1  11
ATOM      7  C   UNL     1      -1.752  11.119  17.410  0.00  0.00    +0.000 A 
ATOM      8  C   UNL     1      -1.432  12.392  17.895  0.00  0.00    +0.000 A 
ATOM      9  C   UNL     1      -0.411  12.545  18.820  0.00  0.00    +0.000 A 
ATOM     10  C   UNL     1       0.312  11.425  19.235  0.00  0.00    +0.000 A 
ATOM     11  C   UNL     1       0.071  10.132  18.714  0.00  0.00    +0.000 A 
ATOM     12  C   UNL     1      -1.015   9.991  17.828  0.00  0.00    +0.000 A 
BRANCH   7  14
ATOM     13  N   UNL     1      -2.480  10.343  15.211  0.00  0.00    +0.000 N 
ATOM     14  C   UNL     1      -2.798  11.044  16.352  0.00  0.00    +0.000 C 
ATOM     15  O   UNL     1      -3.893  11.566  16.537  0.00  0.00    +0.000 OA
ATOM     16  H   UNL     1      -1.725   9.669  15.238  0.00  0.00    +0.000 HD
BRANCH  13  17
ATOM     17  C   UNL     1      -3.496  10.133  14.193  0.00  0.00    +0.000 C 
BRANCH  17  18
ATOM     18  C   UNL     1      -2.901   9.600  12.886  0.00  0.00    +0.000 C 
BRANCH  18  19
ATOM     19  N   UNL     1      -3.832   9.759  11.763  0.00  0.00    +0.000 NA
ATOM     20  H   UNL     1      -3.337  10.202  10.987  0.00  0.00    +0.000 HD
ATOM     21  H   UNL     1      -4.562  10.420  12.032  0.00  0.00    +0.000 HD
ENDBRANCH  18  19
ENDBRANCH  17  18
ENDBRANCH  13  17
ENDBRANCH   7  14
ENDBRANCH   1  11
BRANCH   4  22
ATOM     22  O   UNL     1       3.667   5.738  19.164  0.00  0.00    +0.000 OA
BRANCH  22  23
ATOM     23  C   UNL     1       3.279   4.593  18.402  0.00  0.00    +0.000 C 
ATOM     24  O   UNL     1       4.016   3.389  18.706  0.00  0.00    +0.000 OA
ATOM     25  C   UNL     1       3.875   2.978  20.078  0.00  0.00    +0.000 C 
ATOM     26  C   UNL     1       2.423   2.643  20.426  0.00  0.00    +0.000 C 
ATOM     27  C   UNL     1       1.506   3.827  20.059  0.00  0.00    +0.000 C 
ATOM     28  C   UNL     1       1.770   4.325  18.628  0.00  0.00    +0.000 C 
BRANCH  26  29
ATOM     29  O   UNL     1       2.318   2.320  21.819  0.00  0.00    +0.000 OA
ATOM     30  H   UNL     1       3.079   1.769  22.074  0.00  0.00    +0.000 HD
ENDBRANCH  26  29
BRANCH  27  31
ATOM     31  O   UNL     1       0.130   3.436  20.197  0.00  0.00    +0.000 OA
ATOM     32  H   UNL     1      -0.064   3.441  21.156  0.00  0.00    +0.000 HD
ENDBRANCH  27  31
BRANCH  28  33
ATOM     33  O   UNL     1       1.263   3.339  17.707  0.00  0.00    +0.000 OA
ATOM     34  H   UNL     1       1.230   3.753  16.821  0.00  0.00    +0.000 HD
ENDBRANCH  28  33
BRANCH  25  35
ATOM     35  C   UNL     1       4.804   1.781  20.302  0.00  0.00    +0.000 C 
BRANCH  35  36
ATOM     36  O   UNL     1       4.711   0.844  19.227  0.00  0.00    +0.000 OA
ATOM     37  H   UNL     1       4.173   0.105  19.563  0.00  0.00    +0.000 HD
ENDBRANCH  35  36
ENDBRANCH  25  35
ENDBRANCH  22  23
ENDBRANCH   4  22
TORSDOF 12
ENDMDL
MODEL 6
REMARK VINA RESULT:      -7.9      1.500      3.048
REMARK  Name = 
REMARK  12 active torsions:
REMARK  status: ('A' for Active; 'I' for Inactive)
REMARK    1  A    between atoms: N_1  and  C_2
REMARK    2  A    between atoms: C_2  and  C_3
REMARK    3  A    between atoms: C_3  and  N_4
REMARK    4  A    between atoms: C_5  and  C_7
REMARK    5  A    between atoms: C_11  and  C_12
REMARK    6  A    between atoms: C_15  and  O_16
REMARK    7  A    between atoms: O_16  and  C_17
REMARK    8  A    between atoms: C_19  and  C_20
REMARK    9  A    between atoms: C_20  and  O_21
REMARK   10  A    between atoms: C_22  and  O_23
REMARK   11  A    between atoms: C_24  and  O_25
REMARK   12  A    between atoms: C_26  and  O_27
REMARK                            x       y       z     vdW  Elec       q    Type
REMARK                         _______ _______ _______ _____ _____    ______ ____
ROOT
ATOM      1  C   UNL     1       0.966   9.926  19.378  0.00  0.00    +0.000 A 
ATOM      2  C   UNL     1       1.552   9.557  18.151  0.00  0.00    +0.000 A 
ATOM      3  C   UNL     1       2.281   8.345  18.014  0.00  0.00    +0.000 A 
ATOM      4  C   UNL     1       2.440   7.487  19.101  0.00  0.00    +0.000 A 
ATOM      5  C   UNL     1       1.809   7.809  20.297  0.00  0.00    +0.000 A 
ATOM      6  C   UNL     1       1.108   9.007  20.434  0.00  0.00    +0.000 A 
ENDROOT
BRANCH   1  11
ATOM      7  C   UNL     1      -1.755  12.539  20.011  0.00  0.00    +0.000 A 
ATOM      8  C   UNL     1      -1.085  13.706  19.630  0.00  0.00    +0.000 A 
ATOM      9  C   UNL     1       0.263  13.658  19.310  0.00  0.00    +0.000 A 
ATOM     10  C   UNL     1       0.933  12.433  19.341  0.00  0.00    +0.000 A 
ATOM     11  C   UNL     1       0.275  11.218  19.648  0.00  0.00    +0.000 A 
ATOM     12  C   UNL     1      -1.076  11.302  20.036  0.00  0.00    +0.000 A 
BRANCH   7  14
ATOM     13  N   UNL     1      -4.041  12.581  19.149  0.00  0.00    +0.000 N 
ATOM     14  C   UNL     1      -3.221  12.651  20.252  0.00  0.00    +0.000 C 
ATOM     15  O   UNL     1      -3.645  12.768  21.398  0.00  0.00    +0.000 OA
ATOM     16  H   UNL     1      -3.689  12.162  18.296  0.00  0.00    +0.000 HD
BRANCH  13  17
ATOM     17  C   UNL     1      -5.483  12.568  19.328  0.00  0.00    +0.000 C 
BRANCH  17  18
ATOM     18  C   UNL     1      -6.150  11.434  18.542  0.00  0.00    +0.000 C 
BRANCH  18  19
ATOM     19  N   UNL     1      -6.214  11.735  17.107  0.00  0.00    +0.000 NA
ATOM     20  H   UNL     1      -5.794  10.961  16.591  0.00  0.00    +0.000 HD
ATOM     21  H   UNL     1      -5.621  12.544  16.914  0.00  0.00    +0.000 HD
ENDBRANCH  18  19
ENDBRANCH  17  18
ENDBRANCH  13  17
ENDBRANCH   7  14
ENDBRANCH   1  11
BRANCH   4  22
ATOM     22  O   UNL     1       3.171   6.337  19.173  0.00  0.00    +0.000 OA
BRANCH  22  23
ATOM     23  C   UNL     1       3.045   5.337  18.160  0.00  0.00    +0.000 C 
ATOM     24  O   UNL     1       3.926   5.510  17.029  0.00  0.00    +0.000 OA
ATOM     25  C   UNL     1       5.318   5.485  17.396  0.00  0.00    +0.000 C 
ATOM     26  C   UNL     1       5.723   4.138  18.001  0.00  0.00    +0.000 C 
ATOM     27  C   UNL     1       4.788   3.786  19.176  0.00  0.00    +0.000 C 
ATOM     28  C   UNL     1       3.309   3.947  18.790  0.00  0.00    +0.000 C 
BRANCH  26  29
ATOM     29  O   UNL     1       7.092   4.187  18.426  0.00  0.00    +0.000 OA
ATOM     30  H   UNL     1       7.358   5.118  18.527  0.00  0.00    +0.000 HD
ENDBRANCH  26  29
BRANCH  27  31
ATOM     31  O   UNL     1       5.040   2.439  19.610  0.00  0.00    +0.000 OA
ATOM     32  H   UNL     1       5.004   2.452  20.588  0.00  0.00    +0.000 HD
ENDBRANCH  27  31
BRANCH  28  33
ATOM     33  O   UNL     1       2.961   2.880  17.884  0.00  0.00    +0.000 OA
ATOM     34  H   UNL     1       1.985   2.816  17.864  0.00  0.00    +0.000 HD
ENDBRANCH  28  33
BRANCH  25  35
ATOM     35  C   UNL     1       6.134   5.813  16.142  0.00  0.00    +0.000 C 
BRANCH  35  36
ATOM     36  O   UNL     1       7.409   6.363  16.483  0.00  0.00    +0.000 OA
ATOM     37  H   UNL     1       7.434   7.249  16.080  0.00  0.00    +0.000 HD
ENDBRANCH  35  36
ENDBRANCH  25  35
ENDBRANCH  22  23
ENDBRANCH   4  22
TORSDOF 12
ENDMDL
MODEL 7
REMARK VINA RESULT:      -7.9      2.669      4.024
REMARK  Name = 
REMARK  12 active torsions:
REMARK  status: ('A' for Active; 'I' for Inactive)
REMARK    1  A    between atoms: N_1  and  C_2
REMARK    2  A    between atoms: C_2  and  C_3
REMARK    3  A    between atoms: C_3  and  N_4
REMARK    4  A    between atoms: C_5  and  C_7
REMARK    5  A    between atoms: C_11  and  C_12
REMARK    6  A    between atoms: C_15  and  O_16
REMARK    7  A    between atoms: O_16  and  C_17
REMARK    8  A    between atoms: C_19  and  C_20
REMARK    9  A    between atoms: C_20  and  O_21
REMARK   10  A    between atoms: C_22  and  O_23
REMARK   11  A    between atoms: C_24  and  O_25
REMARK   12  A    between atoms: C_26  and  O_27
REMARK                            x       y       z     vdW  Elec       q    Type
REMARK                         _______ _______ _______ _____ _____    ______ ____
ROOT
ATOM      1  C   UNL     1       0.442   9.721  19.356  0.00  0.00    +0.000 A 
ATOM      2  C   UNL     1       1.010   9.464  18.092  0.00  0.00    +0.000 A 
ATOM      3  C   UNL     1       1.961   8.426  17.905  0.00  0.00    +0.000 A 
ATOM      4  C   UNL     1       2.362   7.631  18.978  0.00  0.00    +0.000 A 
ATOM      5  C   UNL     1       1.759   7.831  20.213  0.00  0.00    +0.000 A 
ATOM      6  C   UNL     1       0.838   8.863  20.399  0.00  0.00    +0.000 A 
ENDROOT
BRANCH   1  11
ATOM      7  C   UNL     1      -1.811  12.160  21.255  0.00  0.00    +0.000 A 
ATOM      8  C   UNL     1      -2.618  12.629  20.213  0.00  0.00    +0.000 A 
ATOM      9  C   UNL     1      -2.341  12.265  18.905  0.00  0.00    +0.000 A 
ATOM     10  C   UNL     1      -1.273  11.404  18.642  0.00  0.00    +0.000 A 
ATOM     11  C   UNL     1      -0.479  10.848  19.672  0.00  0.00    +0.000 A 
ATOM     12  C   UNL     1      -0.736  11.286  20.986  0.00  0.00    +0.000 A 
BRANCH   7  14
ATOM     13  N   UNL     1      -3.543  12.315  22.970  0.00  0.00    +0.000 N 
ATOM     14  C   UNL     1      -2.222  12.518  22.641  0.00  0.00    +0.000 C 
ATOM     15  O   UNL     1      -1.389  12.942  23.436  0.00  0.00    +0.000 OA
ATOM     16  H   UNL     1      -4.099  11.674  22.417  0.00  0.00    +0.000 HD
BRANCH  13  17
ATOM     17  C   UNL     1      -3.982  12.535  24.339  0.00  0.00    +0.000 C 
BRANCH  17  18
ATOM     18  C   UNL     1      -5.507  12.483  24.470  0.00  0.00    +0.000 C 
BRANCH  18  19
ATOM     19  N   UNL     1      -6.115  13.798  24.233  0.00  0.00    +0.000 NA
ATOM     20  H   UNL     1      -6.730  13.733  23.420  0.00  0.00    +0.000 HD
ATOM     21  H   UNL     1      -5.381  14.457  23.968  0.00  0.00    +0.000 HD
ENDBRANCH  18  19
ENDBRANCH  17  18
ENDBRANCH  13  17
ENDBRANCH   7  14
ENDBRANCH   1  11
BRANCH   4  22
ATOM     22  O   UNL     1       3.316   6.655  18.999  0.00  0.00    +0.000 OA
BRANCH  22  23
ATOM     23  C   UNL     1       3.566   5.864  17.836  0.00  0.00    +0.000 C 
ATOM     24  O   UNL     1       4.712   6.276  17.061  0.00  0.00    +0.000 OA
ATOM     25  C   UNL     1       5.941   6.224  17.808  0.00  0.00    +0.000 C 
ATOM     26  C   UNL     1       6.271   4.799  18.261  0.00  0.00    +0.000 C 
ATOM     27  C   UNL     1       5.077   4.201  19.031  0.00  0.00    +0.000 C 
ATOM     28  C   UNL     1       3.758   4.387  18.263  0.00  0.00    +0.000 C 
BRANCH  26  29
ATOM     29  O   UNL     1       7.456   4.808  19.069  0.00  0.00    +0.000 OA
ATOM     30  H   UNL     1       8.011   4.047  18.825  0.00  0.00    +0.000 HD
ENDBRANCH  26  29
BRANCH  27  31
ATOM     31  O   UNL     1       5.309   2.804  19.278  0.00  0.00    +0.000 OA
ATOM     32  H   UNL     1       4.443   2.358  19.182  0.00  0.00    +0.000 HD
ENDBRANCH  27  31
BRANCH  28  33
ATOM     33  O   UNL     1       3.771   3.503  17.124  0.00  0.00    +0.000 OA
ATOM     34  H   UNL     1       4.043   2.619  17.440  0.00  0.00    +0.000 HD
ENDBRANCH  28  33
BRANCH  25  35
ATOM     35  C   UNL     1       7.047   6.810  16.925  0.00  0.00    +0.000 C 
BRANCH  35  36
ATOM     36  O   UNL     1       7.560   5.832  16.018  0.00  0.00    +0.000 OA
ATOM     37  H   UNL     1       8.340   5.445  16.455  0.00  0.00    +0.000 HD
ENDBRANCH  35  36
ENDBRANCH  25  35
ENDBRANCH  22  23
ENDBRANCH   4  22
TORSDOF 12
ENDMDL
MODEL 8
REMARK VINA RESULT:      -7.9      2.576      4.158
REMARK  Name = 
REMARK  12 active torsions:
REMARK  status: ('A' for Active; 'I' for Inactive)
REMARK    1  A    between atoms: N_1  and  C_2
REMARK    2  A    between atoms: C_2  and  C_3
REMARK    3  A    between atoms: C_3  and  N_4
REMARK    4  A    between atoms: C_5  and  C_7
REMARK    5  A    between atoms: C_11  and  C_12
REMARK    6  A    between atoms: C_15  and  O_16
REMARK    7  A    between atoms: O_16  and  C_17
REMARK    8  A    between atoms: C_19  and  C_20
REMARK    9  A    between atoms: C_20  and  O_21
REMARK   10  A    between atoms: C_22  and  O_23
REMARK   11  A    between atoms: C_24  and  O_25
REMARK   12  A    between atoms: C_26  and  O_27
REMARK                            x       y       z     vdW  Elec       q    Type
REMARK                         _______ _______ _______ _____ _____    ______ ____
ROOT
ATOM      1  C   UNL     1       1.382   8.413  20.087  0.00  0.00    +0.000 A 
ATOM      2  C   UNL     1       1.884   7.146  20.445  0.00  0.00    +0.000 A 
ATOM      3  C   UNL     1       2.720   6.406  19.566  0.00  0.00    +0.000 A 
ATOM      4  C   UNL     1       3.062   6.918  18.316  0.00  0.00    +0.000 A 
ATOM      5  C   UNL     1       2.628   8.195  17.980  0.00  0.00    +0.000 A 
ATOM      6  C   UNL     1       1.793   8.912  18.838  0.00  0.00    +0.000 A 
ENDROOT
BRANCH   1  11
ATOM      7  C   UNL     1      -1.043  11.157  21.191  0.00  0.00    +0.000 A 
ATOM      8  C   UNL     1      -0.979  11.013  22.581  0.00  0.00    +0.000 A 
ATOM      9  C   UNL     1      -0.274   9.958  23.136  0.00  0.00    +0.000 A 
ATOM     10  C   UNL     1       0.396   9.063  22.299  0.00  0.00    +0.000 A 
ATOM     11  C   UNL     1       0.419   9.215  20.892  0.00  0.00    +0.000 A 
ATOM     12  C   UNL     1      -0.360  10.254  20.348  0.00  0.00    +0.000 A 
BRANCH   7  14
ATOM     13  N   UNL     1      -2.870  12.772  21.345  0.00  0.00    +0.000 N 
ATOM     14  C   UNL     1      -1.742  12.365  20.669  0.00  0.00    +0.000 C 
ATOM     15  O   UNL     1      -1.288  12.963  19.699  0.00  0.00    +0.000 OA
ATOM     16  H   UNL     1      -3.013  12.467  22.300  0.00  0.00    +0.000 HD
BRANCH  13  17
ATOM     17  C   UNL     1      -3.530  14.008  20.957  0.00  0.00    +0.000 C 
BRANCH  17  18
ATOM     18  C   UNL     1      -5.011  13.793  20.630  0.00  0.00    +0.000 C 
BRANCH  18  19
ATOM     19  N   UNL     1      -5.206  13.417  19.225  0.00  0.00    +0.000 NA
ATOM     20  H   UNL     1      -4.507  13.899  18.658  0.00  0.00    +0.000 HD
ATOM     21  H   UNL     1      -6.108  13.777  18.911  0.00  0.00    +0.000 HD
ENDBRANCH  18  19
ENDBRANCH  17  18
ENDBRANCH  13  17
ENDBRANCH   7  14
ENDBRANCH   1  11
BRANCH   4  22
ATOM     22  O   UNL     1       3.777   6.316  17.320  0.00  0.00    +0.000 OA
BRANCH  22  23
ATOM     23  C   UNL     1       4.237   4.973  17.473  0.00  0.00    +0.000 C 
ATOM     24  O   UNL     1       4.404   4.248  16.235  0.00  0.00    +0.000 OA
ATOM     25  C   UNL     1       5.360   4.862  15.352  0.00  0.00    +0.000 C 
ATOM     26  C   UNL     1       6.761   4.905  15.969  0.00  0.00    +0.000 C 
ATOM     27  C   UNL     1       6.706   5.579  17.354  0.00  0.00    +0.000 C 
ATOM     28  C   UNL     1       5.589   4.987  18.229  0.00  0.00    +0.000 C 
BRANCH  26  29
ATOM     29  O   UNL     1       7.659   5.597  15.092  0.00  0.00    +0.000 OA
ATOM     30  H   UNL     1       7.284   6.470  14.880  0.00  0.00    +0.000 HD
ENDBRANCH  26  29
BRANCH  27  31
ATOM     31  O   UNL     1       7.975   5.438  18.014  0.00  0.00    +0.000 OA
ATOM     32  H   UNL     1       8.632   5.253  17.313  0.00  0.00    +0.000 HD
ENDBRANCH  27  31
BRANCH  28  33
ATOM     33  O   UNL     1       5.986   3.659  18.629  0.00  0.00    +0.000 OA
ATOM     34  H   UNL     1       6.964   3.629  18.620  0.00  0.00    +0.000 HD
ENDBRANCH  28  33
BRANCH  25  35
ATOM     35  C   UNL     1       5.344   4.082  14.034  0.00  0.00    +0.000 C 
BRANCH  35  36
ATOM     36  O   UNL     1       6.572   3.379  13.832  0.00  0.00    +0.000 OA
ATOM     37  H   UNL     1       6.879   3.628  12.942  0.00  0.00    +0.000 HD
ENDBRANCH  35  36
ENDBRANCH  25  35
ENDBRANCH  22  23
ENDBRANCH   4  22
TORSDOF 12
ENDMDL
MODEL 9
REMARK VINA RESULT:      -7.8      3.191      4.720
REMARK  Name = 
REMARK  12 active torsions:
REMARK  status: ('A' for Active; 'I' for Inactive)
REMARK    1  A    between atoms: N_1  and  C_2
REMARK    2  A    between atoms: C_2  and  C_3
REMARK    3  A    between atoms: C_3  and  N_4
REMARK    4  A    between atoms: C_5  and  C_7
REMARK    5  A    between atoms: C_11  and  C_12
REMARK    6  A    between atoms: C_15  and  O_16
REMARK    7  A    between atoms: O_16  and  C_17
REMARK    8  A    between atoms: C_19  and  C_20
REMARK    9  A    between atoms: C_20  and  O_21
REMARK   10  A    between atoms: C_22  and  O_23
REMARK   11  A    between atoms: C_24  and  O_25
REMARK   12  A    between atoms: C_26  and  O_27
REMARK                            x       y       z     vdW  Elec       q    Type
REMARK                         _______ _______ _______ _____ _____    ______ ____
ROOT
ATOM      1  C   UNL     1       1.355   8.452  20.145  0.00  0.00    +0.000 A 
ATOM      2  C   UNL     1       1.732   7.162  20.568  0.00  0.00    +0.000 A 
ATOM      3  C   UNL     1       2.457   6.285  19.717  0.00  0.00    +0.000 A 
ATOM      4  C   UNL     1       2.812   6.682  18.429  0.00  0.00    +0.000 A 
ATOM      5  C   UNL     1       2.505   7.976  18.025  0.00  0.00    +0.000 A 
ATOM      6  C   UNL     1       1.779   8.829  18.856  0.00  0.00    +0.000 A 
ENDROOT
BRANCH   1  11
ATOM      7  C   UNL     1      -0.126  11.670  21.587  0.00  0.00    +0.000 A 
ATOM      8  C   UNL     1      -0.711  11.181  22.760  0.00  0.00    +0.000 A 
ATOM      9  C   UNL     1      -0.742   9.816  23.001  0.00  0.00    +0.000 A 
ATOM     10  C   UNL     1      -0.159   8.942  22.082  0.00  0.00    +0.000 A 
ATOM     11  C   UNL     1       0.509   9.400  20.921  0.00  0.00    +0.000 A 
ATOM     12  C   UNL     1       0.468  10.784  20.663  0.00  0.00    +0.000 A 
BRANCH   7  14
ATOM     13  N   UNL     1      -0.814  13.718  20.446  0.00  0.00    +0.000 N 
ATOM     14  C   UNL     1      -0.048  13.150  21.439  0.00  0.00    +0.000 C 
ATOM     15  O   UNL     1       0.653  13.805  22.204  0.00  0.00    +0.000 OA
ATOM     16  H   UNL     1      -1.604  13.204  20.075  0.00  0.00    +0.000 HD
BRANCH  13  17
ATOM     17  C   UNL     1      -0.872  15.166  20.326  0.00  0.00    +0.000 C 
BRANCH  17  18
ATOM     18  C   UNL     1      -0.176  15.666  19.056  0.00  0.00    +0.000 C 
BRANCH  18  19
ATOM     19  N   UNL     1      -0.946  16.730  18.401  0.00  0.00    +0.000 NA
ATOM     20  H   UNL     1      -0.495  16.962  17.515  0.00  0.00    +0.000 HD
ATOM     21  H   UNL     1      -0.885  17.577  18.968  0.00  0.00    +0.000 HD
ENDBRANCH  18  19
ENDBRANCH  17  18
ENDBRANCH  13  17
ENDBRANCH   7  14
ENDBRANCH   1  11
BRANCH   4  22
ATOM     22  O   UNL     1       3.428   5.949  17.457  0.00  0.00    +0.000 OA
BRANCH  22  23
ATOM     23  C   UNL     1       4.111   4.738  17.788  0.00  0.00    +0.000 C 
ATOM     24  O   UNL     1       4.616   4.001  16.654  0.00  0.00    +0.000 OA
ATOM     25  C   UNL     1       5.565   4.752  15.877  0.00  0.00    +0.000 C 
ATOM     26  C   UNL     1       6.810   5.114  16.691  0.00  0.00    +0.000 C 
ATOM     27  C   UNL     1       6.399   5.833  17.991  0.00  0.00    +0.000 C 
ATOM     28  C   UNL     1       5.291   5.069  18.735  0.00  0.00    +0.000 C 
BRANCH  26  29
ATOM     29  O   UNL     1       7.687   5.930  15.903  0.00  0.00    +0.000 OA
ATOM     30  H   UNL     1       7.680   6.836  16.258  0.00  0.00    +0.000 HD
ENDBRANCH  26  29
BRANCH  27  31
ATOM     31  O   UNL     1       7.546   5.990  18.843  0.00  0.00    +0.000 OA
ATOM     32  H   UNL     1       8.300   5.585  18.369  0.00  0.00    +0.000 HD
ENDBRANCH  27  31
BRANCH  28  33
ATOM     33  O   UNL     1       5.869   3.874  19.299  0.00  0.00    +0.000 OA
ATOM     34  H   UNL     1       6.064   4.057  20.240  0.00  0.00    +0.000 HD
ENDBRANCH  28  33
BRANCH  25  35
ATOM     35  C   UNL     1       5.917   3.919  14.640  0.00  0.00    +0.000 C 
BRANCH  35  36
ATOM     36  O   UNL     1       6.714   4.668  13.719  0.00  0.00    +0.000 OA
ATOM     37  H   UNL     1       6.796   4.112  12.924  0.00  0.00    +0.000 HD
ENDBRANCH  35  36
ENDBRANCH  25  35
ENDBRANCH  22  23
ENDBRANCH   4  22
TORSDOF 12
ENDMDL
