MODEL 1
REMARK VINA RESULT:      -8.6      0.000      0.000
REMARK  Name = 
REMARK  9 active torsions:
REMARK  status: ('A' for Active; 'I' for Inactive)
REMARK    1  A    between atoms: C_1  and  C_2
REMARK    2  A    between atoms: C_2  and  C_3
REMARK    3  A    between atoms: C_6  and  S_7
REMARK    4  A    between atoms: S_7  and  N_10
REMARK    5  A    between atoms: N_10  and  C_11
REMARK    6  A    between atoms: C_14  and  N_15
REMARK    7  A    between atoms: C_16  and  C_18
REMARK    8  A    between atoms: C_19  and  C_20
REMARK    9  A    between atoms: C_31  and  O_32
REMARK                            x       y       z     vdW  Elec       q    Type
REMARK                         _______ _______ _______ _____ _____    ______ ____
ROOT
ATOM      1  C   UNL     1       3.003   5.288  18.325  0.00  0.00    +0.000 C 
ATOM      2  C   UNL     1       2.276   6.440  19.056  0.00  0.00    +0.000 A 
ATOM      3  C   UNL     1       2.119   7.775  18.558  0.00  0.00    +0.000 A 
ATOM      4  C   UNL     1       1.550   8.793  19.363  0.00  0.00    +0.000 A 
ATOM      5  C   UNL     1       1.198   8.466  20.682  0.00  0.00    +0.000 A 
ATOM      6  C   UNL     1       1.310   7.165  21.169  0.00  0.00    +0.000 A 
ATOM      7  C   UNL     1       1.778   6.148  20.343  0.00  0.00    +0.000 A 
ATOM      8  C   UNL     1       1.665   4.713  20.788  0.00  0.00    +0.000 C 
ATOM      9  C   UNL     1       1.164   3.927  19.578  0.00  0.00    +0.000 C 
ATOM     10  C   UNL     1       2.325   3.861  18.593  0.00  0.00    +0.000 C 
ENDROOT
BRANCH   4  11
ATOM     11  N   UNL     1       1.287  10.157  19.004  0.00  0.00    +0.000 N 
ATOM     12  C   UNL     1       0.084  10.827  18.914  0.00  0.00    +0.000 C 
ATOM     13  O   UNL     1      -1.020  10.326  19.132  0.00  0.00    +0.000 OA
ATOM     14  H   UNL     1       2.115  10.711  18.827  0.00  0.00    +0.000 HD
BRANCH  12  15
ATOM     15  C   UNL     1       0.209  12.296  18.530  0.00  0.00    +0.000 C 
ATOM     16  C   UNL     1       1.353  12.961  18.806  0.00  0.00    +0.000 C 
BRANCH  16  17
ATOM     17  C   UNL     1       1.762  14.373  18.553  0.00  0.00    +0.000 A 
ATOM     18  C   UNL     1       2.977  14.781  17.991  0.00  0.00    +0.000 A 
ATOM     19  C   UNL     1       3.256  16.147  17.775  0.00  0.00    +0.000 A 
ATOM     20  C   UNL     1       2.329  17.129  18.116  0.00  0.00    +0.000 A 
ATOM     21  C   UNL     1       1.117  16.745  18.674  0.00  0.00    +0.000 A 
ATOM     22  C   UNL     1       0.839  15.389  18.891  0.00  0.00    +0.000 A 
ENDBRANCH  16  17
ENDBRANCH  12  15
ENDBRANCH   4  11
BRANCH   1  23
ATOM     23  N   UNL     1       4.387   5.093  18.830  0.00  0.00    +0.000 NA
ATOM     24  H   UNL     1       4.502   4.647  19.740  0.00  0.00    +0.000 HD
BRANCH  23  25
ATOM     25  S   UNL     1       5.685   4.766  17.852  0.00  0.00    +0.000 S 
ATOM     26  O   UNL     1       5.196   4.518  16.516  0.00  0.00    +0.000 OA
ATOM     27  O   UNL     1       6.464   3.779  18.572  0.00  0.00    +0.000 OA
BRANCH  25  31
ATOM     28  C   UNL     1       8.057   8.654  18.000  0.00  0.00    +0.000 A 
ATOM     29  C   UNL     1       6.910   8.560  17.214  0.00  0.00    +0.000 A 
ATOM     30  C   UNL     1       6.188   7.370  17.145  0.00  0.00    +0.000 A 
ATOM     31  C   UNL     1       6.620   6.264  17.884  0.00  0.00    +0.000 A 
ATOM     32  C   UNL     1       7.764   6.340  18.678  0.00  0.00    +0.000 A 
ATOM     33  C   UNL     1       8.480   7.536  18.739  0.00  0.00    +0.000 A 
BRANCH  28  35
ATOM     34  C   UNL     1       9.297  10.215  19.537  0.00  0.00    +0.000 C 
ATOM     35  C   UNL     1       8.827   9.951  18.113  0.00  0.00    +0.000 C 
ENDBRANCH  28  35
ENDBRANCH  25  31
ENDBRANCH  23  25
ENDBRANCH   1  23
BRANCH  10  36
ATOM     36  O   UNL     1       1.991   3.143  17.408  0.00  0.00    +0.000 OA
ATOM     37  H   UNL     1       2.773   2.665  17.089  0.00  0.00    +0.000 HD
ENDBRANCH  10  36
TORSDOF 8
ENDMDL
MODEL 2
REMARK VINA RESULT:      -8.4      2.345      3.344
REMARK  Name = 
REMARK  9 active torsions:
REMARK  status: ('A' for Active; 'I' for Inactive)
REMARK    1  A    between atoms: C_1  and  C_2
REMARK    2  A    between atoms: C_2  and  C_3
REMARK    3  A    between atoms: C_6  and  S_7
REMARK    4  A    between atoms: S_7  and  N_10
REMARK    5  A    between atoms: N_10  and  C_11
REMARK    6  A    between atoms: C_14  and  N_15
REMARK    7  A    between atoms: C_16  and  C_18
REMARK    8  A    between atoms: C_19  and  C_20
REMARK    9  A    between atoms: C_31  and  O_32
REMARK                            x       y       z     vdW  Elec       q    Type
REMARK                         _______ _______ _______ _____ _____    ______ ____
ROOT
ATOM      1  C   UNL     1       3.248   4.962  18.132  0.00  0.00    +0.000 C 
ATOM      2  C   UNL     1       2.532   6.091  18.909  0.00  0.00    +0.000 A 
ATOM      3  C   UNL     1       2.454   7.462  18.500  0.00  0.00    +0.000 A 
ATOM      4  C   UNL     1       1.888   8.447  19.349  0.00  0.00    +0.000 A 
ATOM      5  C   UNL     1       1.459   8.045  20.623  0.00  0.00    +0.000 A 
ATOM      6  C   UNL     1       1.494   6.710  21.021  0.00  0.00    +0.000 A 
ATOM      7  C   UNL     1       1.961   5.733  20.147  0.00  0.00    +0.000 A 
ATOM      8  C   UNL     1       1.769   4.276  20.483  0.00  0.00    +0.000 C 
ATOM      9  C   UNL     1       1.296   3.599  19.198  0.00  0.00    +0.000 C 
ATOM     10  C   UNL     1       2.500   3.551  18.266  0.00  0.00    +0.000 C 
ENDROOT
BRANCH   4  11
ATOM     11  N   UNL     1       1.699   9.843  19.076  0.00  0.00    +0.000 N 
ATOM     12  C   UNL     1       0.530  10.548  18.875  0.00  0.00    +0.000 C 
ATOM     13  O   UNL     1      -0.600  10.060  18.891  0.00  0.00    +0.000 OA
ATOM     14  H   UNL     1       2.551  10.387  19.066  0.00  0.00    +0.000 HD
BRANCH  12  15
ATOM     15  C   UNL     1       0.730  12.041  18.642  0.00  0.00    +0.000 C 
ATOM     16  C   UNL     1       1.879  12.630  19.042  0.00  0.00    +0.000 C 
BRANCH  16  17
ATOM     17  C   UNL     1       2.352  14.041  18.949  0.00  0.00    +0.000 A 
ATOM     18  C   UNL     1       3.053  14.597  17.872  0.00  0.00    +0.000 A 
ATOM     19  C   UNL     1       3.437  15.954  17.877  0.00  0.00    +0.000 A 
ATOM     20  C   UNL     1       3.128  16.781  18.955  0.00  0.00    +0.000 A 
ATOM     21  C   UNL     1       2.432  16.249  20.032  0.00  0.00    +0.000 A 
ATOM     22  C   UNL     1       2.051  14.902  20.029  0.00  0.00    +0.000 A 
ENDBRANCH  16  17
ENDBRANCH  12  15
ENDBRANCH   4  11
BRANCH   1  23
ATOM     23  N   UNL     1       4.596   4.672  18.685  0.00  0.00    +0.000 NA
ATOM     24  H   UNL     1       4.782   3.724  19.013  0.00  0.00    +0.000 HD
BRANCH  23  25
ATOM     25  S   UNL     1       5.990   5.379  18.132  0.00  0.00    +0.000 S 
ATOM     26  O   UNL     1       7.096   4.871  18.910  0.00  0.00    +0.000 OA
ATOM     27  O   UNL     1       5.696   6.796  18.063  0.00  0.00    +0.000 OA
BRANCH  25  31
ATOM     28  C   UNL     1       6.252   3.965  13.808  0.00  0.00    +0.000 A 
ATOM     29  C   UNL     1       5.423   3.307  14.713  0.00  0.00    +0.000 A 
ATOM     30  C   UNL     1       5.350   3.717  16.043  0.00  0.00    +0.000 A 
ATOM     31  C   UNL     1       6.114   4.810  16.464  0.00  0.00    +0.000 A 
ATOM     32  C   UNL     1       6.947   5.484  15.572  0.00  0.00    +0.000 A 
ATOM     33  C   UNL     1       7.014   5.063  14.243  0.00  0.00    +0.000 A 
BRANCH  28  35
ATOM     34  C   UNL     1       4.942   3.169  11.812  0.00  0.00    +0.000 C 
ATOM     35  C   UNL     1       6.312   3.553  12.353  0.00  0.00    +0.000 C 
ENDBRANCH  28  35
ENDBRANCH  25  31
ENDBRANCH  23  25
ENDBRANCH   1  23
BRANCH  10  36
ATOM     36  O   UNL     1       2.197   2.931  17.018  0.00  0.00    +0.000 OA
ATOM     37  H   UNL     1       1.330   3.235  16.709  0.00  0.00    +0.000 HD
ENDBRANCH  10  36
TORSDOF 8
ENDMDL
MODEL 3
REMARK VINA RESULT:      -8.3      2.147      3.097
REMARK  Name = 
REMARK  9 active torsions:
REMARK  status: ('A' for Active; 'I' for Inactive)
REMARK    1  A    between atoms: C_1  and  C_2
REMARK    2  A    between atoms: C_2  and  C_3
REMARK    3  A    between atoms: C_6  and  S_7
REMARK    4  A    between atoms: S_7  and  N_10
REMARK    5  A    between atoms: N_10  and  C_11
REMARK    6  A    between atoms: C_14  and  N_15
REMARK    7  A    between atoms: C_16  and  C_18
REMARK    8  A    between atoms: C_19  and  C_20
REMARK    9  A    between atoms: C_31  and  O_32
REMARK                            x       y       z     vdW  Elec       q    Type
REMARK                         _______ _______ _______ _____ _____    ______ ____
ROOT
ATOM      1  C   UNL     1       3.012   5.919  18.410  0.00  0.00    +0.000 C 
ATOM      2  C   UNL     1       2.215   7.061  19.080  0.00  0.00    +0.000 A 
ATOM      3  C   UNL     1       1.977   8.356  18.512  0.00  0.00    +0.000 A 
ATOM      4  C   UNL     1       1.346   9.379  19.263  0.00  0.00    +0.000 A 
ATOM      5  C   UNL     1       1.013   9.102  20.598  0.00  0.00    +0.000 A 
ATOM      6  C   UNL     1       1.205   7.838  21.153  0.00  0.00    +0.000 A 
ATOM      7  C   UNL     1       1.735   6.809  20.382  0.00  0.00    +0.000 A 
ATOM      8  C   UNL     1       1.710   5.395  20.903  0.00  0.00    +0.000 C 
ATOM      9  C   UNL     1       1.259   4.517  19.738  0.00  0.00    +0.000 C 
ATOM     10  C   UNL     1       2.422   4.470  18.755  0.00  0.00    +0.000 C 
ENDROOT
BRANCH   4  11
ATOM     11  N   UNL     1       1.001  10.704  18.833  0.00  0.00    +0.000 N 
ATOM     12  C   UNL     1      -0.240  11.299  18.730  0.00  0.00    +0.000 C 
ATOM     13  O   UNL     1      -1.309  10.752  19.000  0.00  0.00    +0.000 OA
ATOM     14  H   UNL     1       1.793  11.291  18.606  0.00  0.00    +0.000 HD
BRANCH  12  15
ATOM     15  C   UNL     1      -0.204  12.749  18.260  0.00  0.00    +0.000 C 
ATOM     16  C   UNL     1       0.468  13.668  18.988  0.00  0.00    +0.000 C 
BRANCH  16  17
ATOM     17  C   UNL     1       0.678  15.130  18.784  0.00  0.00    +0.000 A 
ATOM     18  C   UNL     1       1.916  15.759  18.605  0.00  0.00    +0.000 A 
ATOM     19  C   UNL     1       2.001  17.152  18.398  0.00  0.00    +0.000 A 
ATOM     20  C   UNL     1       0.854  17.942  18.365  0.00  0.00    +0.000 A 
ATOM     21  C   UNL     1      -0.384  17.337  18.539  0.00  0.00    +0.000 A 
ATOM     22  C   UNL     1      -0.470  15.955  18.746  0.00  0.00    +0.000 A 
ENDBRANCH  16  17
ENDBRANCH  12  15
ENDBRANCH   4  11
BRANCH   1  23
ATOM     23  N   UNL     1       4.404   5.836  18.922  0.00  0.00    +0.000 NA
ATOM     24  H   UNL     1       4.621   6.320  19.793  0.00  0.00    +0.000 HD
BRANCH  23  25
ATOM     25  S   UNL     1       5.373   4.503  18.741  0.00  0.00    +0.000 S 
ATOM     26  O   UNL     1       4.583   3.327  19.023  0.00  0.00    +0.000 OA
ATOM     27  O   UNL     1       6.579   4.804  19.486  0.00  0.00    +0.000 OA
BRANCH  25  31
ATOM     28  C   UNL     1       6.541   4.511  14.337  0.00  0.00    +0.000 A 
ATOM     29  C   UNL     1       7.444   4.949  15.303  0.00  0.00    +0.000 A 
ATOM     30  C   UNL     1       7.091   4.970  16.651  0.00  0.00    +0.000 A 
ATOM     31  C   UNL     1       5.817   4.536  17.032  0.00  0.00    +0.000 A 
ATOM     32  C   UNL     1       4.901   4.092  16.079  0.00  0.00    +0.000 A 
ATOM     33  C   UNL     1       5.264   4.076  14.731  0.00  0.00    +0.000 A 
BRANCH  28  35
ATOM     34  C   UNL     1       6.209   3.320  12.144  0.00  0.00    +0.000 C 
ATOM     35  C   UNL     1       6.925   4.447  12.875  0.00  0.00    +0.000 C 
ENDBRANCH  28  35
ENDBRANCH  25  31
ENDBRANCH  23  25
ENDBRANCH   1  23
BRANCH  10  36
ATOM     36  O   UNL     1       2.135   3.670  17.610  0.00  0.00    +0.000 OA
ATOM     37  H   UNL     1       2.453   4.121  16.813  0.00  0.00    +0.000 HD
ENDBRANCH  10  36
TORSDOF 8
ENDMDL
MODEL 4
REMARK VINA RESULT:      -8.3      2.371      3.349
REMARK  Name = 
REMARK  9 active torsions:
REMARK  status: ('A' for Active; 'I' for Inactive)
REMARK    1  A    between atoms: C_1  and  C_2
REMARK    2  A    between atoms: C_2  and  C_3
REMARK    3  A    between atoms: C_6  and  S_7
REMARK    4  A    between atoms: S_7  and  N_10
REMARK    5  A    between atoms: N_10  and  C_11
REMARK    6  A    between atoms: C_14  and  N_15
REMARK    7  A    between atoms: C_16  and  C_18
REMARK    8  A    between atoms: C_19  and  C_20
REMARK    9  A    between atoms: C_31  and  O_32
REMARK                            x       y       z     vdW  Elec       q    Type
REMARK                         _______ _______ _______ _____ _____    ______ ____
ROOT
ATOM      1  C   UNL     1       3.220   4.599  18.128  0.00  0.00    +0.000 C 
ATOM      2  C   UNL     1       2.557   5.811  18.821  0.00  0.00    +0.000 A 
ATOM      3  C   UNL     1       2.505   7.145  18.297  0.00  0.00    +0.000 A 
ATOM      4  C   UNL     1       1.988   8.214  19.071  0.00  0.00    +0.000 A 
ATOM      5  C   UNL     1       1.583   7.937  20.385  0.00  0.00    +0.000 A 
ATOM      6  C   UNL     1       1.594   6.640  20.896  0.00  0.00    +0.000 A 
ATOM      7  C   UNL     1       2.010   5.579  20.100  0.00  0.00    +0.000 A 
ATOM      8  C   UNL     1       1.788   4.163  20.566  0.00  0.00    +0.000 C 
ATOM      9  C   UNL     1       1.262   3.391  19.356  0.00  0.00    +0.000 C 
ATOM     10  C   UNL     1       2.439   3.227  18.402  0.00  0.00    +0.000 C 
ENDROOT
BRANCH   4  11
ATOM     11  N   UNL     1       1.830   9.587  18.682  0.00  0.00    +0.000 N 
ATOM     12  C   UNL     1       0.726  10.408  18.788  0.00  0.00    +0.000 C 
ATOM     13  O   UNL     1      -0.364  10.069  19.250  0.00  0.00    +0.000 OA
ATOM     14  H   UNL     1       2.666  10.017  18.310  0.00  0.00    +0.000 HD
BRANCH  12  15
ATOM     15  C   UNL     1       0.952  11.831  18.291  0.00  0.00    +0.000 C 
ATOM     16  C   UNL     1       0.658  12.873  19.101  0.00  0.00    +0.000 C 
BRANCH  16  17
ATOM     17  C   UNL     1       0.772  14.346  18.899  0.00  0.00    +0.000 A 
ATOM     18  C   UNL     1       1.947  15.035  18.575  0.00  0.00    +0.000 A 
ATOM     19  C   UNL     1       1.941  16.433  18.385  0.00  0.00    +0.000 A 
ATOM     20  C   UNL     1       0.764  17.167  18.513  0.00  0.00    +0.000 A 
ATOM     21  C   UNL     1      -0.412  16.502  18.832  0.00  0.00    +0.000 A 
ATOM     22  C   UNL     1      -0.408  15.114  19.023  0.00  0.00    +0.000 A 
ENDBRANCH  16  17
ENDBRANCH  12  15
ENDBRANCH   4  11
BRANCH   1  23
ATOM     23  N   UNL     1       4.575   4.319  18.671  0.00  0.00    +0.000 NA
ATOM     24  H   UNL     1       4.793   3.357  18.930  0.00  0.00    +0.000 HD
BRANCH  23  25
ATOM     25  S   UNL     1       5.945   5.115  18.182  0.00  0.00    +0.000 S 
ATOM     26  O   UNL     1       7.062   4.598  18.938  0.00  0.00    +0.000 OA
ATOM     27  O   UNL     1       5.597   6.521  18.206  0.00  0.00    +0.000 OA
BRANCH  25  31
ATOM     28  C   UNL     1       6.329   4.027  13.774  0.00  0.00    +0.000 A 
ATOM     29  C   UNL     1       5.210   3.627  14.501  0.00  0.00    +0.000 A 
ATOM     30  C   UNL     1       5.091   3.936  15.855  0.00  0.00    +0.000 A 
ATOM     31  C   UNL     1       6.106   4.665  16.482  0.00  0.00    +0.000 A 
ATOM     32  C   UNL     1       7.232   5.077  15.770  0.00  0.00    +0.000 A 
ATOM     33  C   UNL     1       7.342   4.761  14.415  0.00  0.00    +0.000 A 
BRANCH  28  35
ATOM     34  C   UNL     1       5.340   2.818  11.801  0.00  0.00    +0.000 C 
ATOM     35  C   UNL     1       6.453   3.731  12.296  0.00  0.00    +0.000 C 
ENDBRANCH  28  35
ENDBRANCH  25  31
ENDBRANCH  23  25
ENDBRANCH   1  23
BRANCH  10  36
ATOM     36  O   UNL     1       2.085   2.512  17.221  0.00  0.00    +0.000 OA
ATOM     37  H   UNL     1       1.312   1.955  17.401  0.00  0.00    +0.000 HD
ENDBRANCH  10  36
TORSDOF 8
ENDMDL
MODEL 5
REMARK VINA RESULT:      -8.3      2.431      3.476
REMARK  Name = 
REMARK  9 active torsions:
REMARK  status: ('A' for Active; 'I' for Inactive)
REMARK    1  A    between atoms: C_1  and  C_2
REMARK    2  A    between atoms: C_2  and  C_3
REMARK    3  A    between atoms: C_6  and  S_7
REMARK    4  A    between atoms: S_7  and  N_10
REMARK    5  A    between atoms: N_10  and  C_11
REMARK    6  A    between atoms: C_14  and  N_15
REMARK    7  A    between atoms: C_16  and  C_18
REMARK    8  A    between atoms: C_19  and  C_20
REMARK    9  A    between atoms: C_31  and  O_32
REMARK                            x       y       z     vdW  Elec       q    Type
REMARK                         _______ _______ _______ _____ _____    ______ ____
ROOT
ATOM      1  C   UNL     1       3.255   4.773  17.996  0.00  0.00    +0.000 C 
ATOM      2  C   UNL     1       2.569   5.896  18.807  0.00  0.00    +0.000 A 
ATOM      3  C   UNL     1       2.485   7.273  18.416  0.00  0.00    +0.000 A 
ATOM      4  C   UNL     1       1.949   8.250  19.293  0.00  0.00    +0.000 A 
ATOM      5  C   UNL     1       1.557   7.836  20.575  0.00  0.00    +0.000 A 
ATOM      6  C   UNL     1       1.598   6.496  20.956  0.00  0.00    +0.000 A 
ATOM      7  C   UNL     1       2.034   5.527  20.058  0.00  0.00    +0.000 A 
ATOM      8  C   UNL     1       1.845   4.067  20.384  0.00  0.00    +0.000 C 
ATOM      9  C   UNL     1       1.331   3.406  19.106  0.00  0.00    +0.000 C 
ATOM     10  C   UNL     1       2.506   3.364  18.137  0.00  0.00    +0.000 C 
ENDROOT
BRANCH   4  11
ATOM     11  N   UNL     1       1.758   9.649  19.042  0.00  0.00    +0.000 N 
ATOM     12  C   UNL     1       0.654  10.310  18.543  0.00  0.00    +0.000 C 
ATOM     13  O   UNL     1      -0.400   9.769  18.206  0.00  0.00    +0.000 OA
ATOM     14  H   UNL     1       2.541  10.234  19.305  0.00  0.00    +0.000 HD
BRANCH  12  15
ATOM     15  C   UNL     1       0.817  11.823  18.447  0.00  0.00    +0.000 C 
ATOM     16  C   UNL     1       1.932  12.405  18.940  0.00  0.00    +0.000 C 
BRANCH  16  17
ATOM     17  C   UNL     1       2.366  13.830  18.988  0.00  0.00    +0.000 A 
ATOM     18  C   UNL     1       2.152  14.713  20.053  0.00  0.00    +0.000 A 
ATOM     19  C   UNL     1       2.624  16.042  20.004  0.00  0.00    +0.000 A 
ATOM     20  C   UNL     1       3.318  16.513  18.892  0.00  0.00    +0.000 A 
ATOM     21  C   UNL     1       3.543  15.653  17.825  0.00  0.00    +0.000 A 
ATOM     22  C   UNL     1       3.073  14.334  17.872  0.00  0.00    +0.000 A 
ENDBRANCH  16  17
ENDBRANCH  12  15
ENDBRANCH   4  11
BRANCH   1  23
ATOM     23  N   UNL     1       4.618   4.471  18.505  0.00  0.00    +0.000 NA
ATOM     24  H   UNL     1       4.837   3.501  18.731  0.00  0.00    +0.000 HD
BRANCH  23  25
ATOM     25  S   UNL     1       5.982   5.276  18.015  0.00  0.00    +0.000 S 
ATOM     26  O   UNL     1       7.108   4.747  18.749  0.00  0.00    +0.000 OA
ATOM     27  O   UNL     1       5.634   6.682  18.067  0.00  0.00    +0.000 OA
BRANCH  25  31
ATOM     28  C   UNL     1       6.387   4.122  13.626  0.00  0.00    +0.000 A 
ATOM     29  C   UNL     1       7.368   4.895  14.242  0.00  0.00    +0.000 A 
ATOM     30  C   UNL     1       7.245   5.271  15.579  0.00  0.00    +0.000 A 
ATOM     31  C   UNL     1       6.125   4.856  16.306  0.00  0.00    +0.000 A 
ATOM     32  C   UNL     1       5.134   4.079  15.707  0.00  0.00    +0.000 A 
ATOM     33  C   UNL     1       5.266   3.710  14.368  0.00  0.00    +0.000 A 
BRANCH  28  35
ATOM     34  C   UNL     1       5.557   2.554  11.840  0.00  0.00    +0.000 C 
ATOM     35  C   UNL     1       6.527   3.675  12.188  0.00  0.00    +0.000 C 
ENDBRANCH  28  35
ENDBRANCH  25  31
ENDBRANCH  23  25
ENDBRANCH   1  23
BRANCH  10  36
ATOM     36  O   UNL     1       2.162   2.760  16.892  0.00  0.00    +0.000 OA
ATOM     37  H   UNL     1       1.222   2.521  16.898  0.00  0.00    +0.000 HD
ENDBRANCH  10  36
TORSDOF 8
ENDMDL
MODEL 6
REMARK VINA RESULT:      -8.2      2.390      3.396
REMARK  Name = 
REMARK  9 active torsions:
REMARK  status: ('A' for Active; 'I' for Inactive)
REMARK    1  A    between atoms: C_1  and  C_2
REMARK    2  A    between atoms: C_2  and  C_3
REMARK    3  A    between atoms: C_6  and  S_7
REMARK    4  A    between atoms: S_7  and  N_10
REMARK    5  A    between atoms: N_10  and  C_11
REMARK    6  A    between atoms: C_14  and  N_15
REMARK    7  A    between atoms: C_16  and  C_18
REMARK    8  A    between atoms: C_19  and  C_20
REMARK    9  A    between atoms: C_31  and  O_32
REMARK                            x       y       z     vdW  Elec       q    Type
REMARK                         _______ _______ _______ _____ _____    ______ ____
ROOT
ATOM      1  C   UNL     1       3.299   5.126  18.078  0.00  0.00    +0.000 C 
ATOM      2  C   UNL     1       2.567   6.311  18.747  0.00  0.00    +0.000 A 
ATOM      3  C   UNL     1       2.481   7.641  18.221  0.00  0.00    +0.000 A 
ATOM      4  C   UNL     1       1.897   8.690  18.976  0.00  0.00    +0.000 A 
ATOM      5  C   UNL     1       1.459   8.397  20.276  0.00  0.00    +0.000 A 
ATOM      6  C   UNL     1       1.502   7.101  20.788  0.00  0.00    +0.000 A 
ATOM      7  C   UNL     1       1.986   6.057  20.007  0.00  0.00    +0.000 A 
ATOM      8  C   UNL     1       1.803   4.633  20.467  0.00  0.00    +0.000 C 
ATOM      9  C   UNL     1       1.349   3.842  19.241  0.00  0.00    +0.000 C 
ATOM     10  C   UNL     1       2.563   3.725  18.327  0.00  0.00    +0.000 C 
ENDROOT
BRANCH   4  11
ATOM     11  N   UNL     1       1.699  10.055  18.581  0.00  0.00    +0.000 N 
ATOM     12  C   UNL     1       1.184  11.113  19.302  0.00  0.00    +0.000 C 
ATOM     13  O   UNL     1       0.782  11.045  20.464  0.00  0.00    +0.000 OA
ATOM     14  H   UNL     1       2.018  10.272  17.646  0.00  0.00    +0.000 HD
BRANCH  12  15
ATOM     15  C   UNL     1       1.159  12.437  18.546  0.00  0.00    +0.000 C 
ATOM     16  C   UNL     1       1.086  13.596  19.237  0.00  0.00    +0.000 C 
BRANCH  16  17
ATOM     17  C   UNL     1       1.049  15.016  18.784  0.00  0.00    +0.000 A 
ATOM     18  C   UNL     1       2.164  15.800  18.464  0.00  0.00    +0.000 A 
ATOM     19  C   UNL     1       2.015  17.132  18.024  0.00  0.00    +0.000 A 
ATOM     20  C   UNL     1       0.752  17.705  17.894  0.00  0.00    +0.000 A 
ATOM     21  C   UNL     1      -0.367  16.944  18.205  0.00  0.00    +0.000 A 
ATOM     22  C   UNL     1      -0.221  15.622  18.644  0.00  0.00    +0.000 A 
ENDBRANCH  16  17
ENDBRANCH  12  15
ENDBRANCH   4  11
BRANCH   1  23
ATOM     23  N   UNL     1       4.644   4.898  18.667  0.00  0.00    +0.000 NA
ATOM     24  H   UNL     1       4.831   3.988  19.088  0.00  0.00    +0.000 HD
BRANCH  23  25
ATOM     25  S   UNL     1       6.039   5.553  18.055  0.00  0.00    +0.000 S 
ATOM     26  O   UNL     1       7.155   5.025  18.807  0.00  0.00    +0.000 OA
ATOM     27  O   UNL     1       5.786   6.977  17.970  0.00  0.00    +0.000 OA
BRANCH  25  31
ATOM     28  C   UNL     1       6.235   3.950  13.795  0.00  0.00    +0.000 A 
ATOM     29  C   UNL     1       6.949   5.092  14.149  0.00  0.00    +0.000 A 
ATOM     30  C   UNL     1       6.881   5.604  15.443  0.00  0.00    +0.000 A 
ATOM     31  C   UNL     1       6.092   4.951  16.396  0.00  0.00    +0.000 A 
ATOM     32  C   UNL     1       5.373   3.804  16.061  0.00  0.00    +0.000 A 
ATOM     33  C   UNL     1       5.447   3.301  14.761  0.00  0.00    +0.000 A 
BRANCH  28  35
ATOM     34  C   UNL     1       4.966   3.232  11.743  0.00  0.00    +0.000 C 
ATOM     35  C   UNL     1       6.331   3.363  12.404  0.00  0.00    +0.000 C 
ENDBRANCH  28  35
ENDBRANCH  25  31
ENDBRANCH  23  25
ENDBRANCH   1  23
BRANCH  10  36
ATOM     36  O   UNL     1       2.277   2.996  17.136  0.00  0.00    +0.000 OA
ATOM     37  H   UNL     1       2.774   3.379  16.396  0.00  0.00    +0.000 HD
ENDBRANCH  10  36
TORSDOF 8
ENDMDL
MODEL 7
REMARK VINA RESULT:      -8.2      4.920      9.814
REMARK  Name = 
REMARK  9 active torsions:
REMARK  status: ('A' for Active; 'I' for Inactive)
REMARK    1  A    between atoms: C_1  and  C_2
REMARK    2  A    between atoms: C_2  and  C_3
REMARK    3  A    between atoms: C_6  and  S_7
REMARK    4  A    between atoms: S_7  and  N_10
REMARK    5  A    between atoms: N_10  and  C_11
REMARK    6  A    between atoms: C_14  and  N_15
REMARK    7  A    between atoms: C_16  and  C_18
REMARK    8  A    between atoms: C_19  and  C_20
REMARK    9  A    between atoms: C_31  and  O_32
REMARK                            x       y       z     vdW  Elec       q    Type
REMARK                         _______ _______ _______ _____ _____    ______ ____
ROOT
ATOM      1  C   UNL     1      -4.333  12.032  19.845  0.00  0.00    +0.000 C 
ATOM      2  C   UNL     1      -3.504  11.444  18.680  0.00  0.00    +0.000 A 
ATOM      3  C   UNL     1      -2.246  10.770  18.811  0.00  0.00    +0.000 A 
ATOM      4  C   UNL     1      -1.501  10.384  17.668  0.00  0.00    +0.000 A 
ATOM      5  C   UNL     1      -2.008  10.734  16.407  0.00  0.00    +0.000 A 
ATOM      6  C   UNL     1      -3.246  11.357  16.262  0.00  0.00    +0.000 A 
ATOM      7  C   UNL     1      -4.018  11.646  17.382  0.00  0.00    +0.000 A 
ATOM      8  C   UNL     1      -5.449  12.087  17.211  0.00  0.00    +0.000 C 
ATOM      9  C   UNL     1      -6.264  11.313  18.245  0.00  0.00    +0.000 C 
ATOM     10  C   UNL     1      -5.912  11.904  19.605  0.00  0.00    +0.000 C 
ENDROOT
BRANCH   4  11
ATOM     11  N   UNL     1      -0.256   9.672  17.626  0.00  0.00    +0.000 N 
ATOM     12  C   UNL     1       0.998  10.069  18.043  0.00  0.00    +0.000 C 
ATOM     13  O   UNL     1       1.263  11.165  18.535  0.00  0.00    +0.000 OA
ATOM     14  H   UNL     1      -0.325   8.727  17.270  0.00  0.00    +0.000 HD
BRANCH  12  15
ATOM     15  C   UNL     1       2.083   9.013  17.865  0.00  0.00    +0.000 C 
ATOM     16  C   UNL     1       1.761   7.704  17.968  0.00  0.00    +0.000 C 
BRANCH  16  17
ATOM     17  C   UNL     1       2.588   6.469  17.843  0.00  0.00    +0.000 A 
ATOM     18  C   UNL     1       3.965   6.432  17.597  0.00  0.00    +0.000 A 
ATOM     19  C   UNL     1       4.657   5.205  17.518  0.00  0.00    +0.000 A 
ATOM     20  C   UNL     1       3.988   3.995  17.684  0.00  0.00    +0.000 A 
ATOM     21  C   UNL     1       2.622   4.010  17.930  0.00  0.00    +0.000 A 
ATOM     22  C   UNL     1       1.933   5.227  18.007  0.00  0.00    +0.000 A 
ENDBRANCH  16  17
ENDBRANCH  12  15
ENDBRANCH   4  11
BRANCH   1  23
ATOM     23  N   UNL     1      -4.141  13.499  19.982  0.00  0.00    +0.000 NA
ATOM     24  H   UNL     1      -4.923  14.106  19.739  0.00  0.00    +0.000 HD
BRANCH  23  25
ATOM     25  S   UNL     1      -3.206  14.198  21.160  0.00  0.00    +0.000 S 
ATOM     26  O   UNL     1      -4.075  14.632  22.229  0.00  0.00    +0.000 OA
ATOM     27  O   UNL     1      -2.342  15.126  20.459  0.00  0.00    +0.000 OA
BRANCH  25  31
ATOM     28  C   UNL     1      -0.519  10.836  22.656  0.00  0.00    +0.000 A 
ATOM     29  C   UNL     1      -0.113  11.640  21.593  0.00  0.00    +0.000 A 
ATOM     30  C   UNL     1      -0.935  12.658  21.113  0.00  0.00    +0.000 A 
ATOM     31  C   UNL     1      -2.177  12.876  21.718  0.00  0.00    +0.000 A 
ATOM     32  C   UNL     1      -2.599  12.084  22.785  0.00  0.00    +0.000 A 
ATOM     33  C   UNL     1      -1.769  11.066  23.256  0.00  0.00    +0.000 A 
BRANCH  28  35
ATOM     34  C   UNL     1       1.060   8.955  22.107  0.00  0.00    +0.000 C 
ATOM     35  C   UNL     1       0.380   9.753  23.210  0.00  0.00    +0.000 C 
ENDBRANCH  28  35
ENDBRANCH  25  31
ENDBRANCH  23  25
ENDBRANCH   1  23
BRANCH  10  36
ATOM     36  O   UNL     1      -6.615  11.270  20.671  0.00  0.00    +0.000 OA
ATOM     37  H   UNL     1      -6.754  10.335  20.454  0.00  0.00    +0.000 HD
ENDBRANCH  10  36
TORSDOF 8
ENDMDL
MODEL 8
REMARK VINA RESULT:      -8.1      2.011      2.959
REMARK  Name = 
REMARK  9 active torsions:
REMARK  status: ('A' for Active; 'I' for Inactive)
REMARK    1  A    between atoms: C_1  and  C_2
REMARK    2  A    between atoms: C_2  and  C_3
REMARK    3  A    between atoms: C_6  and  S_7
REMARK    4  A    between atoms: S_7  and  N_10
REMARK    5  A    between atoms: N_10  and  C_11
REMARK    6  A    between atoms: C_14  and  N_15
REMARK    7  A    between atoms: C_16  and  C_18
REMARK    8  A    between atoms: C_19  and  C_20
REMARK    9  A    between atoms: C_31  and  O_32
REMARK                            x       y       z     vdW  Elec       q    Type
REMARK                         _______ _______ _______ _____ _____    ______ ____
ROOT
ATOM      1  C   UNL     1       3.262   5.869  18.663  0.00  0.00    +0.000 C 
ATOM      2  C   UNL     1       2.342   6.957  19.261  0.00  0.00    +0.000 A 
ATOM      3  C   UNL     1       2.131   8.264  18.711  0.00  0.00    +0.000 A 
ATOM      4  C   UNL     1       1.369   9.236  19.407  0.00  0.00    +0.000 A 
ATOM      5  C   UNL     1       0.878   8.898  20.677  0.00  0.00    +0.000 A 
ATOM      6  C   UNL     1       1.044   7.620  21.210  0.00  0.00    +0.000 A 
ATOM      7  C   UNL     1       1.708   6.640  20.481  0.00  0.00    +0.000 A 
ATOM      8  C   UNL     1       1.670   5.207  20.947  0.00  0.00    +0.000 C 
ATOM      9  C   UNL     1       1.407   4.359  19.703  0.00  0.00    +0.000 C 
ATOM     10  C   UNL     1       2.688   4.388  18.879  0.00  0.00    +0.000 C 
ENDROOT
BRANCH   4  11
ATOM     11  N   UNL     1       1.033  10.564  18.980  0.00  0.00    +0.000 N 
ATOM     12  C   UNL     1       1.106  11.755  19.672  0.00  0.00    +0.000 C 
ATOM     13  O   UNL     1       1.485  11.871  20.838  0.00  0.00    +0.000 OA
ATOM     14  H   UNL     1       0.732  10.630  18.016  0.00  0.00    +0.000 HD
BRANCH  12  15
ATOM     15  C   UNL     1       0.688  12.978  18.864  0.00  0.00    +0.000 C 
ATOM     16  C   UNL     1       1.085  14.207  19.262  0.00  0.00    +0.000 C 
BRANCH  16  17
ATOM     17  C   UNL     1       0.841  15.560  18.687  0.00  0.00    +0.000 A 
ATOM     18  C   UNL     1      -0.409  16.180  18.562  0.00  0.00    +0.000 A 
ATOM     19  C   UNL     1      -0.527  17.477  18.019  0.00  0.00    +0.000 A 
ATOM     20  C   UNL     1       0.599  18.179  17.593  0.00  0.00    +0.000 A 
ATOM     21  C   UNL     1       1.847  17.582  17.710  0.00  0.00    +0.000 A 
ATOM     22  C   UNL     1       1.966  16.294  18.246  0.00  0.00    +0.000 A 
ENDBRANCH  16  17
ENDBRANCH  12  15
ENDBRANCH   4  11
BRANCH   1  23
ATOM     23  N   UNL     1       4.579   5.813  19.349  0.00  0.00    +0.000 NA
ATOM     24  H   UNL     1       4.631   6.154  20.308  0.00  0.00    +0.000 HD
BRANCH  23  25
ATOM     25  S   UNL     1       5.697   4.615  19.097  0.00  0.00    +0.000 S 
ATOM     26  O   UNL     1       5.089   3.349  19.434  0.00  0.00    +0.000 OA
ATOM     27  O   UNL     1       6.904   5.077  19.752  0.00  0.00    +0.000 OA
BRANCH  25  31
ATOM     28  C   UNL     1       6.565   4.765  14.626  0.00  0.00    +0.000 A 
ATOM     29  C   UNL     1       7.011   5.786  15.463  0.00  0.00    +0.000 A 
ATOM     30  C   UNL     1       6.734   5.761  16.828  0.00  0.00    +0.000 A 
ATOM     31  C   UNL     1       6.008   4.691  17.360  0.00  0.00    +0.000 A 
ATOM     32  C   UNL     1       5.556   3.658  16.539  0.00  0.00    +0.000 A 
ATOM     33  C   UNL     1       5.837   3.694  15.172  0.00  0.00    +0.000 A 
BRANCH  28  35
ATOM     34  C   UNL     1       8.191   5.495  12.849  0.00  0.00    +0.000 C 
ATOM     35  C   UNL     1       6.892   4.761  13.149  0.00  0.00    +0.000 C 
ENDBRANCH  28  35
ENDBRANCH  25  31
ENDBRANCH  23  25
ENDBRANCH   1  23
BRANCH  10  36
ATOM     36  O   UNL     1       2.581   3.623  17.681  0.00  0.00    +0.000 OA
ATOM     37  H   UNL     1       3.089   2.803  17.776  0.00  0.00    +0.000 HD
ENDBRANCH  10  36
TORSDOF 8
ENDMDL
MODEL 9
REMARK VINA RESULT:      -8.1      3.955     10.051
REMARK  Name = 
REMARK  9 active torsions:
REMARK  status: ('A' for Active; 'I' for Inactive)
REMARK    1  A    between atoms: C_1  and  C_2
REMARK    2  A    between atoms: C_2  and  C_3
REMARK    3  A    between atoms: C_6  and  S_7
REMARK    4  A    between atoms: S_7  and  N_10
REMARK    5  A    between atoms: N_10  and  C_11
REMARK    6  A    between atoms: C_14  and  N_15
REMARK    7  A    between atoms: C_16  and  C_18
REMARK    8  A    between atoms: C_19  and  C_20
REMARK    9  A    between atoms: C_31  and  O_32
REMARK                            x       y       z     vdW  Elec       q    Type
REMARK                         _______ _______ _______ _____ _____    ______ ____
ROOT
ATOM      1  C   UNL     1       0.830  10.087  19.631  0.00  0.00    +0.000 C 
ATOM      2  C   UNL     1       1.428   8.664  19.713  0.00  0.00    +0.000 A 
ATOM      3  C   UNL     1       2.316   8.077  18.753  0.00  0.00    +0.000 A 
ATOM      4  C   UNL     1       2.704   6.717  18.852  0.00  0.00    +0.000 A 
ATOM      5  C   UNL     1       2.145   5.949  19.885  0.00  0.00    +0.000 A 
ATOM      6  C   UNL     1       1.308   6.513  20.846  0.00  0.00    +0.000 A 
ATOM      7  C   UNL     1       1.009   7.871  20.801  0.00  0.00    +0.000 A 
ATOM      8  C   UNL     1       0.314   8.521  21.970  0.00  0.00    +0.000 C 
ATOM      9  C   UNL     1       1.041   9.842  22.219  0.00  0.00    +0.000 C 
ATOM     10  C   UNL     1       0.661  10.769  21.071  0.00  0.00    +0.000 C 
ENDROOT
BRANCH   4  11
ATOM     11  N   UNL     1       3.610   5.995  18.005  0.00  0.00    +0.000 N 
ATOM     12  C   UNL     1       4.819   5.405  18.312  0.00  0.00    +0.000 C 
ATOM     13  O   UNL     1       5.345   5.413  19.425  0.00  0.00    +0.000 OA
ATOM     14  H   UNL     1       3.290   5.877  17.052  0.00  0.00    +0.000 HD
BRANCH  12  15
ATOM     15  C   UNL     1       5.485   4.692  17.141  0.00  0.00    +0.000 C 
ATOM     16  C   UNL     1       5.298   5.156  15.886  0.00  0.00    +0.000 C 
BRANCH  16  17
ATOM     17  C   UNL     1       5.812   4.680  14.569  0.00  0.00    +0.000 A 
ATOM     18  C   UNL     1       5.137   3.823  13.692  0.00  0.00    +0.000 A 
ATOM     19  C   UNL     1       5.706   3.451  12.456  0.00  0.00    +0.000 A 
ATOM     20  C   UNL     1       6.958   3.927  12.073  0.00  0.00    +0.000 A 
ATOM     21  C   UNL     1       7.644   4.780  12.928  0.00  0.00    +0.000 A 
ATOM     22  C   UNL     1       7.080   5.149  14.156  0.00  0.00    +0.000 A 
ENDBRANCH  16  17
ENDBRANCH  12  15
ENDBRANCH   4  11
BRANCH   1  23
ATOM     23  N   UNL     1      -0.561  10.079  19.108  0.00  0.00    +0.000 NA
ATOM     24  H   UNL     1      -1.284   9.651  19.686  0.00  0.00    +0.000 HD
BRANCH  23  25
ATOM     25  S   UNL     1      -1.201  11.294  18.179  0.00  0.00    +0.000 S 
ATOM     26  O   UNL     1      -1.627  10.726  16.921  0.00  0.00    +0.000 OA
ATOM     27  O   UNL     1      -0.232  12.369  18.238  0.00  0.00    +0.000 OA
BRANCH  25  31
ATOM     28  C   UNL     1      -4.827  12.608  20.604  0.00  0.00    +0.000 A 
ATOM     29  C   UNL     1      -4.995  12.036  19.345  0.00  0.00    +0.000 A 
ATOM     30  C   UNL     1      -3.892  11.649  18.586  0.00  0.00    +0.000 A 
ATOM     31  C   UNL     1      -2.606  11.831  19.104  0.00  0.00    +0.000 A 
ATOM     32  C   UNL     1      -2.419  12.399  20.364  0.00  0.00    +0.000 A 
ATOM     33  C   UNL     1      -3.530  12.785  21.115  0.00  0.00    +0.000 A 
BRANCH  28  35
ATOM     34  C   UNL     1      -7.187  13.486  20.612  0.00  0.00    +0.000 C 
ATOM     35  C   UNL     1      -6.017  12.998  21.455  0.00  0.00    +0.000 C 
ENDBRANCH  28  35
ENDBRANCH  25  31
ENDBRANCH  23  25
ENDBRANCH   1  23
BRANCH  10  36
ATOM     36  O   UNL     1       1.273  12.052  21.184  0.00  0.00    +0.000 OA
ATOM     37  H   UNL     1       0.912  12.515  21.956  0.00  0.00    +0.000 HD
ENDBRANCH  10  36
TORSDOF 8
ENDMDL
