MODEL 1
REMARK VINA RESULT:      -8.4      0.000      0.000
REMARK  Name = 
REMARK  12 active torsions:
REMARK  status: ('A' for Active; 'I' for Inactive)
REMARK    1  A    between atoms: C_1  and  O_2
REMARK    2  A    between atoms: O_2  and  C_3
REMARK    3  A    between atoms: C_6  and  C_7
REMARK    4  A    between atoms: C_9  and  C_10
REMARK    5  A    between atoms: C_10  and  C_11
REMARK    6  A    between atoms: C_11  and  O_12
REMARK    7  A    between atoms: O_12  and  C_13
REMARK    8  A    between atoms: C_16  and  C_17
REMARK    9  A    between atoms: C_17  and  C_18
REMARK   10  A    between atoms: C_27  and  C_28
REMARK   11  A    between atoms: C_31  and  O_32
REMARK   12  A    between atoms: O_32  and  C_33
REMARK                            x       y       z     vdW  Elec       q    Type
REMARK                         _______ _______ _______ _____ _____    ______ ____
ROOT
ATOM      1  C   UNL     1       2.347   4.677  20.999  0.00  0.00    +0.000 C 
ENDROOT
BRANCH   1   4
ATOM      2  C   UNL     1       4.045   4.336  17.895  0.00  0.00    +0.000 A 
ATOM      3  N   UNL     1       3.948   4.850  19.105  0.00  0.00    +0.000 NA
ATOM      4  C   UNL     1       2.796   4.300  19.628  0.00  0.00    +0.000 A 
ATOM      5  C   UNL     1       2.235   3.458  18.691  0.00  0.00    +0.000 A 
ATOM      6  C   UNL     1       1.051   2.587  18.624  0.00  0.00    +0.000 C 
ATOM      7  O   UNL     1       3.024   3.485  17.574  0.00  0.00    +0.000 OA
BRANCH   2  11
ATOM      8  C   UNL     1       7.026   5.115  14.914  0.00  0.00    +0.000 A 
ATOM      9  C   UNL     1       6.106   4.068  14.742  0.00  0.00    +0.000 A 
ATOM     10  C   UNL     1       5.126   3.805  15.703  0.00  0.00    +0.000 A 
ATOM     11  C   UNL     1       5.068   4.557  16.878  0.00  0.00    +0.000 A 
ATOM     12  C   UNL     1       6.034   5.552  17.076  0.00  0.00    +0.000 A 
ATOM     13  C   UNL     1       7.019   5.837  16.117  0.00  0.00    +0.000 A 
BRANCH   8  15
ATOM     14  C   UNL     1       7.617   4.960  12.629  0.00  0.00    +0.000 C 
ATOM     15  O   UNL     1       7.940   5.419  13.942  0.00  0.00    +0.000 OA
ENDBRANCH   8  15
BRANCH  13  16
ATOM     16  O   UNL     1       7.845   6.849  16.523  0.00  0.00    +0.000 OA
ATOM     17  C   UNL     1       7.387   7.776  17.492  0.00  0.00    +0.000 C 
ENDBRANCH  13  16
ENDBRANCH   2  11
ENDBRANCH   1   4
BRANCH   1  18
ATOM     18  C   UNL     1       1.433   5.901  20.949  0.00  0.00    +0.000 C 
BRANCH  18  19
ATOM     19  O   UNL     1       1.870   6.848  19.963  0.00  0.00    +0.000 OA
BRANCH  19  20
ATOM     20  C   UNL     1       1.490   8.147  20.216  0.00  0.00    +0.000 A 
ATOM     21  C   UNL     1       1.605   9.042  19.148  0.00  0.00    +0.000 A 
ATOM     22  C   UNL     1       1.250  10.391  19.306  0.00  0.00    +0.000 A 
ATOM     23  C   UNL     1       0.764  10.860  20.534  0.00  0.00    +0.000 A 
ATOM     24  C   UNL     1       0.636   9.954  21.590  0.00  0.00    +0.000 A 
ATOM     25  C   UNL     1       0.986   8.611  21.428  0.00  0.00    +0.000 A 
BRANCH  23  26
ATOM     26  C   UNL     1       0.379  12.308  20.736  0.00  0.00    +0.000 C 
BRANCH  26  27
ATOM     27  C   UNL     1      -0.810  12.821  19.915  0.00  0.00    +0.000 C 
ATOM     28  S   UNL     1      -2.041  11.552  19.456  0.00  0.00    +0.000 S 
ATOM     29  C   UNL     1      -1.819  11.827  17.748  0.00  0.00    +0.000 C 
ATOM     30  O   UNL     1      -2.332  11.144  16.877  0.00  0.00    +0.000 OA
ATOM     31  N   UNL     1      -1.008  12.889  17.539  0.00  0.00    +0.000 N 
ATOM     32  C   UNL     1      -0.370  13.441  18.608  0.00  0.00    +0.000 C 
ATOM     33  O   UNL     1       0.455  14.338  18.505  0.00  0.00    +0.000 OA
ATOM     34  H   UNL     1      -0.776  13.167  16.601  0.00  0.00    +0.000 HD
ENDBRANCH  26  27
ENDBRANCH  23  26
ENDBRANCH  19  20
ENDBRANCH  18  19
ENDBRANCH   1  18
TORSDOF 9
ENDMDL
MODEL 2
REMARK VINA RESULT:      -8.3      3.133      3.622
REMARK  Name = 
REMARK  12 active torsions:
REMARK  status: ('A' for Active; 'I' for Inactive)
REMARK    1  A    between atoms: C_1  and  O_2
REMARK    2  A    between atoms: O_2  and  C_3
REMARK    3  A    between atoms: C_6  and  C_7
REMARK    4  A    between atoms: C_9  and  C_10
REMARK    5  A    between atoms: C_10  and  C_11
REMARK    6  A    between atoms: C_11  and  O_12
REMARK    7  A    between atoms: O_12  and  C_13
REMARK    8  A    between atoms: C_16  and  C_17
REMARK    9  A    between atoms: C_17  and  C_18
REMARK   10  A    between atoms: C_27  and  C_28
REMARK   11  A    between atoms: C_31  and  O_32
REMARK   12  A    between atoms: O_32  and  C_33
REMARK                            x       y       z     vdW  Elec       q    Type
REMARK                         _______ _______ _______ _____ _____    ______ ____
ROOT
ATOM      1  C   UNL     1       1.194   6.594  20.934  0.00  0.00    +0.000 C 
ENDROOT
BRANCH   1   4
ATOM      2  C   UNL     1       3.634   5.164  18.781  0.00  0.00    +0.000 A 
ATOM      3  N   UNL     1       2.972   6.208  19.240  0.00  0.00    +0.000 NA
ATOM      4  C   UNL     1       2.130   5.692  20.203  0.00  0.00    +0.000 A 
ATOM      5  C   UNL     1       2.324   4.329  20.287  0.00  0.00    +0.000 A 
ATOM      6  C   UNL     1       1.772   3.228  21.091  0.00  0.00    +0.000 C 
ATOM      7  O   UNL     1       3.279   3.982  19.371  0.00  0.00    +0.000 OA
BRANCH   2  11
ATOM      8  C   UNL     1       6.631   5.120  15.716  0.00  0.00    +0.000 A 
ATOM      9  C   UNL     1       5.737   4.045  15.851  0.00  0.00    +0.000 A 
ATOM     10  C   UNL     1       4.753   4.048  16.842  0.00  0.00    +0.000 A 
ATOM     11  C   UNL     1       4.664   5.107  17.748  0.00  0.00    +0.000 A 
ATOM     12  C   UNL     1       5.604   6.141  17.653  0.00  0.00    +0.000 A 
ATOM     13  C   UNL     1       6.593   6.159  16.656  0.00  0.00    +0.000 A 
BRANCH   8  15
ATOM     14  C   UNL     1       7.119   4.582  13.464  0.00  0.00    +0.000 C 
ATOM     15  O   UNL     1       7.548   5.152  14.702  0.00  0.00    +0.000 OA
ENDBRANCH   8  15
BRANCH  13  16
ATOM     16  O   UNL     1       7.391   7.266  16.755  0.00  0.00    +0.000 OA
ATOM     17  C   UNL     1       7.931   7.627  18.015  0.00  0.00    +0.000 C 
ENDBRANCH  13  16
ENDBRANCH   2  11
ENDBRANCH   1   4
BRANCH   1  18
ATOM     18  C   UNL     1       1.688   8.039  20.881  0.00  0.00    +0.000 C 
BRANCH  18  19
ATOM     19  O   UNL     1       0.747   8.896  20.217  0.00  0.00    +0.000 OA
BRANCH  19  20
ATOM     20  C   UNL     1       0.011   9.695  21.062  0.00  0.00    +0.000 A 
ATOM     21  C   UNL     1      -0.589  10.818  20.484  0.00  0.00    +0.000 A 
ATOM     22  C   UNL     1      -1.354  11.700  21.262  0.00  0.00    +0.000 A 
ATOM     23  C   UNL     1      -1.539  11.463  22.632  0.00  0.00    +0.000 A 
ATOM     24  C   UNL     1      -0.950  10.330  23.197  0.00  0.00    +0.000 A 
ATOM     25  C   UNL     1      -0.192   9.451  22.418  0.00  0.00    +0.000 A 
BRANCH  23  26
ATOM     26  C   UNL     1      -2.353  12.398  23.497  0.00  0.00    +0.000 C 
BRANCH  26  27
ATOM     27  C   UNL     1      -3.097  13.526  22.774  0.00  0.00    +0.000 C 
ATOM     28  S   UNL     1      -2.977  15.167  23.565  0.00  0.00    +0.000 S 
ATOM     29  C   UNL     1      -4.704  15.294  23.771  0.00  0.00    +0.000 C 
ATOM     30  O   UNL     1      -5.251  16.193  24.389  0.00  0.00    +0.000 OA
ATOM     31  N   UNL     1      -5.333  14.266  23.157  0.00  0.00    +0.000 N 
ATOM     32  C   UNL     1      -4.579  13.245  22.662  0.00  0.00    +0.000 C 
ATOM     33  O   UNL     1      -5.061  12.231  22.178  0.00  0.00    +0.000 OA
ATOM     34  H   UNL     1      -6.335  14.194  23.197  0.00  0.00    +0.000 HD
ENDBRANCH  26  27
ENDBRANCH  23  26
ENDBRANCH  19  20
ENDBRANCH  18  19
ENDBRANCH   1  18
TORSDOF 9
ENDMDL
MODEL 3
REMARK VINA RESULT:      -8.2      2.268      2.561
REMARK  Name = 
REMARK  12 active torsions:
REMARK  status: ('A' for Active; 'I' for Inactive)
REMARK    1  A    between atoms: C_1  and  O_2
REMARK    2  A    between atoms: O_2  and  C_3
REMARK    3  A    between atoms: C_6  and  C_7
REMARK    4  A    between atoms: C_9  and  C_10
REMARK    5  A    between atoms: C_10  and  C_11
REMARK    6  A    between atoms: C_11  and  O_12
REMARK    7  A    between atoms: O_12  and  C_13
REMARK    8  A    between atoms: C_16  and  C_17
REMARK    9  A    between atoms: C_17  and  C_18
REMARK   10  A    between atoms: C_27  and  C_28
REMARK   11  A    between atoms: C_31  and  O_32
REMARK   12  A    between atoms: O_32  and  C_33
REMARK                            x       y       z     vdW  Elec       q    Type
REMARK                         _______ _______ _______ _____ _____    ______ ____
ROOT
ATOM      1  C   UNL     1       2.214   4.782  20.926  0.00  0.00    +0.000 C 
ENDROOT
BRANCH   1   4
ATOM      2  C   UNL     1       3.992   4.352  17.878  0.00  0.00    +0.000 A 
ATOM      3  N   UNL     1       3.822   4.955  19.038  0.00  0.00    +0.000 NA
ATOM      4  C   UNL     1       2.723   4.336  19.597  0.00  0.00    +0.000 A 
ATOM      5  C   UNL     1       2.266   3.363  18.732  0.00  0.00    +0.000 A 
ATOM      6  C   UNL     1       1.179   2.372  18.732  0.00  0.00    +0.000 C 
ATOM      7  O   UNL     1       3.068   3.375  17.624  0.00  0.00    +0.000 OA
BRANCH   2  11
ATOM      8  C   UNL     1       6.949   5.177  14.887  0.00  0.00    +0.000 A 
ATOM      9  C   UNL     1       5.970   4.196  14.665  0.00  0.00    +0.000 A 
ATOM     10  C   UNL     1       4.997   3.919  15.629  0.00  0.00    +0.000 A 
ATOM     11  C   UNL     1       5.004   4.588  16.855  0.00  0.00    +0.000 A 
ATOM     12  C   UNL     1       6.027   5.514  17.097  0.00  0.00    +0.000 A 
ATOM     13  C   UNL     1       7.006   5.812  16.136  0.00  0.00    +0.000 A 
BRANCH   8  15
ATOM     14  C   UNL     1       7.635   4.899  12.640  0.00  0.00    +0.000 C 
ATOM     15  O   UNL     1       7.858   5.499  13.916  0.00  0.00    +0.000 OA
ENDBRANCH   8  15
BRANCH  13  16
ATOM     16  O   UNL     1       7.895   6.748  16.591  0.00  0.00    +0.000 OA
ATOM     17  C   UNL     1       7.457   7.739  17.504  0.00  0.00    +0.000 C 
ENDBRANCH  13  16
ENDBRANCH   2  11
ENDBRANCH   1   4
BRANCH   1  18
ATOM     18  C   UNL     1       1.282   5.983  20.771  0.00  0.00    +0.000 C 
BRANCH  18  19
ATOM     19  O   UNL     1       2.015   7.193  20.531  0.00  0.00    +0.000 OA
BRANCH  19  20
ATOM     20  C   UNL     1       1.308   8.346  20.790  0.00  0.00    +0.000 A 
ATOM     21  C   UNL     1       1.090   9.195  19.700  0.00  0.00    +0.000 A 
ATOM     22  C   UNL     1       0.386  10.398  19.861  0.00  0.00    +0.000 A 
ATOM     23  C   UNL     1      -0.120  10.764  21.116  0.00  0.00    +0.000 A 
ATOM     24  C   UNL     1       0.088   9.902  22.196  0.00  0.00    +0.000 A 
ATOM     25  C   UNL     1       0.786   8.703  22.031  0.00  0.00    +0.000 A 
BRANCH  23  26
ATOM     26  C   UNL     1      -0.877  12.057  21.323  0.00  0.00    +0.000 C 
BRANCH  26  27
ATOM     27  C   UNL     1      -1.144  12.469  22.775  0.00  0.00    +0.000 C 
ATOM     28  S   UNL     1      -2.858  12.212  23.351  0.00  0.00    +0.000 S 
ATOM     29  C   UNL     1      -3.085  13.904  23.710  0.00  0.00    +0.000 C 
ATOM     30  O   UNL     1      -4.152  14.390  24.047  0.00  0.00    +0.000 OA
ATOM     31  N   UNL     1      -1.925  14.581  23.561  0.00  0.00    +0.000 N 
ATOM     32  C   UNL     1      -0.860  13.936  23.008  0.00  0.00    +0.000 C 
ATOM     33  O   UNL     1       0.197  14.491  22.745  0.00  0.00    +0.000 OA
ATOM     34  H   UNL     1      -1.898  15.573  23.723  0.00  0.00    +0.000 HD
ENDBRANCH  26  27
ENDBRANCH  23  26
ENDBRANCH  19  20
ENDBRANCH  18  19
ENDBRANCH   1  18
TORSDOF 9
ENDMDL
MODEL 4
REMARK VINA RESULT:      -8.1      1.174      1.923
REMARK  Name = 
REMARK  12 active torsions:
REMARK  status: ('A' for Active; 'I' for Inactive)
REMARK    1  A    between atoms: C_1  and  O_2
REMARK    2  A    between atoms: O_2  and  C_3
REMARK    3  A    between atoms: C_6  and  C_7
REMARK    4  A    between atoms: C_9  and  C_10
REMARK    5  A    between atoms: C_10  and  C_11
REMARK    6  A    between atoms: C_11  and  O_12
REMARK    7  A    between atoms: O_12  and  C_13
REMARK    8  A    between atoms: C_16  and  C_17
REMARK    9  A    between atoms: C_17  and  C_18
REMARK   10  A    between atoms: C_27  and  C_28
REMARK   11  A    between atoms: C_31  and  O_32
REMARK   12  A    between atoms: O_32  and  C_33
REMARK                            x       y       z     vdW  Elec       q    Type
REMARK                         _______ _______ _______ _____ _____    ______ ____
ROOT
ATOM      1  C   UNL     1       2.336   4.276  20.981  0.00  0.00    +0.000 C 
ENDROOT
BRANCH   1   4
ATOM      2  C   UNL     1       4.021   4.093  17.856  0.00  0.00    +0.000 A 
ATOM      3  N   UNL     1       3.922   4.556  19.087  0.00  0.00    +0.000 NA
ATOM      4  C   UNL     1       2.784   3.962  19.593  0.00  0.00    +0.000 A 
ATOM      5  C   UNL     1       2.233   3.147  18.627  0.00  0.00    +0.000 A 
ATOM      6  C   UNL     1       1.067   2.256  18.532  0.00  0.00    +0.000 C 
ATOM      7  O   UNL     1       3.015   3.234  17.507  0.00  0.00    +0.000 OA
BRANCH   2  11
ATOM      8  C   UNL     1       6.969   5.048  14.894  0.00  0.00    +0.000 A 
ATOM      9  C   UNL     1       6.051   4.008  14.673  0.00  0.00    +0.000 A 
ATOM     10  C   UNL     1       5.082   3.688  15.628  0.00  0.00    +0.000 A 
ATOM     11  C   UNL     1       5.033   4.374  16.844  0.00  0.00    +0.000 A 
ATOM     12  C   UNL     1       5.997   5.361  17.087  0.00  0.00    +0.000 A 
ATOM     13  C   UNL     1       6.971   5.703  16.135  0.00  0.00    +0.000 A 
BRANCH   8  15
ATOM     14  C   UNL     1       7.589   4.936  12.614  0.00  0.00    +0.000 C 
ATOM     15  O   UNL     1       7.871   5.410  13.932  0.00  0.00    +0.000 OA
ENDBRANCH   8  15
BRANCH  13  16
ATOM     16  O   UNL     1       7.797   6.694  16.589  0.00  0.00    +0.000 OA
ATOM     17  C   UNL     1       7.273   7.708  17.429  0.00  0.00    +0.000 C 
ENDBRANCH  13  16
ENDBRANCH   2  11
ENDBRANCH   1   4
BRANCH   1  18
ATOM     18  C   UNL     1       1.715   5.671  21.044  0.00  0.00    +0.000 C 
BRANCH  18  19
ATOM     19  O   UNL     1       2.088   6.468  19.912  0.00  0.00    +0.000 OA
BRANCH  19  20
ATOM     20  C   UNL     1       1.670   7.779  19.977  0.00  0.00    +0.000 A 
ATOM     21  C   UNL     1       1.212   8.219  21.223  0.00  0.00    +0.000 A 
ATOM     22  C   UNL     1       0.758   9.536  21.393  0.00  0.00    +0.000 A 
ATOM     23  C   UNL     1       0.766  10.435  20.317  0.00  0.00    +0.000 A 
ATOM     24  C   UNL     1       1.242   9.992  19.081  0.00  0.00    +0.000 A 
ATOM     25  C   UNL     1       1.698   8.681  18.917  0.00  0.00    +0.000 A 
BRANCH  23  26
ATOM     26  C   UNL     1       0.278  11.859  20.467  0.00  0.00    +0.000 C 
BRANCH  26  27
ATOM     27  C   UNL     1       0.731  12.854  19.393  0.00  0.00    +0.000 C 
ATOM     28  S   UNL     1       1.482  14.392  20.029  0.00  0.00    +0.000 S 
ATOM     29  C   UNL     1       0.281  15.400  19.265  0.00  0.00    +0.000 C 
ATOM     30  O   UNL     1       0.195  16.605  19.438  0.00  0.00    +0.000 OA
ATOM     31  N   UNL     1      -0.524  14.660  18.470  0.00  0.00    +0.000 N 
ATOM     32  C   UNL     1      -0.418  13.303  18.518  0.00  0.00    +0.000 C 
ATOM     33  O   UNL     1      -1.166  12.551  17.910  0.00  0.00    +0.000 OA
ATOM     34  H   UNL     1      -1.276  15.100  17.968  0.00  0.00    +0.000 HD
ENDBRANCH  26  27
ENDBRANCH  23  26
ENDBRANCH  19  20
ENDBRANCH  18  19
ENDBRANCH   1  18
TORSDOF 9
ENDMDL
MODEL 5
REMARK VINA RESULT:      -8.0      3.375      3.947
REMARK  Name = 
REMARK  12 active torsions:
REMARK  status: ('A' for Active; 'I' for Inactive)
REMARK    1  A    between atoms: C_1  and  O_2
REMARK    2  A    between atoms: O_2  and  C_3
REMARK    3  A    between atoms: C_6  and  C_7
REMARK    4  A    between atoms: C_9  and  C_10
REMARK    5  A    between atoms: C_10  and  C_11
REMARK    6  A    between atoms: C_11  and  O_12
REMARK    7  A    between atoms: O_12  and  C_13
REMARK    8  A    between atoms: C_16  and  C_17
REMARK    9  A    between atoms: C_17  and  C_18
REMARK   10  A    between atoms: C_27  and  C_28
REMARK   11  A    between atoms: C_31  and  O_32
REMARK   12  A    between atoms: O_32  and  C_33
REMARK                            x       y       z     vdW  Elec       q    Type
REMARK                         _______ _______ _______ _____ _____    ______ ____
ROOT
ATOM      1  C   UNL     1       1.351   7.449  20.695  0.00  0.00    +0.000 C 
ENDROOT
BRANCH   1   4
ATOM      2  C   UNL     1       3.577   5.654  18.583  0.00  0.00    +0.000 A 
ATOM      3  N   UNL     1       3.095   6.789  19.051  0.00  0.00    +0.000 NA
ATOM      4  C   UNL     1       2.137   6.410  19.969  0.00  0.00    +0.000 A 
ATOM      5  C   UNL     1       2.080   5.033  20.018  0.00  0.00    +0.000 A 
ATOM      6  C   UNL     1       1.309   4.032  20.770  0.00  0.00    +0.000 C 
ATOM      7  O   UNL     1       2.993   4.542  19.125  0.00  0.00    +0.000 OA
BRANCH   2  11
ATOM      8  C   UNL     1       6.630   5.141  15.618  0.00  0.00    +0.000 A 
ATOM      9  C   UNL     1       5.579   4.215  15.723  0.00  0.00    +0.000 A 
ATOM     10  C   UNL     1       4.574   4.372  16.682  0.00  0.00    +0.000 A 
ATOM     11  C   UNL     1       4.618   5.436  17.586  0.00  0.00    +0.000 A 
ATOM     12  C   UNL     1       5.708   6.314  17.522  0.00  0.00    +0.000 A 
ATOM     13  C   UNL     1       6.720   6.178  16.558  0.00  0.00    +0.000 A 
BRANCH   8  15
ATOM     14  C   UNL     1       7.082   4.645  13.350  0.00  0.00    +0.000 C 
ATOM     15  O   UNL     1       7.574   5.028  14.635  0.00  0.00    +0.000 OA
ENDBRANCH   8  15
BRANCH  13  16
ATOM     16  O   UNL     1       7.674   7.151  16.684  0.00  0.00    +0.000 OA
ATOM     17  C   UNL     1       7.609   8.054  17.774  0.00  0.00    +0.000 C 
ENDBRANCH  13  16
ENDBRANCH   2  11
ENDBRANCH   1   4
BRANCH   1  18
ATOM     18  C   UNL     1       1.646   8.839  20.132  0.00  0.00    +0.000 C 
BRANCH  18  19
ATOM     19  O   UNL     1       0.481   9.425  19.533  0.00  0.00    +0.000 OA
BRANCH  19  20
ATOM     20  C   UNL     1      -0.196  10.304  20.349  0.00  0.00    +0.000 A 
ATOM     21  C   UNL     1       0.086  10.220  21.716  0.00  0.00    +0.000 A 
ATOM     22  C   UNL     1      -0.557  11.068  22.631  0.00  0.00    +0.000 A 
ATOM     23  C   UNL     1      -1.485  12.021  22.188  0.00  0.00    +0.000 A 
ATOM     24  C   UNL     1      -1.748  12.108  20.819  0.00  0.00    +0.000 A 
ATOM     25  C   UNL     1      -1.103  11.266  19.910  0.00  0.00    +0.000 A 
BRANCH  23  26
ATOM     26  C   UNL     1      -2.198  12.944  23.151  0.00  0.00    +0.000 C 
BRANCH  26  27
ATOM     27  C   UNL     1      -3.670  13.244  22.846  0.00  0.00    +0.000 C 
ATOM     28  S   UNL     1      -4.047  14.995  22.490  0.00  0.00    +0.000 S 
ATOM     29  C   UNL     1      -5.166  15.119  23.822  0.00  0.00    +0.000 C 
ATOM     30  O   UNL     1      -5.688  16.163  24.177  0.00  0.00    +0.000 OA
ATOM     31  N   UNL     1      -5.363  13.908  24.391  0.00  0.00    +0.000 N 
ATOM     32  C   UNL     1      -4.574  12.869  23.999  0.00  0.00    +0.000 C 
ATOM     33  O   UNL     1      -4.612  11.765  24.524  0.00  0.00    +0.000 OA
ATOM     34  H   UNL     1      -5.977  13.819  25.182  0.00  0.00    +0.000 HD
ENDBRANCH  26  27
ENDBRANCH  23  26
ENDBRANCH  19  20
ENDBRANCH  18  19
ENDBRANCH   1  18
TORSDOF 9
ENDMDL
MODEL 6
REMARK VINA RESULT:      -7.9      4.182     11.896
REMARK  Name = 
REMARK  12 active torsions:
REMARK  status: ('A' for Active; 'I' for Inactive)
REMARK    1  A    between atoms: C_1  and  O_2
REMARK    2  A    between atoms: O_2  and  C_3
REMARK    3  A    between atoms: C_6  and  C_7
REMARK    4  A    between atoms: C_9  and  C_10
REMARK    5  A    between atoms: C_10  and  C_11
REMARK    6  A    between atoms: C_11  and  O_12
REMARK    7  A    between atoms: O_12  and  C_13
REMARK    8  A    between atoms: C_16  and  C_17
REMARK    9  A    between atoms: C_17  and  C_18
REMARK   10  A    between atoms: C_27  and  C_28
REMARK   11  A    between atoms: C_31  and  O_32
REMARK   12  A    between atoms: O_32  and  C_33
REMARK                            x       y       z     vdW  Elec       q    Type
REMARK                         _______ _______ _______ _____ _____    ______ ____
ROOT
ATOM      1  C   UNL     1      -0.144  12.342  18.492  0.00  0.00    +0.000 C 
ENDROOT
BRANCH   1   4
ATOM      2  C   UNL     1      -2.683  13.166  20.839  0.00  0.00    +0.000 A 
ATOM      3  N   UNL     1      -2.133  12.327  19.983  0.00  0.00    +0.000 NA
ATOM      4  C   UNL     1      -1.016  12.988  19.514  0.00  0.00    +0.000 A 
ATOM      5  C   UNL     1      -0.937  14.224  20.121  0.00  0.00    +0.000 A 
ATOM      6  C   UNL     1      -0.016  15.370  20.073  0.00  0.00    +0.000 C 
ATOM      7  O   UNL     1      -2.008  14.349  20.963  0.00  0.00    +0.000 OA
BRANCH   2  11
ATOM      8  C   UNL     1      -6.286  12.778  23.129  0.00  0.00    +0.000 A 
ATOM      9  C   UNL     1      -5.044  12.893  23.774  0.00  0.00    +0.000 A 
ATOM     10  C   UNL     1      -3.862  13.024  23.041  0.00  0.00    +0.000 A 
ATOM     11  C   UNL     1      -3.889  13.003  21.644  0.00  0.00    +0.000 A 
ATOM     12  C   UNL     1      -5.123  12.816  21.009  0.00  0.00    +0.000 A 
ATOM     13  C   UNL     1      -6.322  12.693  21.729  0.00  0.00    +0.000 A 
BRANCH   8  15
ATOM     14  C   UNL     1      -7.913  13.968  24.366  0.00  0.00    +0.000 C 
ATOM     15  O   UNL     1      -7.450  12.722  23.845  0.00  0.00    +0.000 OA
ENDBRANCH   8  15
BRANCH  13  16
ATOM     16  O   UNL     1      -7.397  12.526  20.900  0.00  0.00    +0.000 OA
ATOM     17  C   UNL     1      -7.192  12.054  19.579  0.00  0.00    +0.000 C 
ENDBRANCH  13  16
ENDBRANCH   2  11
ENDBRANCH   1   4
BRANCH   1  18
ATOM     18  C   UNL     1       1.023  11.615  19.160  0.00  0.00    +0.000 C 
BRANCH  18  19
ATOM     19  O   UNL     1       0.613  10.361  19.723  0.00  0.00    +0.000 OA
BRANCH  19  20
ATOM     20  C   UNL     1       1.326   9.274  19.269  0.00  0.00    +0.000 A 
ATOM     21  C   UNL     1       1.512   8.233  20.183  0.00  0.00    +0.000 A 
ATOM     22  C   UNL     1       2.232   7.084  19.820  0.00  0.00    +0.000 A 
ATOM     23  C   UNL     1       2.767   6.957  18.531  0.00  0.00    +0.000 A 
ATOM     24  C   UNL     1       2.562   7.996  17.619  0.00  0.00    +0.000 A 
ATOM     25  C   UNL     1       1.841   9.136  17.982  0.00  0.00    +0.000 A 
BRANCH  23  26
ATOM     26  C   UNL     1       3.552   5.735  18.112  0.00  0.00    +0.000 C 
BRANCH  26  27
ATOM     27  C   UNL     1       5.057   5.754  18.407  0.00  0.00    +0.000 C 
ATOM     28  S   UNL     1       6.106   6.380  17.050  0.00  0.00    +0.000 S 
ATOM     29  C   UNL     1       6.998   4.886  16.930  0.00  0.00    +0.000 C 
ATOM     30  O   UNL     1       7.820   4.653  16.059  0.00  0.00    +0.000 OA
ATOM     31  N   UNL     1       6.649   4.043  17.928  0.00  0.00    +0.000 N 
ATOM     32  C   UNL     1       5.589   4.373  18.718  0.00  0.00    +0.000 C 
ATOM     33  O   UNL     1       5.140   3.630  19.580  0.00  0.00    +0.000 OA
ATOM     34  H   UNL     1       7.071   3.132  17.987  0.00  0.00    +0.000 HD
ENDBRANCH  26  27
ENDBRANCH  23  26
ENDBRANCH  19  20
ENDBRANCH  18  19
ENDBRANCH   1  18
TORSDOF 9
ENDMDL
MODEL 7
REMARK VINA RESULT:      -7.9      1.751      2.127
REMARK  Name = 
REMARK  12 active torsions:
REMARK  status: ('A' for Active; 'I' for Inactive)
REMARK    1  A    between atoms: C_1  and  O_2
REMARK    2  A    between atoms: O_2  and  C_3
REMARK    3  A    between atoms: C_6  and  C_7
REMARK    4  A    between atoms: C_9  and  C_10
REMARK    5  A    between atoms: C_10  and  C_11
REMARK    6  A    between atoms: C_11  and  O_12
REMARK    7  A    between atoms: O_12  and  C_13
REMARK    8  A    between atoms: C_16  and  C_17
REMARK    9  A    between atoms: C_17  and  C_18
REMARK   10  A    between atoms: C_27  and  C_28
REMARK   11  A    between atoms: C_31  and  O_32
REMARK   12  A    between atoms: O_32  and  C_33
REMARK                            x       y       z     vdW  Elec       q    Type
REMARK                         _______ _______ _______ _____ _____    ______ ____
ROOT
ATOM      1  C   UNL     1       1.400   3.482  19.808  0.00  0.00    +0.000 C 
ENDROOT
BRANCH   1   4
ATOM      2  C   UNL     1       4.403   3.805  17.934  0.00  0.00    +0.000 A 
ATOM      3  N   UNL     1       3.116   4.040  18.098  0.00  0.00    +0.000 NA
ATOM      4  C   UNL     1       2.801   3.440  19.300  0.00  0.00    +0.000 A 
ATOM      5  C   UNL     1       3.936   2.855  19.822  0.00  0.00    +0.000 A 
ATOM      6  C   UNL     1       4.274   2.095  21.035  0.00  0.00    +0.000 C 
ATOM      7  O   UNL     1       4.964   3.076  18.947  0.00  0.00    +0.000 OA
BRANCH   2  11
ATOM      8  C   UNL     1       6.951   5.102  14.740  0.00  0.00    +0.000 A 
ATOM      9  C   UNL     1       6.079   4.017  14.557  0.00  0.00    +0.000 A 
ATOM     10  C   UNL     1       5.240   3.585  15.587  0.00  0.00    +0.000 A 
ATOM     11  C   UNL     1       5.281   4.203  16.839  0.00  0.00    +0.000 A 
ATOM     12  C   UNL     1       6.204   5.238  17.037  0.00  0.00    +0.000 A 
ATOM     13  C   UNL     1       7.048   5.691  16.009  0.00  0.00    +0.000 A 
BRANCH   8  15
ATOM     14  C   UNL     1       7.714   4.775  12.525  0.00  0.00    +0.000 C 
ATOM     15  O   UNL     1       7.721   5.571  13.711  0.00  0.00    +0.000 OA
ENDBRANCH   8  15
BRANCH  13  16
ATOM     16  O   UNL     1       7.857   6.711  16.431  0.00  0.00    +0.000 OA
ATOM     17  C   UNL     1       7.445   7.524  17.516  0.00  0.00    +0.000 C 
ENDBRANCH  13  16
ENDBRANCH   2  11
ENDBRANCH   1   4
BRANCH   1  18
ATOM     18  C   UNL     1       1.164   4.745  20.635  0.00  0.00    +0.000 C 
BRANCH  18  19
ATOM     19  O   UNL     1       2.259   5.665  20.520  0.00  0.00    +0.000 OA
BRANCH  19  20
ATOM     20  C   UNL     1       1.890   6.946  20.174  0.00  0.00    +0.000 A 
ATOM     21  C   UNL     1       2.260   7.370  18.893  0.00  0.00    +0.000 A 
ATOM     22  C   UNL     1       1.937   8.661  18.448  0.00  0.00    +0.000 A 
ATOM     23  C   UNL     1       1.229   9.543  19.276  0.00  0.00    +0.000 A 
ATOM     24  C   UNL     1       0.850   9.105  20.547  0.00  0.00    +0.000 A 
ATOM     25  C   UNL     1       1.169   7.818  20.986  0.00  0.00    +0.000 A 
BRANCH  23  26
ATOM     26  C   UNL     1       0.873  10.942  18.826  0.00  0.00    +0.000 C 
BRANCH  26  27
ATOM     27  C   UNL     1       1.382  12.093  19.702  0.00  0.00    +0.000 C 
ATOM     28  S   UNL     1       0.097  12.964  20.663  0.00  0.00    +0.000 S 
ATOM     29  C   UNL     1       0.444  14.497  19.907  0.00  0.00    +0.000 C 
ATOM     30  O   UNL     1      -0.219  15.506  20.080  0.00  0.00    +0.000 OA
ATOM     31  N   UNL     1       1.536  14.400  19.116  0.00  0.00    +0.000 N 
ATOM     32  C   UNL     1       2.064  13.166  18.883  0.00  0.00    +0.000 C 
ATOM     33  O   UNL     1       2.989  12.969  18.107  0.00  0.00    +0.000 OA
ATOM     34  H   UNL     1       1.857  15.203  18.601  0.00  0.00    +0.000 HD
ENDBRANCH  26  27
ENDBRANCH  23  26
ENDBRANCH  19  20
ENDBRANCH  18  19
ENDBRANCH   1  18
TORSDOF 9
ENDMDL
MODEL 8
REMARK VINA RESULT:      -7.9      3.969     10.847
REMARK  Name = 
REMARK  12 active torsions:
REMARK  status: ('A' for Active; 'I' for Inactive)
REMARK    1  A    between atoms: C_1  and  O_2
REMARK    2  A    between atoms: O_2  and  C_3
REMARK    3  A    between atoms: C_6  and  C_7
REMARK    4  A    between atoms: C_9  and  C_10
REMARK    5  A    between atoms: C_10  and  C_11
REMARK    6  A    between atoms: C_11  and  O_12
REMARK    7  A    between atoms: O_12  and  C_13
REMARK    8  A    between atoms: C_16  and  C_17
REMARK    9  A    between atoms: C_17  and  C_18
REMARK   10  A    between atoms: C_27  and  C_28
REMARK   11  A    between atoms: C_31  and  O_32
REMARK   12  A    between atoms: O_32  and  C_33
REMARK                            x       y       z     vdW  Elec       q    Type
REMARK                         _______ _______ _______ _____ _____    ______ ____
ROOT
ATOM      1  C   UNL     1       0.305   9.778  18.584  0.00  0.00    +0.000 C 
ENDROOT
BRANCH   1   4
ATOM      2  C   UNL     1      -0.860  11.250  21.603  0.00  0.00    +0.000 A 
ATOM      3  N   UNL     1      -0.681  11.286  20.297  0.00  0.00    +0.000 NA
ATOM      4  C   UNL     1      -0.076  10.085  19.993  0.00  0.00    +0.000 A 
ATOM      5  C   UNL     1       0.088   9.357  21.154  0.00  0.00    +0.000 A 
ATOM      6  C   UNL     1       0.635   8.039  21.509  0.00  0.00    +0.000 C 
ATOM      7  O   UNL     1      -0.403  10.102  22.191  0.00  0.00    +0.000 OA
BRANCH   2  11
ATOM      8  C   UNL     1      -2.738  14.168  24.120  0.00  0.00    +0.000 A 
ATOM      9  C   UNL     1      -1.501  14.443  23.516  0.00  0.00    +0.000 A 
ATOM     10  C   UNL     1      -0.879  13.503  22.689  0.00  0.00    +0.000 A 
ATOM     11  C   UNL     1      -1.460  12.250  22.480  0.00  0.00    +0.000 A 
ATOM     12  C   UNL     1      -2.658  11.957  23.143  0.00  0.00    +0.000 A 
ATOM     13  C   UNL     1      -3.302  12.893  23.969  0.00  0.00    +0.000 A 
BRANCH   8  15
ATOM     14  C   UNL     1      -2.538  15.952  25.660  0.00  0.00    +0.000 C 
ATOM     15  O   UNL     1      -3.382  15.113  24.871  0.00  0.00    +0.000 OA
ENDBRANCH   8  15
BRANCH  13  16
ATOM     16  O   UNL     1      -4.456  12.388  24.503  0.00  0.00    +0.000 OA
ATOM     17  C   UNL     1      -5.706  12.793  23.972  0.00  0.00    +0.000 C 
ENDBRANCH  13  16
ENDBRANCH   2  11
ENDBRANCH   1   4
BRANCH   1  18
ATOM     18  C   UNL     1       1.824   9.807  18.418  0.00  0.00    +0.000 C 
BRANCH  18  19
ATOM     19  O   UNL     1       2.264   8.880  17.415  0.00  0.00    +0.000 OA
BRANCH  19  20
ATOM     20  C   UNL     1       2.824   7.726  17.916  0.00  0.00    +0.000 A 
ATOM     21  C   UNL     1       3.886   7.187  17.183  0.00  0.00    +0.000 A 
ATOM     22  C   UNL     1       4.519   6.008  17.605  0.00  0.00    +0.000 A 
ATOM     23  C   UNL     1       4.104   5.357  18.775  0.00  0.00    +0.000 A 
ATOM     24  C   UNL     1       3.054   5.912  19.510  0.00  0.00    +0.000 A 
ATOM     25  C   UNL     1       2.428   7.088  19.089  0.00  0.00    +0.000 A 
BRANCH  23  26
ATOM     26  C   UNL     1       4.763   4.082  19.253  0.00  0.00    +0.000 C 
BRANCH  26  27
ATOM     27  C   UNL     1       3.954   2.791  19.089  0.00  0.00    +0.000 C 
ATOM     28  S   UNL     1       2.748   2.800  17.717  0.00  0.00    +0.000 S 
ATOM     29  C   UNL     1       1.397   2.521  18.784  0.00  0.00    +0.000 C 
ATOM     30  O   UNL     1       0.231   2.543  18.425  0.00  0.00    +0.000 OA
ATOM     31  N   UNL     1       1.827   2.283  20.044  0.00  0.00    +0.000 N 
ATOM     32  C   UNL     1       3.147   2.469  20.326  0.00  0.00    +0.000 C 
ATOM     33  O   UNL     1       3.610   2.372  21.454  0.00  0.00    +0.000 OA
ATOM     34  H   UNL     1       1.162   2.114  20.779  0.00  0.00    +0.000 HD
ENDBRANCH  26  27
ENDBRANCH  23  26
ENDBRANCH  19  20
ENDBRANCH  18  19
ENDBRANCH   1  18
TORSDOF 9
ENDMDL
MODEL 9
REMARK VINA RESULT:      -7.9      2.083      2.826
REMARK  Name = 
REMARK  12 active torsions:
REMARK  status: ('A' for Active; 'I' for Inactive)
REMARK    1  A    between atoms: C_1  and  O_2
REMARK    2  A    between atoms: O_2  and  C_3
REMARK    3  A    between atoms: C_6  and  C_7
REMARK    4  A    between atoms: C_9  and  C_10
REMARK    5  A    between atoms: C_10  and  C_11
REMARK    6  A    between atoms: C_11  and  O_12
REMARK    7  A    between atoms: O_12  and  C_13
REMARK    8  A    between atoms: C_16  and  C_17
REMARK    9  A    between atoms: C_17  and  C_18
REMARK   10  A    between atoms: C_27  and  C_28
REMARK   11  A    between atoms: C_31  and  O_32
REMARK   12  A    between atoms: O_32  and  C_33
REMARK                            x       y       z     vdW  Elec       q    Type
REMARK                         _______ _______ _______ _____ _____    ______ ____
ROOT
ATOM      1  C   UNL     1       1.231   6.230  20.651  0.00  0.00    +0.000 C 
ENDROOT
BRANCH   1   4
ATOM      2  C   UNL     1       3.837   4.992  18.574  0.00  0.00    +0.000 A 
ATOM      3  N   UNL     1       2.996   5.946  18.923  0.00  0.00    +0.000 NA
ATOM      4  C   UNL     1       2.303   5.426  19.996  0.00  0.00    +0.000 A 
ATOM      5  C   UNL     1       2.765   4.152  20.256  0.00  0.00    +0.000 A 
ATOM      6  C   UNL     1       2.468   3.097  21.237  0.00  0.00    +0.000 C 
ATOM      7  O   UNL     1       3.741   3.864  19.342  0.00  0.00    +0.000 OA
BRANCH   2  11
ATOM      8  C   UNL     1       6.726   5.091  15.409  0.00  0.00    +0.000 A 
ATOM      9  C   UNL     1       5.703   4.130  15.406  0.00  0.00    +0.000 A 
ATOM     10  C   UNL     1       4.751   4.088  16.428  0.00  0.00    +0.000 A 
ATOM     11  C   UNL     1       4.824   4.981  17.500  0.00  0.00    +0.000 A 
ATOM     12  C   UNL     1       5.890   5.889  17.533  0.00  0.00    +0.000 A 
ATOM     13  C   UNL     1       6.849   5.952  16.509  0.00  0.00    +0.000 A 
BRANCH   8  15
ATOM     14  C   UNL     1       7.163   4.646  13.127  0.00  0.00    +0.000 C 
ATOM     15  O   UNL     1       7.615   5.178  14.373  0.00  0.00    +0.000 OA
ENDBRANCH   8  15
BRANCH  13  16
ATOM     16  O   UNL     1       7.788   6.917  16.752  0.00  0.00    +0.000 OA
ATOM     17  C   UNL     1       7.502   7.951  17.679  0.00  0.00    +0.000 C 
ENDBRANCH  13  16
ENDBRANCH   2  11
ENDBRANCH   1   4
BRANCH   1  18
ATOM     18  C   UNL     1       1.743   7.627  21.000  0.00  0.00    +0.000 C 
BRANCH  18  19
ATOM     19  O   UNL     1       0.670   8.508  21.364  0.00  0.00    +0.000 OA
BRANCH  19  20
ATOM     20  C   UNL     1       0.614   9.670  20.628  0.00  0.00    +0.000 A 
ATOM     21  C   UNL     1       0.247  10.825  21.325  0.00  0.00    +0.000 A 
ATOM     22  C   UNL     1       0.155  12.060  20.664  0.00  0.00    +0.000 A 
ATOM     23  C   UNL     1       0.439  12.156  19.294  0.00  0.00    +0.000 A 
ATOM     24  C   UNL     1       0.821  11.000  18.610  0.00  0.00    +0.000 A 
ATOM     25  C   UNL     1       0.917   9.774  19.273  0.00  0.00    +0.000 A 
BRANCH  23  26
ATOM     26  C   UNL     1       0.342  13.471  18.553  0.00  0.00    +0.000 C 
BRANCH  26  27
ATOM     27  C   UNL     1       1.012  14.680  19.214  0.00  0.00    +0.000 C 
ATOM     28  S   UNL     1       0.251  16.295  18.832  0.00  0.00    +0.000 S 
ATOM     29  C   UNL     1       1.720  16.922  18.130  0.00  0.00    +0.000 C 
ATOM     30  O   UNL     1       1.795  17.998  17.560  0.00  0.00    +0.000 OA
ATOM     31  N   UNL     1       2.740  16.054  18.309  0.00  0.00    +0.000 N 
ATOM     32  C   UNL     1       2.462  14.816  18.806  0.00  0.00    +0.000 C 
ATOM     33  O   UNL     1       3.302  13.933  18.912  0.00  0.00    +0.000 OA
ATOM     34  H   UNL     1       3.654  16.271  17.949  0.00  0.00    +0.000 HD
ENDBRANCH  26  27
ENDBRANCH  23  26
ENDBRANCH  19  20
ENDBRANCH  18  19
ENDBRANCH   1  18
TORSDOF 9
ENDMDL
