MODEL 1
REMARK VINA RESULT:      -8.2      0.000      0.000
REMARK  Name = 
REMARK  5 active torsions:
REMARK  status: ('A' for Active; 'I' for Inactive)
REMARK    1  A    between atoms: N_2  and  C_4
REMARK    2  A    between atoms: C_8  and  C_9
REMARK    3  A    between atoms: C_14  and  C_15
REMARK    4  A    between atoms: C_15  and  C_16
REMARK    5  A    between atoms: C_16  and  C_17
REMARK                            x       y       z     vdW  Elec       q    Type
REMARK                         _______ _______ _______ _____ _____    ______ ____
ROOT
ATOM      1  C   UNL     1       3.498   3.887  18.246  0.00  0.00    +0.000 A 
ATOM      2  C   UNL     1       3.192   2.534  17.928  0.00  0.00    +0.000 A 
ATOM      3  C   UNL     1       1.980   1.927  18.247  0.00  0.00    +0.000 A 
ATOM      4  C   UNL     1       1.007   2.669  18.880  0.00  0.00    +0.000 A 
ATOM      5  C   UNL     1       1.257   4.001  19.199  0.00  0.00    +0.000 A 
ATOM      6  C   UNL     1       2.496   4.638  18.922  0.00  0.00    +0.000 A 
ENDROOT
BRANCH   1  11
ATOM      7  C   UNL     1       6.512   4.625  16.015  0.00  0.00    +0.000 A 
ATOM      8  C   UNL     1       7.518   4.860  16.960  0.00  0.00    +0.000 A 
ATOM      9  C   UNL     1       7.178   4.903  18.304  0.00  0.00    +0.000 A 
ATOM     10  C   UNL     1       5.850   4.690  18.692  0.00  0.00    +0.000 A 
ATOM     11  C   UNL     1       4.824   4.384  17.764  0.00  0.00    +0.000 A 
ATOM     12  C   UNL     1       5.179   4.390  16.408  0.00  0.00    +0.000 A 
BRANCH   7  14
ATOM     13  O   UNL     1       7.710   5.374  14.177  0.00  0.00    +0.000 OA
ATOM     14  N   UNL     1       6.870   4.567  14.592  0.00  0.00    +0.000 N 
ATOM     15  O   UNL     1       6.304   3.713  13.894  0.00  0.00    +0.000 OA
ENDBRANCH   7  14
ENDBRANCH   1  11
BRANCH   6  16
ATOM     16  C   UNL     1       2.651   6.106  19.320  0.00  0.00    +0.000 C 
BRANCH  16  17
ATOM     17  C   UNL     1       2.661   7.105  18.151  0.00  0.00    +0.000 C 
BRANCH  17  18
ATOM     18  C   UNL     1       2.037   8.427  18.494  0.00  0.00    +0.000 C 
ATOM     19  N   UNL     1       2.000   9.416  17.641  0.00  0.00    +0.000 NA
ATOM     20  C   UNL     1       1.370  10.529  18.414  0.00  0.00    +0.000 C 
ATOM     21  C   UNL     1       0.735   9.886  19.653  0.00  0.00    +0.000 C 
ATOM     22  N   UNL     1       1.484   8.655  19.729  0.00  0.00    +0.000 N 
ATOM     23  H   UNL     1       1.087   7.876  20.240  0.00  0.00    +0.000 HD
ENDBRANCH  17  18
ENDBRANCH  16  17
ENDBRANCH   6  16
TORSDOF 5
ENDMDL
MODEL 2
REMARK VINA RESULT:      -8.2      0.753      1.141
REMARK  Name = 
REMARK  5 active torsions:
REMARK  status: ('A' for Active; 'I' for Inactive)
REMARK    1  A    between atoms: N_2  and  C_4
REMARK    2  A    between atoms: C_8  and  C_9
REMARK    3  A    between atoms: C_14  and  C_15
REMARK    4  A    between atoms: C_15  and  C_16
REMARK    5  A    between atoms: C_16  and  C_17
REMARK                            x       y       z     vdW  Elec       q    Type
REMARK                         _______ _______ _______ _____ _____    ______ ____
ROOT
ATOM      1  C   UNL     1       3.557   3.715  17.922  0.00  0.00    +0.000 A 
ATOM      2  C   UNL     1       3.441   2.298  17.953  0.00  0.00    +0.000 A 
ATOM      3  C   UNL     1       2.270   1.632  18.307  0.00  0.00    +0.000 A 
ATOM      4  C   UNL     1       1.150   2.370  18.621  0.00  0.00    +0.000 A 
ATOM      5  C   UNL     1       1.213   3.762  18.590  0.00  0.00    +0.000 A 
ATOM      6  C   UNL     1       2.401   4.470  18.272  0.00  0.00    +0.000 A 
ENDROOT
BRANCH   1  11
ATOM      7  C   UNL     1       6.544   4.590  15.704  0.00  0.00    +0.000 A 
ATOM      8  C   UNL     1       7.555   4.794  16.650  0.00  0.00    +0.000 A 
ATOM      9  C   UNL     1       7.225   4.774  17.998  0.00  0.00    +0.000 A 
ATOM     10  C   UNL     1       5.902   4.527  18.386  0.00  0.00    +0.000 A 
ATOM     11  C   UNL     1       4.873   4.250  17.453  0.00  0.00    +0.000 A 
ATOM     12  C   UNL     1       5.216   4.321  16.095  0.00  0.00    +0.000 A 
BRANCH   7  14
ATOM     13  O   UNL     1       6.325   3.780  13.543  0.00  0.00    +0.000 OA
ATOM     14  N   UNL     1       6.891   4.598  14.277  0.00  0.00    +0.000 N 
ATOM     15  O   UNL     1       7.732   5.426  13.898  0.00  0.00    +0.000 OA
ENDBRANCH   7  14
ENDBRANCH   1  11
BRANCH   6  16
ATOM     16  C   UNL     1       2.346   5.998  18.272  0.00  0.00    +0.000 C 
BRANCH  16  17
ATOM     17  C   UNL     1       2.758   6.669  19.593  0.00  0.00    +0.000 C 
BRANCH  17  18
ATOM     18  C   UNL     1       1.927   7.875  19.930  0.00  0.00    +0.000 C 
ATOM     19  N   UNL     1       1.540   8.724  19.016  0.00  0.00    +0.000 NA
ATOM     20  C   UNL     1       0.819   9.777  19.793  0.00  0.00    +0.000 C 
ATOM     21  C   UNL     1       0.548   9.179  21.179  0.00  0.00    +0.000 C 
ATOM     22  N   UNL     1       1.547   8.139  21.221  0.00  0.00    +0.000 N 
ATOM     23  H   UNL     1       1.416   7.367  21.862  0.00  0.00    +0.000 HD
ENDBRANCH  17  18
ENDBRANCH  16  17
ENDBRANCH   6  16
TORSDOF 5
ENDMDL
MODEL 3
REMARK VINA RESULT:      -8.2      0.154      1.071
REMARK  Name = 
REMARK  5 active torsions:
REMARK  status: ('A' for Active; 'I' for Inactive)
REMARK    1  A    between atoms: N_2  and  C_4
REMARK    2  A    between atoms: C_8  and  C_9
REMARK    3  A    between atoms: C_14  and  C_15
REMARK    4  A    between atoms: C_15  and  C_16
REMARK    5  A    between atoms: C_16  and  C_17
REMARK                            x       y       z     vdW  Elec       q    Type
REMARK                         _______ _______ _______ _____ _____    ______ ____
ROOT
ATOM      1  C   UNL     1       3.493   3.986  18.302  0.00  0.00    +0.000 A 
ATOM      2  C   UNL     1       3.156   2.635  18.012  0.00  0.00    +0.000 A 
ATOM      3  C   UNL     1       1.935   2.059  18.352  0.00  0.00    +0.000 A 
ATOM      4  C   UNL     1       0.983   2.832  18.981  0.00  0.00    +0.000 A 
ATOM      5  C   UNL     1       1.263   4.165  19.272  0.00  0.00    +0.000 A 
ATOM      6  C   UNL     1       2.512   4.770  18.973  0.00  0.00    +0.000 A 
ENDROOT
BRANCH   1  11
ATOM      7  C   UNL     1       6.485   4.655  16.020  0.00  0.00    +0.000 A 
ATOM      8  C   UNL     1       7.516   4.847  16.947  0.00  0.00    +0.000 A 
ATOM      9  C   UNL     1       7.204   4.886  18.299  0.00  0.00    +0.000 A 
ATOM     10  C   UNL     1       5.877   4.710  18.711  0.00  0.00    +0.000 A 
ATOM     11  C   UNL     1       4.824   4.447  17.799  0.00  0.00    +0.000 A 
ATOM     12  C   UNL     1       5.152   4.458  16.436  0.00  0.00    +0.000 A 
BRANCH   7  14
ATOM     13  O   UNL     1       6.217   3.771  13.894  0.00  0.00    +0.000 OA
ATOM     14  N   UNL     1       6.813   4.602  14.590  0.00  0.00    +0.000 N 
ATOM     15  O   UNL     1       7.670   5.393  14.169  0.00  0.00    +0.000 OA
ENDBRANCH   7  14
ENDBRANCH   1  11
BRANCH   6  16
ATOM     16  C   UNL     1       2.701   6.242  19.342  0.00  0.00    +0.000 C 
BRANCH  16  17
ATOM     17  C   UNL     1       2.516   7.238  18.185  0.00  0.00    +0.000 C 
BRANCH  17  18
ATOM     18  C   UNL     1       1.884   8.532  18.611  0.00  0.00    +0.000 C 
ATOM     19  N   UNL     1       1.409   8.706  19.816  0.00  0.00    +0.000 NA
ATOM     20  C   UNL     1       0.825  10.080  19.773  0.00  0.00    +0.000 C 
ATOM     21  C   UNL     1       1.390  10.748  18.513  0.00  0.00    +0.000 C 
ATOM     22  N   UNL     1       1.770   9.589  17.744  0.00  0.00    +0.000 N 
ATOM     23  H   UNL     1       2.460   9.699  17.011  0.00  0.00    +0.000 HD
ENDBRANCH  17  18
ENDBRANCH  16  17
ENDBRANCH   6  16
TORSDOF 5
ENDMDL
MODEL 4
REMARK VINA RESULT:      -8.1      2.001      2.289
REMARK  Name = 
REMARK  5 active torsions:
REMARK  status: ('A' for Active; 'I' for Inactive)
REMARK    1  A    between atoms: N_2  and  C_4
REMARK    2  A    between atoms: C_8  and  C_9
REMARK    3  A    between atoms: C_14  and  C_15
REMARK    4  A    between atoms: C_15  and  C_16
REMARK    5  A    between atoms: C_16  and  C_17
REMARK                            x       y       z     vdW  Elec       q    Type
REMARK                         _______ _______ _______ _____ _____    ______ ____
ROOT
ATOM      1  C   UNL     1       3.278   3.869  18.803  0.00  0.00    +0.000 A 
ATOM      2  C   UNL     1       2.887   2.502  18.734  0.00  0.00    +0.000 A 
ATOM      3  C   UNL     1       1.683   2.023  19.242  0.00  0.00    +0.000 A 
ATOM      4  C   UNL     1       0.802   2.909  19.824  0.00  0.00    +0.000 A 
ATOM      5  C   UNL     1       1.137   4.259  19.902  0.00  0.00    +0.000 A 
ATOM      6  C   UNL     1       2.372   4.772  19.428  0.00  0.00    +0.000 A 
ENDROOT
BRANCH   1  11
ATOM      7  C   UNL     1       6.773   5.275  18.163  0.00  0.00    +0.000 A 
ATOM      8  C   UNL     1       6.822   5.297  16.764  0.00  0.00    +0.000 A 
ATOM      9  C   UNL     1       5.775   4.736  16.048  0.00  0.00    +0.000 A 
ATOM     10  C   UNL     1       4.684   4.183  16.730  0.00  0.00    +0.000 A 
ATOM     11  C   UNL     1       4.576   4.207  18.143  0.00  0.00    +0.000 A 
ATOM     12  C   UNL     1       5.665   4.737  18.849  0.00  0.00    +0.000 A 
BRANCH   7  14
ATOM     13  O   UNL     1       8.214   7.029  18.629  0.00  0.00    +0.000 OA
ATOM     14  N   UNL     1       7.874   5.878  18.924  0.00  0.00    +0.000 N 
ATOM     15  O   UNL     1       8.397   5.192  19.816  0.00  0.00    +0.000 OA
ENDBRANCH   7  14
ENDBRANCH   1  11
BRANCH   6  16
ATOM     16  C   UNL     1       2.626   6.274  19.570  0.00  0.00    +0.000 C 
BRANCH  16  17
ATOM     17  C   UNL     1       2.468   7.091  18.276  0.00  0.00    +0.000 C 
BRANCH  17  18
ATOM     18  C   UNL     1       1.974   8.489  18.514  0.00  0.00    +0.000 C 
ATOM     19  N   UNL     1       2.093   9.427  17.612  0.00  0.00    +0.000 NA
ATOM     20  C   UNL     1       1.546  10.642  18.288  0.00  0.00    +0.000 C 
ATOM     21  C   UNL     1       0.777  10.141  19.517  0.00  0.00    +0.000 C 
ATOM     22  N   UNL     1       1.381   8.844  19.700  0.00  0.00    +0.000 N 
ATOM     23  H   UNL     1       0.874   8.142  20.224  0.00  0.00    +0.000 HD
ENDBRANCH  17  18
ENDBRANCH  16  17
ENDBRANCH   6  16
TORSDOF 5
ENDMDL
MODEL 5
REMARK VINA RESULT:      -8.1      0.663      1.114
REMARK  Name = 
REMARK  5 active torsions:
REMARK  status: ('A' for Active; 'I' for Inactive)
REMARK    1  A    between atoms: N_2  and  C_4
REMARK    2  A    between atoms: C_8  and  C_9
REMARK    3  A    between atoms: C_14  and  C_15
REMARK    4  A    between atoms: C_15  and  C_16
REMARK    5  A    between atoms: C_16  and  C_17
REMARK                            x       y       z     vdW  Elec       q    Type
REMARK                         _______ _______ _______ _____ _____    ______ ____
ROOT
ATOM      1  C   UNL     1       3.550   3.718  17.992  0.00  0.00    +0.000 A 
ATOM      2  C   UNL     1       3.470   2.302  18.109  0.00  0.00    +0.000 A 
ATOM      3  C   UNL     1       2.307   1.628  18.472  0.00  0.00    +0.000 A 
ATOM      4  C   UNL     1       1.160   2.352  18.711  0.00  0.00    +0.000 A 
ATOM      5  C   UNL     1       1.188   3.740  18.596  0.00  0.00    +0.000 A 
ATOM      6  C   UNL     1       2.366   4.460  18.265  0.00  0.00    +0.000 A 
ENDROOT
BRANCH   1  11
ATOM      7  C   UNL     1       6.540   4.597  15.782  0.00  0.00    +0.000 A 
ATOM      8  C   UNL     1       7.546   4.816  16.731  0.00  0.00    +0.000 A 
ATOM      9  C   UNL     1       7.210   4.803  18.077  0.00  0.00    +0.000 A 
ATOM     10  C   UNL     1       5.887   4.550  18.461  0.00  0.00    +0.000 A 
ATOM     11  C   UNL     1       4.864   4.258  17.525  0.00  0.00    +0.000 A 
ATOM     12  C   UNL     1       5.213   4.321  16.169  0.00  0.00    +0.000 A 
BRANCH   7  14
ATOM     13  O   UNL     1       7.747   5.408  13.976  0.00  0.00    +0.000 OA
ATOM     14  N   UNL     1       6.894   4.598  14.357  0.00  0.00    +0.000 N 
ATOM     15  O   UNL     1       6.312   3.787  13.622  0.00  0.00    +0.000 OA
ENDBRANCH   7  14
ENDBRANCH   1  11
BRANCH   6  16
ATOM     16  C   UNL     1       2.271   5.983  18.168  0.00  0.00    +0.000 C 
BRANCH  16  17
ATOM     17  C   UNL     1       2.697   6.748  19.432  0.00  0.00    +0.000 C 
BRANCH  17  18
ATOM     18  C   UNL     1       1.873   7.978  19.687  0.00  0.00    +0.000 C 
ATOM     19  N   UNL     1       1.355   8.232  20.860  0.00  0.00    +0.000 NA
ATOM     20  C   UNL     1       0.576   9.487  20.639  0.00  0.00    +0.000 C 
ATOM     21  C   UNL     1       1.060  10.065  19.304  0.00  0.00    +0.000 C 
ATOM     22  N   UNL     1       1.622   8.887  18.691  0.00  0.00    +0.000 N 
ATOM     23  H   UNL     1       2.303   9.003  17.950  0.00  0.00    +0.000 HD
ENDBRANCH  17  18
ENDBRANCH  16  17
ENDBRANCH   6  16
TORSDOF 5
ENDMDL
MODEL 6
REMARK VINA RESULT:      -8.0      1.983      2.401
REMARK  Name = 
REMARK  5 active torsions:
REMARK  status: ('A' for Active; 'I' for Inactive)
REMARK    1  A    between atoms: N_2  and  C_4
REMARK    2  A    between atoms: C_8  and  C_9
REMARK    3  A    between atoms: C_14  and  C_15
REMARK    4  A    between atoms: C_15  and  C_16
REMARK    5  A    between atoms: C_16  and  C_17
REMARK                            x       y       z     vdW  Elec       q    Type
REMARK                         _______ _______ _______ _____ _____    ______ ____
ROOT
ATOM      1  C   UNL     1       3.476   4.053  19.207  0.00  0.00    +0.000 A 
ATOM      2  C   UNL     1       3.630   2.984  20.133  0.00  0.00    +0.000 A 
ATOM      3  C   UNL     1       2.639   2.601  21.033  0.00  0.00    +0.000 A 
ATOM      4  C   UNL     1       1.432   3.266  21.023  0.00  0.00    +0.000 A 
ATOM      5  C   UNL     1       1.232   4.311  20.123  0.00  0.00    +0.000 A 
ATOM      6  C   UNL     1       2.235   4.750  19.220  0.00  0.00    +0.000 A 
ENDROOT
BRANCH   1  11
ATOM      7  C   UNL     1       6.535   5.585  17.504  0.00  0.00    +0.000 A 
ATOM      8  C   UNL     1       6.483   4.995  16.235  0.00  0.00    +0.000 A 
ATOM      9  C   UNL     1       5.535   4.012  15.991  0.00  0.00    +0.000 A 
ATOM     10  C   UNL     1       4.638   3.646  17.002  0.00  0.00    +0.000 A 
ATOM     11  C   UNL     1       4.623   4.274  18.273  0.00  0.00    +0.000 A 
ATOM     12  C   UNL     1       5.618   5.231  18.514  0.00  0.00    +0.000 A 
BRANCH   7  14
ATOM     13  O   UNL     1       7.698   7.493  16.888  0.00  0.00    +0.000 OA
ATOM     14  N   UNL     1       7.528   6.635  17.762  0.00  0.00    +0.000 N 
ATOM     15  O   UNL     1       8.139   6.593  18.840  0.00  0.00    +0.000 OA
ENDBRANCH   7  14
ENDBRANCH   1  11
BRANCH   6  16
ATOM     16  C   UNL     1       1.896   5.908  18.280  0.00  0.00    +0.000 C 
BRANCH  16  17
ATOM     17  C   UNL     1       2.623   7.230  18.580  0.00  0.00    +0.000 C 
BRANCH  17  18
ATOM     18  C   UNL     1       1.885   8.105  19.553  0.00  0.00    +0.000 C 
ATOM     19  N   UNL     1       1.260   9.188  19.171  0.00  0.00    +0.000 NA
ATOM     20  C   UNL     1       0.745   9.768  20.448  0.00  0.00    +0.000 C 
ATOM     21  C   UNL     1       0.851   8.657  21.499  0.00  0.00    +0.000 C 
ATOM     22  N   UNL     1       1.845   7.808  20.891  0.00  0.00    +0.000 N 
ATOM     23  H   UNL     1       1.898   6.839  21.180  0.00  0.00    +0.000 HD
ENDBRANCH  17  18
ENDBRANCH  16  17
ENDBRANCH   6  16
TORSDOF 5
ENDMDL
MODEL 7
REMARK VINA RESULT:      -8.0      2.307      2.662
REMARK  Name = 
REMARK  5 active torsions:
REMARK  status: ('A' for Active; 'I' for Inactive)
REMARK    1  A    between atoms: N_2  and  C_4
REMARK    2  A    between atoms: C_8  and  C_9
REMARK    3  A    between atoms: C_14  and  C_15
REMARK    4  A    between atoms: C_15  and  C_16
REMARK    5  A    between atoms: C_16  and  C_17
REMARK                            x       y       z     vdW  Elec       q    Type
REMARK                         _______ _______ _______ _____ _____    ______ ____
ROOT
ATOM      1  C   UNL     1       3.036   3.934  18.699  0.00  0.00    +0.000 A 
ATOM      2  C   UNL     1       2.577   2.695  18.172  0.00  0.00    +0.000 A 
ATOM      3  C   UNL     1       1.388   2.087  18.568  0.00  0.00    +0.000 A 
ATOM      4  C   UNL     1       0.591   2.718  19.498  0.00  0.00    +0.000 A 
ATOM      5  C   UNL     1       0.994   3.940  20.032  0.00  0.00    +0.000 A 
ATOM      6  C   UNL     1       2.218   4.567  19.678  0.00  0.00    +0.000 A 
ENDROOT
BRANCH   1  11
ATOM      7  C   UNL     1       6.480   5.547  18.324  0.00  0.00    +0.000 A 
ATOM      8  C   UNL     1       6.474   5.929  16.977  0.00  0.00    +0.000 A 
ATOM      9  C   UNL     1       5.408   5.544  16.177  0.00  0.00    +0.000 A 
ATOM     10  C   UNL     1       4.354   4.806  16.730  0.00  0.00    +0.000 A 
ATOM     11  C   UNL     1       4.301   4.465  18.104  0.00  0.00    +0.000 A 
ATOM     12  C   UNL     1       5.409   4.823  18.886  0.00  0.00    +0.000 A 
BRANCH   7  14
ATOM     13  O   UNL     1       8.291   6.915  18.796  0.00  0.00    +0.000 OA
ATOM     14  N   UNL     1       7.600   5.964  19.178  0.00  0.00    +0.000 N 
ATOM     15  O   UNL     1       7.784   5.332  20.229  0.00  0.00    +0.000 OA
ENDBRANCH   7  14
ENDBRANCH   1  11
BRANCH   6  16
ATOM     16  C   UNL     1       2.551   5.909  20.332  0.00  0.00    +0.000 C 
BRANCH  16  17
ATOM     17  C   UNL     1       2.171   7.151  19.509  0.00  0.00    +0.000 C 
BRANCH  17  18
ATOM     18  C   UNL     1       1.621   8.272  20.345  0.00  0.00    +0.000 C 
ATOM     19  N   UNL     1       1.038   9.311  19.809  0.00  0.00    +0.000 NA
ATOM     20  C   UNL     1       0.721  10.183  20.981  0.00  0.00    +0.000 C 
ATOM     21  C   UNL     1       0.868   9.300  22.226  0.00  0.00    +0.000 C 
ATOM     22  N   UNL     1       1.717   8.253  21.713  0.00  0.00    +0.000 N 
ATOM     23  H   UNL     1       1.731   7.361  22.192  0.00  0.00    +0.000 HD
ENDBRANCH  17  18
ENDBRANCH  16  17
ENDBRANCH   6  16
TORSDOF 5
ENDMDL
MODEL 8
REMARK VINA RESULT:      -8.0      1.985      2.428
REMARK  Name = 
REMARK  5 active torsions:
REMARK  status: ('A' for Active; 'I' for Inactive)
REMARK    1  A    between atoms: N_2  and  C_4
REMARK    2  A    between atoms: C_8  and  C_9
REMARK    3  A    between atoms: C_14  and  C_15
REMARK    4  A    between atoms: C_15  and  C_16
REMARK    5  A    between atoms: C_16  and  C_17
REMARK                            x       y       z     vdW  Elec       q    Type
REMARK                         _______ _______ _______ _____ _____    ______ ____
ROOT
ATOM      1  C   UNL     1       3.504   3.600  17.993  0.00  0.00    +0.000 A 
ATOM      2  C   UNL     1       3.439   2.205  18.266  0.00  0.00    +0.000 A 
ATOM      3  C   UNL     1       2.274   1.557  18.667  0.00  0.00    +0.000 A 
ATOM      4  C   UNL     1       1.110   2.284  18.788  0.00  0.00    +0.000 A 
ATOM      5  C   UNL     1       1.123   3.651  18.518  0.00  0.00    +0.000 A 
ATOM      6  C   UNL     1       2.301   4.348  18.144  0.00  0.00    +0.000 A 
ENDROOT
BRANCH   1  11
ATOM      7  C   UNL     1       6.892   5.362  17.851  0.00  0.00    +0.000 A 
ATOM      8  C   UNL     1       7.085   5.502  16.472  0.00  0.00    +0.000 A 
ATOM      9  C   UNL     1       6.179   4.910  15.604  0.00  0.00    +0.000 A 
ATOM     10  C   UNL     1       5.082   4.207  16.119  0.00  0.00    +0.000 A 
ATOM     11  C   UNL     1       4.825   4.107  17.508  0.00  0.00    +0.000 A 
ATOM     12  C   UNL     1       5.776   4.673  18.368  0.00  0.00    +0.000 A 
BRANCH   7  14
ATOM     13  O   UNL     1       8.182   7.163  18.534  0.00  0.00    +0.000 OA
ATOM     14  N   UNL     1       7.842   5.998  18.772  0.00  0.00    +0.000 N 
ATOM     15  O   UNL     1       8.247   5.325  19.731  0.00  0.00    +0.000 OA
ENDBRANCH   7  14
ENDBRANCH   1  11
BRANCH   6  16
ATOM     16  C   UNL     1       2.190   5.850  17.873  0.00  0.00    +0.000 C 
BRANCH  16  17
ATOM     17  C   UNL     1       2.646   6.759  19.026  0.00  0.00    +0.000 C 
BRANCH  17  18
ATOM     18  C   UNL     1       2.035   8.130  18.978  0.00  0.00    +0.000 C 
ATOM     19  N   UNL     1       1.416   8.648  20.006  0.00  0.00    +0.000 NA
ATOM     20  C   UNL     1       0.918   9.961  19.497  0.00  0.00    +0.000 C 
ATOM     21  C   UNL     1       1.678  10.233  18.194  0.00  0.00    +0.000 C 
ATOM     22  N   UNL     1       2.093   8.897  17.842  0.00  0.00    +0.000 N 
ATOM     23  H   UNL     1       2.878   8.783  17.212  0.00  0.00    +0.000 HD
ENDBRANCH  17  18
ENDBRANCH  16  17
ENDBRANCH   6  16
TORSDOF 5
ENDMDL
MODEL 9
REMARK VINA RESULT:      -7.9      3.664      6.395
REMARK  Name = 
REMARK  5 active torsions:
REMARK  status: ('A' for Active; 'I' for Inactive)
REMARK    1  A    between atoms: N_2  and  C_4
REMARK    2  A    between atoms: C_8  and  C_9
REMARK    3  A    between atoms: C_14  and  C_15
REMARK    4  A    between atoms: C_15  and  C_16
REMARK    5  A    between atoms: C_16  and  C_17
REMARK                            x       y       z     vdW  Elec       q    Type
REMARK                         _______ _______ _______ _____ _____    ______ ____
ROOT
ATOM      1  C   UNL     1       2.944   5.408  18.406  0.00  0.00    +0.000 A 
ATOM      2  C   UNL     1       1.864   4.580  17.989  0.00  0.00    +0.000 A 
ATOM      3  C   UNL     1       2.007   3.228  17.689  0.00  0.00    +0.000 A 
ATOM      4  C   UNL     1       3.246   2.640  17.822  0.00  0.00    +0.000 A 
ATOM      5  C   UNL     1       4.330   3.409  18.240  0.00  0.00    +0.000 A 
ATOM      6  C   UNL     1       4.225   4.797  18.517  0.00  0.00    +0.000 A 
ENDROOT
BRANCH   1  11
ATOM      7  C   UNL     1       1.493   8.459  20.191  0.00  0.00    +0.000 A 
ATOM      8  C   UNL     1       1.463   9.408  19.162  0.00  0.00    +0.000 A 
ATOM      9  C   UNL     1       2.034   9.086  17.938  0.00  0.00    +0.000 A 
ATOM     10  C   UNL     1       2.603   7.821  17.748  0.00  0.00    +0.000 A 
ATOM     11  C   UNL     1       2.586   6.819  18.749  0.00  0.00    +0.000 A 
ATOM     12  C   UNL     1       2.047   7.178  19.992  0.00  0.00    +0.000 A 
BRANCH   7  14
ATOM     13  O   UNL     1       1.579   9.377  22.318  0.00  0.00    +0.000 OA
ATOM     14  N   UNL     1       0.880   8.791  21.483  0.00  0.00    +0.000 N 
ATOM     15  O   UNL     1      -0.302   8.460  21.658  0.00  0.00    +0.000 OA
ENDBRANCH   7  14
ENDBRANCH   1  11
BRANCH   6  16
ATOM     16  C   UNL     1       5.487   5.534  18.969  0.00  0.00    +0.000 C 
BRANCH  16  17
ATOM     17  C   UNL     1       6.120   6.457  17.915  0.00  0.00    +0.000 C 
BRANCH  17  18
ATOM     18  C   UNL     1       6.304   5.795  16.579  0.00  0.00    +0.000 C 
ATOM     19  N   UNL     1       7.265   4.938  16.359  0.00  0.00    +0.000 NA
ATOM     20  C   UNL     1       7.114   4.599  14.912  0.00  0.00    +0.000 C 
ATOM     21  C   UNL     1       5.723   5.092  14.498  0.00  0.00    +0.000 C 
ATOM     22  N   UNL     1       5.469   6.071  15.526  0.00  0.00    +0.000 N 
ATOM     23  H   UNL     1       4.511   6.338  15.716  0.00  0.00    +0.000 HD
ENDBRANCH  17  18
ENDBRANCH  16  17
ENDBRANCH   6  16
TORSDOF 5
ENDMDL
