MODEL 1
REMARK VINA RESULT:      -8.2      0.000      0.000
REMARK  Name = 
REMARK  5 active torsions:
REMARK  status: ('A' for Active; 'I' for Inactive)
REMARK    1  A    between atoms: C_4  and  N_5
REMARK    2  A    between atoms: N_8  and  C_9
REMARK    3  A    between atoms: C_9  and  C_10
REMARK    4  A    between atoms: C_10  and  O_11
REMARK    5  A    between atoms: O_11  and  C_12
REMARK                            x       y       z     vdW  Elec       q    Type
REMARK                         _______ _______ _______ _____ _____    ______ ____
ROOT
ATOM      1  C   UNL     1       6.892   8.057  17.713  0.00  0.00    +0.000 C 
ENDROOT
BRANCH   1   5
ATOM      2  N   UNL     1       4.432   5.462  18.211  0.00  0.00    +0.000 N 
ATOM      3  C   UNL     1       5.710   5.461  18.934  0.00  0.00    +0.000 C 
ATOM      4  C   UNL     1       6.898   5.596  17.957  0.00  0.00    +0.000 C 
ATOM      5  N   UNL     1       6.809   6.752  17.028  0.00  0.00    +0.000 NA
ATOM      6  C   UNL     1       5.516   6.636  16.302  0.00  0.00    +0.000 C 
ATOM      7  C   UNL     1       4.256   6.517  17.198  0.00  0.00    +0.000 C 
BRANCH   2  11
ATOM      8  C   UNL     1       1.725   2.240  18.437  0.00  0.00    +0.000 A 
ATOM      9  C   UNL     1       1.319   3.526  18.772  0.00  0.00    +0.000 A 
ATOM     10  C   UNL     1       2.226   4.589  18.689  0.00  0.00    +0.000 A 
ATOM     11  C   UNL     1       3.551   4.400  18.270  0.00  0.00    +0.000 A 
ATOM     12  C   UNL     1       3.929   3.093  17.935  0.00  0.00    +0.000 A 
ATOM     13  C   UNL     1       3.030   2.022  18.010  0.00  0.00    +0.000 A 
ENDBRANCH   2  11
ENDBRANCH   1   5
BRANCH   1  14
ATOM     14  C   UNL     1       8.259   8.749  17.606  0.00  0.00    +0.000 C 
BRANCH  14  15
ATOM     15  O   UNL     1       8.695   9.087  18.927  0.00  0.00    +0.000 OA
BRANCH  15  16
ATOM     16  C   UNL     1       9.351  10.279  19.065  0.00  0.00    +0.000 A 
ATOM     17  C   UNL     1       9.520  10.709  20.379  0.00  0.00    +0.000 A 
ATOM     18  C   UNL     1      10.207  11.893  20.657  0.00  0.00    +0.000 A 
ATOM     19  C   UNL     1      10.733  12.673  19.616  0.00  0.00    +0.000 A 
ATOM     20  C   UNL     1      11.465  13.843  19.871  0.00  0.00    +0.000 A 
ATOM     21  C   UNL     1      11.970  14.611  18.821  0.00  0.00    +0.000 A 
ATOM     22  C   UNL     1      11.733  14.230  17.503  0.00  0.00    +0.000 A 
ATOM     23  C   UNL     1      11.014  13.065  17.233  0.00  0.00    +0.000 A 
ATOM     24  C   UNL     1      10.525  12.266  18.279  0.00  0.00    +0.000 A 
ATOM     25  C   UNL     1       9.837  11.067  18.019  0.00  0.00    +0.000 A 
ENDBRANCH  15  16
ENDBRANCH  14  15
ENDBRANCH   1  14
TORSDOF 5
ENDMDL
MODEL 2
REMARK VINA RESULT:      -8.1      1.158      1.869
REMARK  Name = 
REMARK  5 active torsions:
REMARK  status: ('A' for Active; 'I' for Inactive)
REMARK    1  A    between atoms: C_4  and  N_5
REMARK    2  A    between atoms: N_8  and  C_9
REMARK    3  A    between atoms: C_9  and  C_10
REMARK    4  A    between atoms: C_10  and  O_11
REMARK    5  A    between atoms: O_11  and  C_12
REMARK                            x       y       z     vdW  Elec       q    Type
REMARK                         _______ _______ _______ _____ _____    ______ ____
ROOT
ATOM      1  C   UNL     1       7.731   7.087  17.867  0.00  0.00    +0.000 C 
ENDROOT
BRANCH   1   5
ATOM      2  N   UNL     1       4.882   4.900  18.237  0.00  0.00    +0.000 N 
ATOM      3  C   UNL     1       6.222   4.377  17.946  0.00  0.00    +0.000 C 
ATOM      4  C   UNL     1       6.837   5.086  16.720  0.00  0.00    +0.000 C 
ATOM      5  N   UNL     1       6.849   6.569  16.803  0.00  0.00    +0.000 NA
ATOM      6  C   UNL     1       5.448   7.008  17.040  0.00  0.00    +0.000 C 
ATOM      7  C   UNL     1       4.746   6.367  18.265  0.00  0.00    +0.000 C 
BRANCH   2  11
ATOM      8  C   UNL     1       1.437   2.472  18.249  0.00  0.00    +0.000 A 
ATOM      9  C   UNL     1       1.350   3.821  18.570  0.00  0.00    +0.000 A 
ATOM     10  C   UNL     1       2.500   4.619  18.559  0.00  0.00    +0.000 A 
ATOM     11  C   UNL     1       3.758   4.097  18.227  0.00  0.00    +0.000 A 
ATOM     12  C   UNL     1       3.814   2.735  17.903  0.00  0.00    +0.000 A 
ATOM     13  C   UNL     1       2.670   1.928  17.907  0.00  0.00    +0.000 A 
ENDBRANCH   2  11
ENDBRANCH   1   5
BRANCH   1  14
ATOM     14  C   UNL     1       7.954   8.605  17.831  0.00  0.00    +0.000 C 
BRANCH  14  15
ATOM     15  O   UNL     1       8.881   8.947  18.867  0.00  0.00    +0.000 OA
BRANCH  15  16
ATOM     16  C   UNL     1       9.133  10.280  19.043  0.00  0.00    +0.000 A 
ATOM     17  C   UNL     1       9.129  11.038  17.873  0.00  0.00    +0.000 A 
ATOM     18  C   UNL     1       9.337  12.418  17.921  0.00  0.00    +0.000 A 
ATOM     19  C   UNL     1       9.559  13.064  19.147  0.00  0.00    +0.000 A 
ATOM     20  C   UNL     1       9.726  14.455  19.226  0.00  0.00    +0.000 A 
ATOM     21  C   UNL     1       9.957  15.077  20.454  0.00  0.00    +0.000 A 
ATOM     22  C   UNL     1      10.044  14.314  21.615  0.00  0.00    +0.000 A 
ATOM     23  C   UNL     1       9.873  12.931  21.554  0.00  0.00    +0.000 A 
ATOM     24  C   UNL     1       9.610  12.294  20.331  0.00  0.00    +0.000 A 
ATOM     25  C   UNL     1       9.391  10.906  20.264  0.00  0.00    +0.000 A 
ENDBRANCH  15  16
ENDBRANCH  14  15
ENDBRANCH   1  14
TORSDOF 5
ENDMDL
MODEL 3
REMARK VINA RESULT:      -8.0      1.171      1.529
REMARK  Name = 
REMARK  5 active torsions:
REMARK  status: ('A' for Active; 'I' for Inactive)
REMARK    1  A    between atoms: C_4  and  N_5
REMARK    2  A    between atoms: N_8  and  C_9
REMARK    3  A    between atoms: C_9  and  C_10
REMARK    4  A    between atoms: C_10  and  O_11
REMARK    5  A    between atoms: O_11  and  C_12
REMARK                            x       y       z     vdW  Elec       q    Type
REMARK                         _______ _______ _______ _____ _____    ______ ____
ROOT
ATOM      1  C   UNL     1       7.395   7.091  17.284  0.00  0.00    +0.000 C 
ENDROOT
BRANCH   1   5
ATOM      2  N   UNL     1       4.505   5.055  18.018  0.00  0.00    +0.000 N 
ATOM      3  C   UNL     1       5.178   5.843  19.059  0.00  0.00    +0.000 C 
ATOM      4  C   UNL     1       6.693   5.547  19.083  0.00  0.00    +0.000 C 
ATOM      5  N   UNL     1       7.375   5.698  17.773  0.00  0.00    +0.000 NA
ATOM      6  C   UNL     1       6.665   4.824  16.802  0.00  0.00    +0.000 C 
ATOM      7  C   UNL     1       5.136   5.059  16.687  0.00  0.00    +0.000 C 
BRANCH   2  11
ATOM      8  C   UNL     1       1.432   2.295  18.857  0.00  0.00    +0.000 A 
ATOM      9  C   UNL     1       2.354   2.039  17.850  0.00  0.00    +0.000 A 
ATOM     10  C   UNL     1       3.373   2.961  17.583  0.00  0.00    +0.000 A 
ATOM     11  C   UNL     1       3.501   4.153  18.309  0.00  0.00    +0.000 A 
ATOM     12  C   UNL     1       2.559   4.382  19.322  0.00  0.00    +0.000 A 
ATOM     13  C   UNL     1       1.538   3.466  19.601  0.00  0.00    +0.000 A 
ENDBRANCH   2  11
ENDBRANCH   1   5
BRANCH   1  14
ATOM     14  C   UNL     1       8.154   8.075  18.187  0.00  0.00    +0.000 C 
BRANCH  14  15
ATOM     15  O   UNL     1       8.131   9.363  17.564  0.00  0.00    +0.000 OA
BRANCH  15  16
ATOM     16  C   UNL     1       8.714  10.386  18.260  0.00  0.00    +0.000 A 
ATOM     17  C   UNL     1       9.218  10.034  19.511  0.00  0.00    +0.000 A 
ATOM     18  C   UNL     1       9.871  10.979  20.306  0.00  0.00    +0.000 A 
ATOM     19  C   UNL     1      10.025  12.300  19.861  0.00  0.00    +0.000 A 
ATOM     20  C   UNL     1      10.715  13.256  20.622  0.00  0.00    +0.000 A 
ATOM     21  C   UNL     1      10.848  14.570  20.166  0.00  0.00    +0.000 A 
ATOM     22  C   UNL     1      10.275  14.948  18.955  0.00  0.00    +0.000 A 
ATOM     23  C   UNL     1       9.591  14.006  18.184  0.00  0.00    +0.000 A 
ATOM     24  C   UNL     1       9.476  12.675  18.614  0.00  0.00    +0.000 A 
ATOM     25  C   UNL     1       8.828  11.708  17.824  0.00  0.00    +0.000 A 
ENDBRANCH  15  16
ENDBRANCH  14  15
ENDBRANCH   1  14
TORSDOF 5
ENDMDL
MODEL 4
REMARK VINA RESULT:      -8.0      5.670      8.021
REMARK  Name = 
REMARK  5 active torsions:
REMARK  status: ('A' for Active; 'I' for Inactive)
REMARK    1  A    between atoms: C_4  and  N_5
REMARK    2  A    between atoms: N_8  and  C_9
REMARK    3  A    between atoms: C_9  and  C_10
REMARK    4  A    between atoms: C_10  and  O_11
REMARK    5  A    between atoms: O_11  and  C_12
REMARK                            x       y       z     vdW  Elec       q    Type
REMARK                         _______ _______ _______ _____ _____    ______ ____
ROOT
ATOM      1  C   UNL     1       5.037   5.554  19.338  0.00  0.00    +0.000 C 
ENDROOT
BRANCH   1   5
ATOM      2  N   UNL     1       5.913   5.086  15.867  0.00  0.00    +0.000 N 
ATOM      3  C   UNL     1       4.611   4.660  16.397  0.00  0.00    +0.000 C 
ATOM      4  C   UNL     1       4.789   3.768  17.645  0.00  0.00    +0.000 C 
ATOM      5  N   UNL     1       5.636   4.358  18.713  0.00  0.00    +0.000 NA
ATOM      6  C   UNL     1       6.946   4.701  18.099  0.00  0.00    +0.000 C 
ATOM      7  C   UNL     1       6.876   5.615  16.847  0.00  0.00    +0.000 C 
BRANCH   2  11
ATOM      8  C   UNL     1       7.160   4.086  11.967  0.00  0.00    +0.000 A 
ATOM      9  C   UNL     1       6.057   3.461  12.536  0.00  0.00    +0.000 A 
ATOM     10  C   UNL     1       5.650   3.804  13.831  0.00  0.00    +0.000 A 
ATOM     11  C   UNL     1       6.324   4.774  14.585  0.00  0.00    +0.000 A 
ATOM     12  C   UNL     1       7.429   5.391  13.983  0.00  0.00    +0.000 A 
ATOM     13  C   UNL     1       7.843   5.059  12.687  0.00  0.00    +0.000 A 
ENDBRANCH   2  11
ENDBRANCH   1   5
BRANCH   1  14
ATOM     14  C   UNL     1       3.502   5.550  19.384  0.00  0.00    +0.000 C 
BRANCH  14  15
ATOM     15  O   UNL     1       3.025   6.568  18.496  0.00  0.00    +0.000 OA
BRANCH  15  16
ATOM     16  C   UNL     1       2.265   7.557  19.058  0.00  0.00    +0.000 A 
ATOM     17  C   UNL     1       1.831   8.540  18.170  0.00  0.00    +0.000 A 
ATOM     18  C   UNL     1       1.016   9.585  18.611  0.00  0.00    +0.000 A 
ATOM     19  C   UNL     1       0.626   9.666  19.956  0.00  0.00    +0.000 A 
ATOM     20  C   UNL     1      -0.229  10.681  20.414  0.00  0.00    +0.000 A 
ATOM     21  C   UNL     1      -0.597  10.750  21.760  0.00  0.00    +0.000 A 
ATOM     22  C   UNL     1      -0.100   9.818  22.666  0.00  0.00    +0.000 A 
ATOM     23  C   UNL     1       0.744   8.798  22.225  0.00  0.00    +0.000 A 
ATOM     24  C   UNL     1       1.100   8.697  20.870  0.00  0.00    +0.000 A 
ATOM     25  C   UNL     1       1.913   7.648  20.406  0.00  0.00    +0.000 A 
ENDBRANCH  15  16
ENDBRANCH  14  15
ENDBRANCH   1  14
TORSDOF 5
ENDMDL
MODEL 5
REMARK VINA RESULT:      -7.9      5.809      7.773
REMARK  Name = 
REMARK  5 active torsions:
REMARK  status: ('A' for Active; 'I' for Inactive)
REMARK    1  A    between atoms: C_4  and  N_5
REMARK    2  A    between atoms: N_8  and  C_9
REMARK    3  A    between atoms: C_9  and  C_10
REMARK    4  A    between atoms: C_10  and  O_11
REMARK    5  A    between atoms: O_11  and  C_12
REMARK                            x       y       z     vdW  Elec       q    Type
REMARK                         _______ _______ _______ _____ _____    ______ ____
ROOT
ATOM      1  C   UNL     1       5.109   5.350  19.239  0.00  0.00    +0.000 C 
ENDROOT
BRANCH   1   5
ATOM      2  N   UNL     1       5.892   4.857  15.749  0.00  0.00    +0.000 N 
ATOM      3  C   UNL     1       4.687   4.280  16.357  0.00  0.00    +0.000 C 
ATOM      4  C   UNL     1       5.040   3.476  17.626  0.00  0.00    +0.000 C 
ATOM      5  N   UNL     1       5.842   4.221  18.630  0.00  0.00    +0.000 NA
ATOM      6  C   UNL     1       7.063   4.715  17.941  0.00  0.00    +0.000 C 
ATOM      7  C   UNL     1       6.814   5.555  16.662  0.00  0.00    +0.000 C 
BRANCH   2  11
ATOM      8  C   UNL     1       7.107   3.972  11.811  0.00  0.00    +0.000 A 
ATOM      9  C   UNL     1       7.814   4.890  12.577  0.00  0.00    +0.000 A 
ATOM     10  C   UNL     1       7.404   5.173  13.885  0.00  0.00    +0.000 A 
ATOM     11  C   UNL     1       6.288   4.551  14.461  0.00  0.00    +0.000 A 
ATOM     12  C   UNL     1       5.597   3.626  13.666  0.00  0.00    +0.000 A 
ATOM     13  C   UNL     1       6.000   3.332  12.358  0.00  0.00    +0.000 A 
ENDBRANCH   2  11
ENDBRANCH   1   5
BRANCH   1  14
ATOM     14  C   UNL     1       3.812   4.955  19.959  0.00  0.00    +0.000 C 
BRANCH  14  15
ATOM     15  O   UNL     1       2.708   5.317  19.122  0.00  0.00    +0.000 OA
BRANCH  15  16
ATOM     16  C   UNL     1       2.286   6.616  19.200  0.00  0.00    +0.000 A 
ATOM     17  C   UNL     1       2.340   7.325  18.001  0.00  0.00    +0.000 A 
ATOM     18  C   UNL     1       1.902   8.649  17.939  0.00  0.00    +0.000 A 
ATOM     19  C   UNL     1       1.406   9.291  19.084  0.00  0.00    +0.000 A 
ATOM     20  C   UNL     1       0.919  10.606  19.037  0.00  0.00    +0.000 A 
ATOM     21  C   UNL     1       0.440  11.231  20.190  0.00  0.00    +0.000 A 
ATOM     22  C   UNL     1       0.461  10.555  21.407  0.00  0.00    +0.000 A 
ATOM     23  C   UNL     1       0.935   9.244  21.469  0.00  0.00    +0.000 A 
ATOM     24  C   UNL     1       1.392   8.592  20.312  0.00  0.00    +0.000 A 
ATOM     25  C   UNL     1       1.830   7.256  20.354  0.00  0.00    +0.000 A 
ENDBRANCH  15  16
ENDBRANCH  14  15
ENDBRANCH   1  14
TORSDOF 5
ENDMDL
MODEL 6
REMARK VINA RESULT:      -7.7      5.723      7.649
REMARK  Name = 
REMARK  5 active torsions:
REMARK  status: ('A' for Active; 'I' for Inactive)
REMARK    1  A    between atoms: C_4  and  N_5
REMARK    2  A    between atoms: N_8  and  C_9
REMARK    3  A    between atoms: C_9  and  C_10
REMARK    4  A    between atoms: C_10  and  O_11
REMARK    5  A    between atoms: O_11  and  C_12
REMARK                            x       y       z     vdW  Elec       q    Type
REMARK                         _______ _______ _______ _____ _____    ______ ____
ROOT
ATOM      1  C   UNL     1       5.408   5.530  19.160  0.00  0.00    +0.000 C 
ENDROOT
BRANCH   1   5
ATOM      2  N   UNL     1       6.019   4.969  15.646  0.00  0.00    +0.000 N 
ATOM      3  C   UNL     1       4.818   4.448  16.313  0.00  0.00    +0.000 C 
ATOM      4  C   UNL     1       5.194   3.643  17.576  0.00  0.00    +0.000 C 
ATOM      5  N   UNL     1       6.067   4.366  18.535  0.00  0.00    +0.000 NA
ATOM      6  C   UNL     1       7.277   4.802  17.788  0.00  0.00    +0.000 C 
ATOM      7  C   UNL     1       7.006   5.639  16.510  0.00  0.00    +0.000 C 
BRANCH   2  11
ATOM      8  C   UNL     1       7.005   3.893  11.692  0.00  0.00    +0.000 A 
ATOM      9  C   UNL     1       5.909   3.321  12.326  0.00  0.00    +0.000 A 
ATOM     10  C   UNL     1       5.589   3.689  13.638  0.00  0.00    +0.000 A 
ATOM     11  C   UNL     1       6.345   4.632  14.347  0.00  0.00    +0.000 A 
ATOM     12  C   UNL     1       7.442   5.195  13.680  0.00  0.00    +0.000 A 
ATOM     13  C   UNL     1       7.770   4.839  12.367  0.00  0.00    +0.000 A 
ENDBRANCH   2  11
ENDBRANCH   1   5
BRANCH   1  14
ATOM     14  C   UNL     1       3.992   5.255  19.687  0.00  0.00    +0.000 C 
BRANCH  14  15
ATOM     15  O   UNL     1       3.054   5.822  18.766  0.00  0.00    +0.000 OA
BRANCH  15  16
ATOM     16  C   UNL     1       2.374   6.929  19.194  0.00  0.00    +0.000 A 
ATOM     17  C   UNL     1       1.879   6.848  20.495  0.00  0.00    +0.000 A 
ATOM     18  C   UNL     1       1.197   7.926  21.063  0.00  0.00    +0.000 A 
ATOM     19  C   UNL     1       0.994   9.107  20.333  0.00  0.00    +0.000 A 
ATOM     20  C   UNL     1       0.352  10.220  20.898  0.00  0.00    +0.000 A 
ATOM     21  C   UNL     1       0.149  11.381  20.150  0.00  0.00    +0.000 A 
ATOM     22  C   UNL     1       0.569  11.438  18.824  0.00  0.00    +0.000 A 
ATOM     23  C   UNL     1       1.216  10.342  18.250  0.00  0.00    +0.000 A 
ATOM     24  C   UNL     1       1.453   9.178  18.998  0.00  0.00    +0.000 A 
ATOM     25  C   UNL     1       2.144   8.085  18.445  0.00  0.00    +0.000 A 
ENDBRANCH  15  16
ENDBRANCH  14  15
ENDBRANCH   1  14
TORSDOF 5
ENDMDL
MODEL 7
REMARK VINA RESULT:      -7.7      1.005      1.753
REMARK  Name = 
REMARK  5 active torsions:
REMARK  status: ('A' for Active; 'I' for Inactive)
REMARK    1  A    between atoms: C_4  and  N_5
REMARK    2  A    between atoms: N_8  and  C_9
REMARK    3  A    between atoms: C_9  and  C_10
REMARK    4  A    between atoms: C_10  and  O_11
REMARK    5  A    between atoms: O_11  and  C_12
REMARK                            x       y       z     vdW  Elec       q    Type
REMARK                         _______ _______ _______ _____ _____    ______ ____
ROOT
ATOM      1  C   UNL     1       6.592   7.807  17.755  0.00  0.00    +0.000 C 
ENDROOT
BRANCH   1   5
ATOM      2  N   UNL     1       3.897   5.624  18.761  0.00  0.00    +0.000 N 
ATOM      3  C   UNL     1       5.251   5.482  19.312  0.00  0.00    +0.000 C 
ATOM      4  C   UNL     1       6.300   5.389  18.183  0.00  0.00    +0.000 C 
ATOM      5  N   UNL     1       6.240   6.490  17.188  0.00  0.00    +0.000 NA
ATOM      6  C   UNL     1       4.856   6.519  16.644  0.00  0.00    +0.000 C 
ATOM      7  C   UNL     1       3.726   6.633  17.702  0.00  0.00    +0.000 C 
BRANCH   2  11
ATOM      8  C   UNL     1       0.833   2.822  19.484  0.00  0.00    +0.000 A 
ATOM      9  C   UNL     1       1.605   2.741  18.331  0.00  0.00    +0.000 A 
ATOM     10  C   UNL     1       2.622   3.675  18.104  0.00  0.00    +0.000 A 
ATOM     11  C   UNL     1       2.898   4.705  19.014  0.00  0.00    +0.000 A 
ATOM     12  C   UNL     1       2.107   4.758  20.169  0.00  0.00    +0.000 A 
ATOM     13  C   UNL     1       1.089   3.827  20.410  0.00  0.00    +0.000 A 
ENDBRANCH   2  11
ENDBRANCH   1   5
BRANCH   1  14
ATOM     14  C   UNL     1       8.044   8.241  17.510  0.00  0.00    +0.000 C 
BRANCH  14  15
ATOM     15  O   UNL     1       8.550   8.813  18.721  0.00  0.00    +0.000 OA
BRANCH  15  16
ATOM     16  C   UNL     1       9.020  10.095  18.637  0.00  0.00    +0.000 A 
ATOM     17  C   UNL     1       8.305  10.929  17.780  0.00  0.00    +0.000 A 
ATOM     18  C   UNL     1       8.661  12.272  17.634  0.00  0.00    +0.000 A 
ATOM     19  C   UNL     1       9.750  12.801  18.344  0.00  0.00    +0.000 A 
ATOM     20  C   UNL     1      10.100  14.157  18.248  0.00  0.00    +0.000 A 
ATOM     21  C   UNL     1      11.194  14.663  18.954  0.00  0.00    +0.000 A 
ATOM     22  C   UNL     1      11.962  13.815  19.747  0.00  0.00    +0.000 A 
ATOM     23  C   UNL     1      11.622  12.466  19.859  0.00  0.00    +0.000 A 
ATOM     24  C   UNL     1      10.507  11.949  19.179  0.00  0.00    +0.000 A 
ATOM     25  C   UNL     1      10.129  10.602  19.319  0.00  0.00    +0.000 A 
ENDBRANCH  15  16
ENDBRANCH  14  15
ENDBRANCH   1  14
TORSDOF 5
ENDMDL
MODEL 8
REMARK VINA RESULT:      -7.7      1.020      1.922
REMARK  Name = 
REMARK  5 active torsions:
REMARK  status: ('A' for Active; 'I' for Inactive)
REMARK    1  A    between atoms: C_4  and  N_5
REMARK    2  A    between atoms: N_8  and  C_9
REMARK    3  A    between atoms: C_9  and  C_10
REMARK    4  A    between atoms: C_10  and  O_11
REMARK    5  A    between atoms: O_11  and  C_12
REMARK                            x       y       z     vdW  Elec       q    Type
REMARK                         _______ _______ _______ _____ _____    ______ ____
ROOT
ATOM      1  C   UNL     1       7.117   8.256  17.786  0.00  0.00    +0.000 C 
ENDROOT
BRANCH   1   5
ATOM      2  N   UNL     1       5.050   5.340  18.300  0.00  0.00    +0.000 N 
ATOM      3  C   UNL     1       6.348   5.492  18.969  0.00  0.00    +0.000 C 
ATOM      4  C   UNL     1       7.461   5.812  17.948  0.00  0.00    +0.000 C 
ATOM      5  N   UNL     1       7.177   6.970  17.063  0.00  0.00    +0.000 NA
ATOM      6  C   UNL     1       5.880   6.701  16.387  0.00  0.00    +0.000 C 
ATOM      7  C   UNL     1       4.688   6.389  17.331  0.00  0.00    +0.000 C 
BRANCH   2  11
ATOM      8  C   UNL     1       2.784   1.790  18.477  0.00  0.00    +0.000 A 
ATOM      9  C   UNL     1       2.546   2.730  17.482  0.00  0.00    +0.000 A 
ATOM     10  C   UNL     1       3.307   3.904  17.430  0.00  0.00    +0.000 A 
ATOM     11  C   UNL     1       4.321   4.168  18.361  0.00  0.00    +0.000 A 
ATOM     12  C   UNL     1       4.542   3.200  19.350  0.00  0.00    +0.000 A 
ATOM     13  C   UNL     1       3.790   2.021  19.410  0.00  0.00    +0.000 A 
ENDBRANCH   2  11
ENDBRANCH   1   5
BRANCH   1  14
ATOM     14  C   UNL     1       8.376   9.124  17.651  0.00  0.00    +0.000 C 
BRANCH  14  15
ATOM     15  O   UNL     1       8.936   9.306  18.956  0.00  0.00    +0.000 OA
BRANCH  15  16
ATOM     16  C   UNL     1       9.422  10.553  19.241  0.00  0.00    +0.000 A 
ATOM     17  C   UNL     1      10.176  11.136  18.224  0.00  0.00    +0.000 A 
ATOM     18  C   UNL     1      10.699  12.422  18.375  0.00  0.00    +0.000 A 
ATOM     19  C   UNL     1      10.479  13.146  19.556  0.00  0.00    +0.000 A 
ATOM     20  C   UNL     1      10.956  14.457  19.715  0.00  0.00    +0.000 A 
ATOM     21  C   UNL     1      10.736  15.157  20.903  0.00  0.00    +0.000 A 
ATOM     22  C   UNL     1      10.055  14.548  21.954  0.00  0.00    +0.000 A 
ATOM     23  C   UNL     1       9.568  13.248  21.809  0.00  0.00    +0.000 A 
ATOM     24  C   UNL     1       9.755  12.542  20.609  0.00  0.00    +0.000 A 
ATOM     25  C   UNL     1       9.230  11.250  20.436  0.00  0.00    +0.000 A 
ENDBRANCH  15  16
ENDBRANCH  14  15
ENDBRANCH   1  14
TORSDOF 5
ENDMDL
MODEL 9
REMARK VINA RESULT:      -7.7      0.984      1.083
REMARK  Name = 
REMARK  5 active torsions:
REMARK  status: ('A' for Active; 'I' for Inactive)
REMARK    1  A    between atoms: C_4  and  N_5
REMARK    2  A    between atoms: N_8  and  C_9
REMARK    3  A    between atoms: C_9  and  C_10
REMARK    4  A    between atoms: C_10  and  O_11
REMARK    5  A    between atoms: O_11  and  C_12
REMARK                            x       y       z     vdW  Elec       q    Type
REMARK                         _______ _______ _______ _____ _____    ______ ____
ROOT
ATOM      1  C   UNL     1       6.947   7.998  17.533  0.00  0.00    +0.000 C 
ENDROOT
BRANCH   1   5
ATOM      2  N   UNL     1       4.485   5.421  18.109  0.00  0.00    +0.000 N 
ATOM      3  C   UNL     1       5.723   5.494  18.896  0.00  0.00    +0.000 C 
ATOM      4  C   UNL     1       6.959   5.565  17.974  0.00  0.00    +0.000 C 
ATOM      5  N   UNL     1       6.910   6.642  16.952  0.00  0.00    +0.000 NA
ATOM      6  C   UNL     1       5.659   6.452  16.171  0.00  0.00    +0.000 C 
ATOM      7  C   UNL     1       4.354   6.389  17.007  0.00  0.00    +0.000 C 
BRANCH   2  11
ATOM      8  C   UNL     1       1.792   2.196  18.450  0.00  0.00    +0.000 A 
ATOM      9  C   UNL     1       1.338   3.506  18.539  0.00  0.00    +0.000 A 
ATOM     10  C   UNL     1       2.241   4.569  18.421  0.00  0.00    +0.000 A 
ATOM     11  C   UNL     1       3.610   4.356  18.208  0.00  0.00    +0.000 A 
ATOM     12  C   UNL     1       4.038   3.025  18.117  0.00  0.00    +0.000 A 
ATOM     13  C   UNL     1       3.144   1.953  18.230  0.00  0.00    +0.000 A 
ENDBRANCH   2  11
ENDBRANCH   1   5
BRANCH   1  14
ATOM     14  C   UNL     1       8.295   8.392  18.153  0.00  0.00    +0.000 C 
BRANCH  14  15
ATOM     15  O   UNL     1       8.758   9.580  17.502  0.00  0.00    +0.000 OA
BRANCH  15  16
ATOM     16  C   UNL     1       9.100  10.625  18.315  0.00  0.00    +0.000 A 
ATOM     17  C   UNL     1       9.327  10.285  19.647  0.00  0.00    +0.000 A 
ATOM     18  C   UNL     1       9.719  11.255  20.572  0.00  0.00    +0.000 A 
ATOM     19  C   UNL     1       9.885  12.591  20.176  0.00  0.00    +0.000 A 
ATOM     20  C   UNL     1      10.321  13.576  21.076  0.00  0.00    +0.000 A 
ATOM     21  C   UNL     1      10.469  14.902  20.666  0.00  0.00    +0.000 A 
ATOM     22  C   UNL     1      10.164  15.263  19.356  0.00  0.00    +0.000 A 
ATOM     23  C   UNL     1       9.736  14.294  18.447  0.00  0.00    +0.000 A 
ATOM     24  C   UNL     1       9.612  12.951  18.837  0.00  0.00    +0.000 A 
ATOM     25  C   UNL     1       9.225  11.959  17.918  0.00  0.00    +0.000 A 
ENDBRANCH  15  16
ENDBRANCH  14  15
ENDBRANCH   1  14
TORSDOF 5
ENDMDL
