MODEL 1
REMARK VINA RESULT:      -6.9      0.000      0.000
REMARK  Name = 
REMARK  11 active torsions:
REMARK  status: ('A' for Active; 'I' for Inactive)
REMARK    1  A    between atoms: C_1  and  O_2
REMARK    2  A    between atoms: O_2  and  C_3
REMARK    3  A    between atoms: C_3  and  C_4
REMARK    4  A    between atoms: C_4  and  O_5
REMARK    5  A    between atoms: O_5  and  C_6
REMARK    6  A    between atoms: C_15  and  C_16
REMARK    7  A    between atoms: C_27  and  O_28
REMARK    8  A    between atoms: O_28  and  C_29
REMARK    9  A    between atoms: C_29  and  C_30
REMARK   10  A    between atoms: C_30  and  O_31
REMARK   11  A    between atoms: O_31  and  C_32
REMARK                            x       y       z     vdW  Elec       q    Type
REMARK                         _______ _______ _______ _____ _____    ______ ____
ROOT
ATOM      1  C   UNL     1       6.040   4.590  15.789  0.00  0.00    +0.000 A 
ATOM      2  C   UNL     1       5.494   3.346  16.164  0.00  0.00    +0.000 A 
ATOM      3  C   UNL     1       4.508   3.188  17.137  0.00  0.00    +0.000 A 
ATOM      4  N   UNL     1       4.105   1.937  17.395  0.00  0.00    +0.000 NA
ATOM      5  C   UNL     1       3.193   1.768  18.353  0.00  0.00    +0.000 A 
ATOM      6  N   UNL     1       2.643   2.734  19.085  0.00  0.00    +0.000 NA
ATOM      7  C   UNL     1       3.027   4.012  18.799  0.00  0.00    +0.000 A 
ATOM      8  N   UNL     1       2.351   5.042  19.552  0.00  0.00    +0.000 N 
ATOM      9  N   UNL     1       2.505   6.368  19.341  0.00  0.00    +0.000 NA
ATOM     10  C   UNL     1       1.654   6.937  20.203  0.00  0.00    +0.000 A 
ATOM     11  N   UNL     1       0.986   6.036  21.006  0.00  0.00    +0.000 NA
ATOM     12  C   UNL     1       1.411   4.870  20.588  0.00  0.00    +0.000 A 
ATOM     13  N   UNL     1       0.998   3.690  21.080  0.00  0.00    +0.000 N 
ATOM     14  C   UNL     1       4.002   4.312  17.803  0.00  0.00    +0.000 A 
ATOM     15  C   UNL     1       4.532   5.575  17.391  0.00  0.00    +0.000 A 
ATOM     16  C   UNL     1       5.488   5.729  16.366  0.00  0.00    +0.000 A 
ATOM     17  H   UNL     1       0.464   3.680  21.941  0.00  0.00    +0.000 HD
ATOM     18  H   UNL     1       1.468   2.824  20.821  0.00  0.00    +0.000 HD
ENDROOT
BRANCH  10  19
ATOM     19  C   UNL     1       1.383   8.381  20.302  0.00  0.00    +0.000 A 
ATOM     20  C   UNL     1       1.364   9.159  19.144  0.00  0.00    +0.000 A 
ATOM     21  C   UNL     1       1.161  10.531  19.252  0.00  0.00    +0.000 A 
ATOM     22  C   UNL     1       0.977  11.094  20.508  0.00  0.00    +0.000 A 
ATOM     23  C   UNL     1       0.996  10.255  21.611  0.00  0.00    +0.000 A 
ATOM     24  N   UNL     1       1.196   8.918  21.537  0.00  0.00    +0.000 NA
ENDBRANCH  10  19
BRANCH   1  25
ATOM     25  O   UNL     1       7.078   4.444  14.906  0.00  0.00    +0.000 OA
BRANCH  25  26
ATOM     26  C   UNL     1       6.881   4.756  13.529  0.00  0.00    +0.000 C 
BRANCH  26  27
ATOM     27  C   UNL     1       6.375   3.589  12.704  0.00  0.00    +0.000 C 
BRANCH  27  29
ATOM     28  C   UNL     1       4.413   3.103  11.457  0.00  0.00    +0.000 C 
ATOM     29  O   UNL     1       4.970   3.815  12.545  0.00  0.00    +0.000 OA
ENDBRANCH  27  29
ENDBRANCH  26  27
ENDBRANCH  25  26
ENDBRANCH   1  25
BRANCH  16  30
ATOM     30  O   UNL     1       5.797   7.041  16.149  0.00  0.00    +0.000 OA
BRANCH  30  31
ATOM     31  C   UNL     1       6.469   7.770  17.172  0.00  0.00    +0.000 C 
BRANCH  31  32
ATOM     32  C   UNL     1       7.708   7.125  17.768  0.00  0.00    +0.000 C 
BRANCH  32  33
ATOM     33  O   UNL     1       8.462   8.058  18.533  0.00  0.00    +0.000 OA
ATOM     34  C   UNL     1       8.279   9.371  18.023  0.00  0.00    +0.000 C 
ENDBRANCH  32  33
ENDBRANCH  31  32
ENDBRANCH  30  31
ENDBRANCH  16  30
TORSDOF 9
ENDMDL
MODEL 2
REMARK VINA RESULT:      -6.6      0.742      1.174
REMARK  Name = 
REMARK  11 active torsions:
REMARK  status: ('A' for Active; 'I' for Inactive)
REMARK    1  A    between atoms: C_1  and  O_2
REMARK    2  A    between atoms: O_2  and  C_3
REMARK    3  A    between atoms: C_3  and  C_4
REMARK    4  A    between atoms: C_4  and  O_5
REMARK    5  A    between atoms: O_5  and  C_6
REMARK    6  A    between atoms: C_15  and  C_16
REMARK    7  A    between atoms: C_27  and  O_28
REMARK    8  A    between atoms: O_28  and  C_29
REMARK    9  A    between atoms: C_29  and  C_30
REMARK   10  A    between atoms: C_30  and  O_31
REMARK   11  A    between atoms: O_31  and  C_32
REMARK                            x       y       z     vdW  Elec       q    Type
REMARK                         _______ _______ _______ _____ _____    ______ ____
ROOT
ATOM      1  C   UNL     1       5.837   4.851  15.608  0.00  0.00    +0.000 A 
ATOM      2  C   UNL     1       5.312   3.584  15.929  0.00  0.00    +0.000 A 
ATOM      3  C   UNL     1       4.372   3.360  16.934  0.00  0.00    +0.000 A 
ATOM      4  N   UNL     1       3.984   2.093  17.133  0.00  0.00    +0.000 NA
ATOM      5  C   UNL     1       3.117   1.860  18.118  0.00  0.00    +0.000 A 
ATOM      6  N   UNL     1       2.600   2.776  18.934  0.00  0.00    +0.000 NA
ATOM      7  C   UNL     1       2.967   4.072  18.711  0.00  0.00    +0.000 A 
ATOM      8  N   UNL     1       2.324   5.049  19.556  0.00  0.00    +0.000 N 
ATOM      9  N   UNL     1       2.465   6.386  19.421  0.00  0.00    +0.000 NA
ATOM     10  C   UNL     1       1.653   6.897  20.354  0.00  0.00    +0.000 A 
ATOM     11  N   UNL     1       1.024   5.944  21.130  0.00  0.00    +0.000 NA
ATOM     12  C   UNL     1       1.433   4.809  20.621  0.00  0.00    +0.000 A 
ATOM     13  N   UNL     1       1.045   3.598  21.057  0.00  0.00    +0.000 N 
ATOM     14  C   UNL     1       3.894   4.438  17.691  0.00  0.00    +0.000 A 
ATOM     15  C   UNL     1       4.402   5.727  17.336  0.00  0.00    +0.000 A 
ATOM     16  C   UNL     1       5.310   5.949  16.279  0.00  0.00    +0.000 A 
ATOM     17  H   UNL     1       0.551   3.532  21.939  0.00  0.00    +0.000 HD
ATOM     18  H   UNL     1       1.505   2.752  20.724  0.00  0.00    +0.000 HD
ENDROOT
BRANCH  10  19
ATOM     19  C   UNL     1       1.383   8.330  20.556  0.00  0.00    +0.000 A 
ATOM     20  C   UNL     1       1.183   8.818  21.849  0.00  0.00    +0.000 A 
ATOM     21  C   UNL     1       0.875  10.162  22.026  0.00  0.00    +0.000 A 
ATOM     22  C   UNL     1       0.779  10.990  20.915  0.00  0.00    +0.000 A 
ATOM     23  C   UNL     1       1.005  10.436  19.665  0.00  0.00    +0.000 A 
ATOM     24  N   UNL     1       1.301   9.131  19.461  0.00  0.00    +0.000 NA
ENDBRANCH  10  19
BRANCH   1  25
ATOM     25  O   UNL     1       6.835   4.766  14.671  0.00  0.00    +0.000 OA
BRANCH  25  26
ATOM     26  C   UNL     1       6.860   3.664  13.768  0.00  0.00    +0.000 C 
BRANCH  26  27
ATOM     27  C   UNL     1       6.494   4.031  12.344  0.00  0.00    +0.000 C 
BRANCH  27  29
ATOM     28  C   UNL     1       4.401   3.203  11.586  0.00  0.00    +0.000 C 
ATOM     29  O   UNL     1       5.762   2.910  11.837  0.00  0.00    +0.000 OA
ENDBRANCH  27  29
ENDBRANCH  26  27
ENDBRANCH  25  26
ENDBRANCH   1  25
BRANCH  16  30
ATOM     30  O   UNL     1       5.605   7.274  16.130  0.00  0.00    +0.000 OA
BRANCH  30  31
ATOM     31  C   UNL     1       6.367   7.929  17.141  0.00  0.00    +0.000 C 
BRANCH  31  32
ATOM     32  C   UNL     1       7.782   7.424  17.363  0.00  0.00    +0.000 C 
BRANCH  32  33
ATOM     33  O   UNL     1       8.023   7.142  18.736  0.00  0.00    +0.000 OA
ATOM     34  C   UNL     1       7.801   5.764  18.999  0.00  0.00    +0.000 C 
ENDBRANCH  32  33
ENDBRANCH  31  32
ENDBRANCH  30  31
ENDBRANCH  16  30
TORSDOF 9
ENDMDL
MODEL 3
REMARK VINA RESULT:      -6.5      6.680     10.058
REMARK  Name = 
REMARK  11 active torsions:
REMARK  status: ('A' for Active; 'I' for Inactive)
REMARK    1  A    between atoms: C_1  and  O_2
REMARK    2  A    between atoms: O_2  and  C_3
REMARK    3  A    between atoms: C_3  and  C_4
REMARK    4  A    between atoms: C_4  and  O_5
REMARK    5  A    between atoms: O_5  and  C_6
REMARK    6  A    between atoms: C_15  and  C_16
REMARK    7  A    between atoms: C_27  and  O_28
REMARK    8  A    between atoms: O_28  and  C_29
REMARK    9  A    between atoms: C_29  and  C_30
REMARK   10  A    between atoms: C_30  and  O_31
REMARK   11  A    between atoms: O_31  and  C_32
REMARK                            x       y       z     vdW  Elec       q    Type
REMARK                         _______ _______ _______ _____ _____    ______ ____
ROOT
ATOM      1  C   UNL     1      -0.050  10.348  18.943  0.00  0.00    +0.000 A 
ATOM      2  C   UNL     1      -0.654  10.114  17.692  0.00  0.00    +0.000 A 
ATOM      3  C   UNL     1      -1.947  10.518  17.362  0.00  0.00    +0.000 A 
ATOM      4  N   UNL     1      -2.387  10.204  16.136  0.00  0.00    +0.000 NA
ATOM      5  C   UNL     1      -3.636  10.548  15.822  0.00  0.00    +0.000 A 
ATOM      6  N   UNL     1      -4.496  11.176  16.621  0.00  0.00    +0.000 NA
ATOM      7  C   UNL     1      -4.037  11.528  17.858  0.00  0.00    +0.000 A 
ATOM      8  N   UNL     1      -4.965  12.281  18.668  0.00  0.00    +0.000 N 
ATOM      9  N   UNL     1      -4.666  12.817  19.872  0.00  0.00    +0.000 NA
ATOM     10  C   UNL     1      -5.779  13.473  20.223  0.00  0.00    +0.000 A 
ATOM     11  N   UNL     1      -6.813  13.343  19.318  0.00  0.00    +0.000 NA
ATOM     12  C   UNL     1      -6.297  12.619  18.356  0.00  0.00    +0.000 A 
ATOM     13  N   UNL     1      -6.952  12.263  17.238  0.00  0.00    +0.000 N 
ATOM     14  C   UNL     1      -2.723  11.204  18.305  0.00  0.00    +0.000 A 
ATOM     15  C   UNL     1      -2.091  11.472  19.561  0.00  0.00    +0.000 A 
ATOM     16  C   UNL     1      -0.763  11.109  19.864  0.00  0.00    +0.000 A 
ATOM     17  H   UNL     1      -7.956  12.399  17.197  0.00  0.00    +0.000 HD
ATOM     18  H   UNL     1      -6.554  11.581  16.596  0.00  0.00    +0.000 HD
ENDROOT
BRANCH  10  19
ATOM     19  C   UNL     1      -5.933  14.304  21.429  0.00  0.00    +0.000 A 
ATOM     20  C   UNL     1      -5.223  15.501  21.534  0.00  0.00    +0.000 A 
ATOM     21  C   UNL     1      -5.332  16.254  22.698  0.00  0.00    +0.000 A 
ATOM     22  C   UNL     1      -6.147  15.800  23.727  0.00  0.00    +0.000 A 
ATOM     23  C   UNL     1      -6.831  14.608  23.543  0.00  0.00    +0.000 A 
ATOM     24  N   UNL     1      -6.741  13.853  22.424  0.00  0.00    +0.000 NA
ENDBRANCH  10  19
BRANCH   1  25
ATOM     25  O   UNL     1       1.173   9.734  19.041  0.00  0.00    +0.000 OA
BRANCH  25  26
ATOM     26  C   UNL     1       1.851   9.325  17.857  0.00  0.00    +0.000 C 
BRANCH  26  27
ATOM     27  C   UNL     1       2.585   8.006  17.998  0.00  0.00    +0.000 C 
BRANCH  27  29
ATOM     28  C   UNL     1       2.713   6.211  19.548  0.00  0.00    +0.000 C 
ATOM     29  O   UNL     1       2.282   7.539  19.317  0.00  0.00    +0.000 OA
ENDBRANCH  27  29
ENDBRANCH  26  27
ENDBRANCH  25  26
ENDBRANCH   1  25
BRANCH  16  30
ATOM     30  O   UNL     1      -0.397  11.514  21.116  0.00  0.00    +0.000 OA
BRANCH  30  31
ATOM     31  C   UNL     1      -1.364  12.154  21.944  0.00  0.00    +0.000 C 
BRANCH  31  32
ATOM     32  C   UNL     1      -1.746  11.437  23.227  0.00  0.00    +0.000 C 
BRANCH  32  33
ATOM     33  O   UNL     1      -3.094  11.706  23.590  0.00  0.00    +0.000 OA
ATOM     34  C   UNL     1      -3.288  13.103  23.755  0.00  0.00    +0.000 C 
ENDBRANCH  32  33
ENDBRANCH  31  32
ENDBRANCH  30  31
ENDBRANCH  16  30
TORSDOF 9
ENDMDL
MODEL 4
REMARK VINA RESULT:      -6.4      8.018     10.899
REMARK  Name = 
REMARK  11 active torsions:
REMARK  status: ('A' for Active; 'I' for Inactive)
REMARK    1  A    between atoms: C_1  and  O_2
REMARK    2  A    between atoms: O_2  and  C_3
REMARK    3  A    between atoms: C_3  and  C_4
REMARK    4  A    between atoms: C_4  and  O_5
REMARK    5  A    between atoms: O_5  and  C_6
REMARK    6  A    between atoms: C_15  and  C_16
REMARK    7  A    between atoms: C_27  and  O_28
REMARK    8  A    between atoms: O_28  and  C_29
REMARK    9  A    between atoms: C_29  and  C_30
REMARK   10  A    between atoms: C_30  and  O_31
REMARK   11  A    between atoms: O_31  and  C_32
REMARK                            x       y       z     vdW  Elec       q    Type
REMARK                         _______ _______ _______ _____ _____    ______ ____
ROOT
ATOM      1  C   UNL     1      -3.060  10.133  16.755  0.00  0.00    +0.000 A 
ATOM      2  C   UNL     1      -1.710  10.152  17.157  0.00  0.00    +0.000 A 
ATOM      3  C   UNL     1      -1.252  10.760  18.325  0.00  0.00    +0.000 A 
ATOM      4  N   UNL     1       0.067  10.710  18.558  0.00  0.00    +0.000 NA
ATOM      5  C   UNL     1       0.523  11.324  19.650  0.00  0.00    +0.000 A 
ATOM      6  N   UNL     1      -0.214  11.991  20.535  0.00  0.00    +0.000 NA
ATOM      7  C   UNL     1      -1.561  12.014  20.317  0.00  0.00    +0.000 A 
ATOM      8  N   UNL     1      -2.340  12.672  21.338  0.00  0.00    +0.000 N 
ATOM      9  N   UNL     1      -3.691  12.704  21.366  0.00  0.00    +0.000 NA
ATOM     10  C   UNL     1      -3.980  13.349  22.502  0.00  0.00    +0.000 A 
ATOM     11  N   UNL     1      -2.869  13.786  23.194  0.00  0.00    +0.000 NA
ATOM     12  C   UNL     1      -1.863  13.351  22.477  0.00  0.00    +0.000 A 
ATOM     13  N   UNL     1      -0.570  13.529  22.795  0.00  0.00    +0.000 N 
ATOM     14  C   UNL     1      -2.160  11.399  19.178  0.00  0.00    +0.000 A 
ATOM     15  C   UNL     1      -3.534  11.344  18.785  0.00  0.00    +0.000 A 
ATOM     16  C   UNL     1      -3.994  10.676  17.630  0.00  0.00    +0.000 A 
ATOM     17  H   UNL     1      -0.334  14.186  23.530  0.00  0.00    +0.000 HD
ATOM     18  H   UNL     1       0.167  13.301  22.130  0.00  0.00    +0.000 HD
ENDROOT
BRANCH  10  19
ATOM     19  C   UNL     1      -5.334  13.567  23.037  0.00  0.00    +0.000 A 
ATOM     20  C   UNL     1      -5.765  14.866  23.312  0.00  0.00    +0.000 A 
ATOM     21  C   UNL     1      -7.025  15.060  23.867  0.00  0.00    +0.000 A 
ATOM     22  C   UNL     1      -7.828  13.957  24.130  0.00  0.00    +0.000 A 
ATOM     23  C   UNL     1      -7.337  12.700  23.817  0.00  0.00    +0.000 A 
ATOM     24  N   UNL     1      -6.113  12.481  23.281  0.00  0.00    +0.000 NA
ENDBRANCH  10  19
BRANCH   1  25
ATOM     25  O   UNL     1      -3.212   9.581  15.509  0.00  0.00    +0.000 OA
BRANCH  25  26
ATOM     26  C   UNL     1      -3.362  10.433  14.376  0.00  0.00    +0.000 C 
BRANCH  26  27
ATOM     27  C   UNL     1      -3.543   9.687  13.069  0.00  0.00    +0.000 C 
BRANCH  27  29
ATOM     28  C   UNL     1      -5.381   9.573  11.569  0.00  0.00    +0.000 C 
ATOM     29  O   UNL     1      -4.957   9.520  12.918  0.00  0.00    +0.000 OA
ENDBRANCH  27  29
ENDBRANCH  26  27
ENDBRANCH  25  26
ENDBRANCH   1  25
BRANCH  16  30
ATOM     30  O   UNL     1      -5.352  10.746  17.508  0.00  0.00    +0.000 OA
BRANCH  30  31
ATOM     31  C   UNL     1      -6.152  10.750  18.688  0.00  0.00    +0.000 C 
BRANCH  31  32
ATOM     32  C   UNL     1      -7.231  11.815  18.778  0.00  0.00    +0.000 C 
BRANCH  32  33
ATOM     33  O   UNL     1      -6.719  13.101  18.453  0.00  0.00    +0.000 OA
ATOM     34  C   UNL     1      -7.650  13.811  17.648  0.00  0.00    +0.000 C 
ENDBRANCH  32  33
ENDBRANCH  31  32
ENDBRANCH  30  31
ENDBRANCH  16  30
TORSDOF 9
ENDMDL
MODEL 5
REMARK VINA RESULT:      -6.3      8.127     11.128
REMARK  Name = 
REMARK  11 active torsions:
REMARK  status: ('A' for Active; 'I' for Inactive)
REMARK    1  A    between atoms: C_1  and  O_2
REMARK    2  A    between atoms: O_2  and  C_3
REMARK    3  A    between atoms: C_3  and  C_4
REMARK    4  A    between atoms: C_4  and  O_5
REMARK    5  A    between atoms: O_5  and  C_6
REMARK    6  A    between atoms: C_15  and  C_16
REMARK    7  A    between atoms: C_27  and  O_28
REMARK    8  A    between atoms: O_28  and  C_29
REMARK    9  A    between atoms: C_29  and  C_30
REMARK   10  A    between atoms: C_30  and  O_31
REMARK   11  A    between atoms: O_31  and  C_32
REMARK                            x       y       z     vdW  Elec       q    Type
REMARK                         _______ _______ _______ _____ _____    ______ ____
ROOT
ATOM      1  C   UNL     1      -3.726  10.712  16.367  0.00  0.00    +0.000 A 
ATOM      2  C   UNL     1      -2.420  10.381  16.778  0.00  0.00    +0.000 A 
ATOM      3  C   UNL     1      -1.880  10.726  18.016  0.00  0.00    +0.000 A 
ATOM      4  N   UNL     1      -0.614  10.356  18.251  0.00  0.00    +0.000 NA
ATOM      5  C   UNL     1      -0.072  10.716  19.415  0.00  0.00    +0.000 A 
ATOM      6  N   UNL     1      -0.675  11.418  20.371  0.00  0.00    +0.000 NA
ATOM      7  C   UNL     1      -1.976  11.766  20.148  0.00  0.00    +0.000 A 
ATOM      8  N   UNL     1      -2.627  12.453  21.239  0.00  0.00    +0.000 N 
ATOM      9  N   UNL     1      -3.938  12.781  21.260  0.00  0.00    +0.000 NA
ATOM     10  C   UNL     1      -4.117  13.331  22.467  0.00  0.00    +0.000 A 
ATOM     11  N   UNL     1      -2.962  13.423  23.216  0.00  0.00    +0.000 NA
ATOM     12  C   UNL     1      -2.052  12.866  22.457  0.00  0.00    +0.000 A 
ATOM     13  N   UNL     1      -0.763  12.711  22.805  0.00  0.00    +0.000 N 
ATOM     14  C   UNL     1      -2.655  11.443  18.936  0.00  0.00    +0.000 A 
ATOM     15  C   UNL     1      -3.994  11.743  18.530  0.00  0.00    +0.000 A 
ATOM     16  C   UNL     1      -4.549  11.339  17.297  0.00  0.00    +0.000 A 
ATOM     17  H   UNL     1      -0.415  13.205  23.618  0.00  0.00    +0.000 HD
ATOM     18  H   UNL     1      -0.072  12.407  22.121  0.00  0.00    +0.000 HD
ENDROOT
BRANCH  10  19
ATOM     19  C   UNL     1      -5.408  13.779  23.015  0.00  0.00    +0.000 A 
ATOM     20  C   UNL     1      -6.198  12.881  23.736  0.00  0.00    +0.000 A 
ATOM     21  C   UNL     1      -7.440  13.296  24.204  0.00  0.00    +0.000 A 
ATOM     22  C   UNL     1      -7.865  14.593  23.948  0.00  0.00    +0.000 A 
ATOM     23  C   UNL     1      -7.019  15.430  23.237  0.00  0.00    +0.000 A 
ATOM     24  N   UNL     1      -5.807  15.053  22.765  0.00  0.00    +0.000 NA
ENDBRANCH  10  19
BRANCH   1  25
ATOM     25  O   UNL     1      -3.953  10.363  15.060  0.00  0.00    +0.000 OA
BRANCH  25  26
ATOM     26  C   UNL     1      -2.858   9.969  14.237  0.00  0.00    +0.000 C 
BRANCH  26  27
ATOM     27  C   UNL     1      -3.258   9.601  12.822  0.00  0.00    +0.000 C 
BRANCH  27  29
ATOM     28  C   UNL     1      -5.286   9.503  11.591  0.00  0.00    +0.000 C 
ATOM     29  O   UNL     1      -4.582  10.117  12.653  0.00  0.00    +0.000 OA
ENDBRANCH  27  29
ENDBRANCH  26  27
ENDBRANCH  25  26
ENDBRANCH   1  25
BRANCH  16  30
ATOM     30  O   UNL     1      -5.853  11.724  17.175  0.00  0.00    +0.000 OA
BRANCH  30  31
ATOM     31  C   UNL     1      -6.230  13.030  17.601  0.00  0.00    +0.000 C 
BRANCH  31  32
ATOM     32  C   UNL     1      -7.274  13.747  16.762  0.00  0.00    +0.000 C 
BRANCH  32  33
ATOM     33  O   UNL     1      -6.726  14.892  16.119  0.00  0.00    +0.000 OA
ATOM     34  C   UNL     1      -7.219  16.078  16.727  0.00  0.00    +0.000 C 
ENDBRANCH  32  33
ENDBRANCH  31  32
ENDBRANCH  30  31
ENDBRANCH  16  30
TORSDOF 9
ENDMDL
MODEL 6
REMARK VINA RESULT:      -6.3      6.417      9.676
REMARK  Name = 
REMARK  11 active torsions:
REMARK  status: ('A' for Active; 'I' for Inactive)
REMARK    1  A    between atoms: C_1  and  O_2
REMARK    2  A    between atoms: O_2  and  C_3
REMARK    3  A    between atoms: C_3  and  C_4
REMARK    4  A    between atoms: C_4  and  O_5
REMARK    5  A    between atoms: O_5  and  C_6
REMARK    6  A    between atoms: C_15  and  C_16
REMARK    7  A    between atoms: C_27  and  O_28
REMARK    8  A    between atoms: O_28  and  C_29
REMARK    9  A    between atoms: C_29  and  C_30
REMARK   10  A    between atoms: C_30  and  O_31
REMARK   11  A    between atoms: O_31  and  C_32
REMARK                            x       y       z     vdW  Elec       q    Type
REMARK                         _______ _______ _______ _____ _____    ______ ____
ROOT
ATOM      1  C   UNL     1       0.053  10.436  18.809  0.00  0.00    +0.000 A 
ATOM      2  C   UNL     1      -0.615  10.158  17.600  0.00  0.00    +0.000 A 
ATOM      3  C   UNL     1      -1.933  10.524  17.334  0.00  0.00    +0.000 A 
ATOM      4  N   UNL     1      -2.434  10.169  16.144  0.00  0.00    +0.000 NA
ATOM      5  C   UNL     1      -3.707  10.477  15.893  0.00  0.00    +0.000 A 
ATOM      6  N   UNL     1      -4.535  11.105  16.724  0.00  0.00    +0.000 NA
ATOM      7  C   UNL     1      -4.016  11.499  17.924  0.00  0.00    +0.000 A 
ATOM      8  N   UNL     1      -4.914  12.252  18.767  0.00  0.00    +0.000 N 
ATOM      9  N   UNL     1      -4.561  12.825  19.938  0.00  0.00    +0.000 NA
ATOM     10  C   UNL     1      -5.667  13.464  20.337  0.00  0.00    +0.000 A 
ATOM     11  N   UNL     1      -6.747  13.288  19.495  0.00  0.00    +0.000 NA
ATOM     12  C   UNL     1      -6.269  12.552  18.524  0.00  0.00    +0.000 A 
ATOM     13  N   UNL     1      -6.978  12.153  17.454  0.00  0.00    +0.000 N 
ATOM     14  C   UNL     1      -2.671  11.216  18.303  0.00  0.00    +0.000 A 
ATOM     15  C   UNL     1      -1.976  11.530  19.514  0.00  0.00    +0.000 A 
ATOM     16  C   UNL     1      -0.624  11.204  19.750  0.00  0.00    +0.000 A 
ATOM     17  H   UNL     1      -7.985  12.266  17.466  0.00  0.00    +0.000 HD
ATOM     18  H   UNL     1      -6.601  11.464  16.806  0.00  0.00    +0.000 HD
ENDROOT
BRANCH  10  19
ATOM     19  C   UNL     1      -5.772  14.322  21.528  0.00  0.00    +0.000 A 
ATOM     20  C   UNL     1      -6.926  14.273  22.312  0.00  0.00    +0.000 A 
ATOM     21  C   UNL     1      -7.040  15.125  23.405  0.00  0.00    +0.000 A 
ATOM     22  C   UNL     1      -6.002  16.002  23.695  0.00  0.00    +0.000 A 
ATOM     23  C   UNL     1      -4.882  15.982  22.879  0.00  0.00    +0.000 A 
ATOM     24  N   UNL     1      -4.745  15.168  21.806  0.00  0.00    +0.000 NA
ENDBRANCH  10  19
BRANCH   1  25
ATOM     25  O   UNL     1       1.293   9.852  18.852  0.00  0.00    +0.000 OA
BRANCH  25  26
ATOM     26  C   UNL     1       1.702   8.989  17.795  0.00  0.00    +0.000 C 
BRANCH  26  27
ATOM     27  C   UNL     1       2.808   8.027  18.183  0.00  0.00    +0.000 C 
BRANCH  27  29
ATOM     28  C   UNL     1       3.229   5.702  17.948  0.00  0.00    +0.000 C 
ATOM     29  O   UNL     1       2.248   6.719  18.025  0.00  0.00    +0.000 OA
ENDBRANCH  27  29
ENDBRANCH  26  27
ENDBRANCH  25  26
ENDBRANCH   1  25
BRANCH  16  30
ATOM     30  O   UNL     1      -0.198  11.649  20.968  0.00  0.00    +0.000 OA
BRANCH  30  31
ATOM     31  C   UNL     1      -1.167  12.014  21.947  0.00  0.00    +0.000 C 
BRANCH  31  32
ATOM     32  C   UNL     1      -1.343  11.066  23.121  0.00  0.00    +0.000 C 
BRANCH  32  33
ATOM     33  O   UNL     1      -0.127  10.398  23.435  0.00  0.00    +0.000 OA
ATOM     34  C   UNL     1      -0.138   9.083  22.898  0.00  0.00    +0.000 C 
ENDBRANCH  32  33
ENDBRANCH  31  32
ENDBRANCH  30  31
ENDBRANCH  16  30
TORSDOF 9
ENDMDL
MODEL 7
REMARK VINA RESULT:      -6.3      6.547      9.848
REMARK  Name = 
REMARK  11 active torsions:
REMARK  status: ('A' for Active; 'I' for Inactive)
REMARK    1  A    between atoms: C_1  and  O_2
REMARK    2  A    between atoms: O_2  and  C_3
REMARK    3  A    between atoms: C_3  and  C_4
REMARK    4  A    between atoms: C_4  and  O_5
REMARK    5  A    between atoms: O_5  and  C_6
REMARK    6  A    between atoms: C_15  and  C_16
REMARK    7  A    between atoms: C_27  and  O_28
REMARK    8  A    between atoms: O_28  and  C_29
REMARK    9  A    between atoms: C_29  and  C_30
REMARK   10  A    between atoms: C_30  and  O_31
REMARK   11  A    between atoms: O_31  and  C_32
REMARK                            x       y       z     vdW  Elec       q    Type
REMARK                         _______ _______ _______ _____ _____    ______ ____
ROOT
ATOM      1  C   UNL     1       0.082  10.255  18.978  0.00  0.00    +0.000 A 
ATOM      2  C   UNL     1      -0.542  10.032  17.736  0.00  0.00    +0.000 A 
ATOM      3  C   UNL     1      -1.840  10.439  17.430  0.00  0.00    +0.000 A 
ATOM      4  N   UNL     1      -2.300  10.135  16.209  0.00  0.00    +0.000 NA
ATOM      5  C   UNL     1      -3.555  10.481  15.919  0.00  0.00    +0.000 A 
ATOM      6  N   UNL     1      -4.401  11.102  16.737  0.00  0.00    +0.000 NA
ATOM      7  C   UNL     1      -3.923  11.443  17.969  0.00  0.00    +0.000 A 
ATOM      8  N   UNL     1      -4.837  12.190  18.801  0.00  0.00    +0.000 N 
ATOM      9  N   UNL     1      -4.518  12.715  20.004  0.00  0.00    +0.000 NA
ATOM     10  C   UNL     1      -5.625  13.368  20.379  0.00  0.00    +0.000 A 
ATOM     11  N   UNL     1      -6.673  13.246  19.490  0.00  0.00    +0.000 NA
ATOM     12  C   UNL     1      -6.174  12.530  18.514  0.00  0.00    +0.000 A 
ATOM     13  N   UNL     1      -6.847  12.184  17.404  0.00  0.00    +0.000 N 
ATOM     14  C   UNL     1      -2.601  11.116  18.392  0.00  0.00    +0.000 A 
ATOM     15  C   UNL     1      -1.949  11.373  19.639  0.00  0.00    +0.000 A 
ATOM     16  C   UNL     1      -0.615  11.008  19.918  0.00  0.00    +0.000 A 
ATOM     17  H   UNL     1      -7.851  12.321  17.380  0.00  0.00    +0.000 HD
ATOM     18  H   UNL     1      -6.460  11.507  16.749  0.00  0.00    +0.000 HD
ENDROOT
BRANCH  10  19
ATOM     19  C   UNL     1      -5.758  14.189  21.594  0.00  0.00    +0.000 A 
ATOM     20  C   UNL     1      -6.768  13.898  22.513  0.00  0.00    +0.000 A 
ATOM     21  C   UNL     1      -6.922  14.711  23.631  0.00  0.00    +0.000 A 
ATOM     22  C   UNL     1      -6.064  15.789  23.810  0.00  0.00    +0.000 A 
ATOM     23  C   UNL     1      -5.077  16.005  22.862  0.00  0.00    +0.000 A 
ATOM     24  N   UNL     1      -4.907  15.234  21.762  0.00  0.00    +0.000 NA
ENDBRANCH  10  19
BRANCH   1  25
ATOM     25  O   UNL     1       1.306   9.640  19.051  0.00  0.00    +0.000 OA
BRANCH  25  26
ATOM     26  C   UNL     1       1.806   8.931  17.920  0.00  0.00    +0.000 C 
BRANCH  26  27
ATOM     27  C   UNL     1       2.441   7.599  18.265  0.00  0.00    +0.000 C 
BRANCH  27  29
ATOM     28  C   UNL     1       4.221   6.253  17.452  0.00  0.00    +0.000 C 
ATOM     29  O   UNL     1       3.656   7.549  17.509  0.00  0.00    +0.000 OA
ENDBRANCH  27  29
ENDBRANCH  26  27
ENDBRANCH  25  26
ENDBRANCH   1  25
BRANCH  16  30
ATOM     30  O   UNL     1      -0.228  11.402  21.166  0.00  0.00    +0.000 OA
BRANCH  30  31
ATOM     31  C   UNL     1      -1.229  11.716  22.131  0.00  0.00    +0.000 C 
BRANCH  31  32
ATOM     32  C   UNL     1      -1.095  13.049  22.845  0.00  0.00    +0.000 C 
BRANCH  32  33
ATOM     33  O   UNL     1      -2.264  13.356  23.595  0.00  0.00    +0.000 OA
ATOM     34  C   UNL     1      -3.217  12.312  23.467  0.00  0.00    +0.000 C 
ENDBRANCH  32  33
ENDBRANCH  31  32
ENDBRANCH  30  31
ENDBRANCH  16  30
TORSDOF 9
ENDMDL
MODEL 8
REMARK VINA RESULT:      -6.3      8.011     10.985
REMARK  Name = 
REMARK  11 active torsions:
REMARK  status: ('A' for Active; 'I' for Inactive)
REMARK    1  A    between atoms: C_1  and  O_2
REMARK    2  A    between atoms: O_2  and  C_3
REMARK    3  A    between atoms: C_3  and  C_4
REMARK    4  A    between atoms: C_4  and  O_5
REMARK    5  A    between atoms: O_5  and  C_6
REMARK    6  A    between atoms: C_15  and  C_16
REMARK    7  A    between atoms: C_27  and  O_28
REMARK    8  A    between atoms: O_28  and  C_29
REMARK    9  A    between atoms: C_29  and  C_30
REMARK   10  A    between atoms: C_30  and  O_31
REMARK   11  A    between atoms: O_31  and  C_32
REMARK                            x       y       z     vdW  Elec       q    Type
REMARK                         _______ _______ _______ _____ _____    ______ ____
ROOT
ATOM      1  C   UNL     1      -3.869  10.658  16.095  0.00  0.00    +0.000 A 
ATOM      2  C   UNL     1      -2.585  10.193  16.443  0.00  0.00    +0.000 A 
ATOM      3  C   UNL     1      -1.917  10.550  17.613  0.00  0.00    +0.000 A 
ATOM      4  N   UNL     1      -0.691  10.039  17.792  0.00  0.00    +0.000 NA
ATOM      5  C   UNL     1      -0.024  10.406  18.886  0.00  0.00    +0.000 A 
ATOM      6  N   UNL     1      -0.463  11.242  19.823  0.00  0.00    +0.000 NA
ATOM      7  C   UNL     1      -1.725  11.736  19.660  0.00  0.00    +0.000 A 
ATOM      8  N   UNL     1      -2.204  12.572  20.735  0.00  0.00    +0.000 N 
ATOM      9  N   UNL     1      -3.459  13.065  20.818  0.00  0.00    +0.000 NA
ATOM     10  C   UNL     1      -3.479  13.715  21.988  0.00  0.00    +0.000 A 
ATOM     11  N   UNL     1      -2.269  13.709  22.650  0.00  0.00    +0.000 NA
ATOM     12  C   UNL     1      -1.493  12.991  21.878  0.00  0.00    +0.000 A 
ATOM     13  N   UNL     1      -0.210  12.698  22.150  0.00  0.00    +0.000 N 
ATOM     14  C   UNL     1      -2.527  11.421  18.524  0.00  0.00    +0.000 A 
ATOM     15  C   UNL     1      -3.846  11.859  18.185  0.00  0.00    +0.000 A 
ATOM     16  C   UNL     1      -4.536  11.447  17.026  0.00  0.00    +0.000 A 
ATOM     17  H   UNL     1       0.255  13.197  22.899  0.00  0.00    +0.000 HD
ATOM     18  H   UNL     1       0.386  12.263  21.449  0.00  0.00    +0.000 HD
ENDROOT
BRANCH  10  19
ATOM     19  C   UNL     1      -4.662  14.359  22.584  0.00  0.00    +0.000 A 
ATOM     20  C   UNL     1      -4.491  15.391  23.508  0.00  0.00    +0.000 A 
ATOM     21  C   UNL     1      -5.611  15.957  24.107  0.00  0.00    +0.000 A 
ATOM     22  C   UNL     1      -6.873  15.488  23.768  0.00  0.00    +0.000 A 
ATOM     23  C   UNL     1      -6.963  14.470  22.831  0.00  0.00    +0.000 A 
ATOM     24  N   UNL     1      -5.891  13.897  22.236  0.00  0.00    +0.000 NA
ENDBRANCH  10  19
BRANCH   1  25
ATOM     25  O   UNL     1      -4.233  10.253  14.836  0.00  0.00    +0.000 OA
BRANCH  25  26
ATOM     26  C   UNL     1      -3.226   9.930  13.882  0.00  0.00    +0.000 C 
BRANCH  26  27
ATOM     27  C   UNL     1      -3.747   9.788  12.466  0.00  0.00    +0.000 C 
BRANCH  27  29
ATOM     28  C   UNL     1      -5.865   9.652  11.400  0.00  0.00    +0.000 C 
ATOM     29  O   UNL     1      -5.137   9.476  12.600  0.00  0.00    +0.000 OA
ENDBRANCH  27  29
ENDBRANCH  26  27
ENDBRANCH  25  26
ENDBRANCH   1  25
BRANCH  16  30
ATOM     30  O   UNL     1      -5.790  11.985  16.961  0.00  0.00    +0.000 OA
BRANCH  30  31
ATOM     31  C   UNL     1      -6.767  11.573  17.912  0.00  0.00    +0.000 C 
BRANCH  31  32
ATOM     32  C   UNL     1      -7.429  12.670  18.729  0.00  0.00    +0.000 C 
BRANCH  32  33
ATOM     33  O   UNL     1      -7.735  12.224  20.045  0.00  0.00    +0.000 OA
ATOM     34  C   UNL     1      -7.208  10.922  20.256  0.00  0.00    +0.000 C 
ENDBRANCH  32  33
ENDBRANCH  31  32
ENDBRANCH  30  31
ENDBRANCH  16  30
TORSDOF 9
ENDMDL
MODEL 9
REMARK VINA RESULT:      -6.3      3.037      7.856
REMARK  Name = 
REMARK  11 active torsions:
REMARK  status: ('A' for Active; 'I' for Inactive)
REMARK    1  A    between atoms: C_1  and  O_2
REMARK    2  A    between atoms: O_2  and  C_3
REMARK    3  A    between atoms: C_3  and  C_4
REMARK    4  A    between atoms: C_4  and  O_5
REMARK    5  A    between atoms: O_5  and  C_6
REMARK    6  A    between atoms: C_15  and  C_16
REMARK    7  A    between atoms: C_27  and  O_28
REMARK    8  A    between atoms: O_28  and  C_29
REMARK    9  A    between atoms: C_29  and  C_30
REMARK   10  A    between atoms: C_30  and  O_31
REMARK   11  A    between atoms: O_31  and  C_32
REMARK                            x       y       z     vdW  Elec       q    Type
REMARK                         _______ _______ _______ _____ _____    ______ ____
ROOT
ATOM      1  C   UNL     1       1.631   7.611  20.272  0.00  0.00    +0.000 A 
ATOM      2  C   UNL     1       1.465   6.443  21.042  0.00  0.00    +0.000 A 
ATOM      3  C   UNL     1       1.944   5.188  20.670  0.00  0.00    +0.000 A 
ATOM      4  N   UNL     1       1.689   4.169  21.501  0.00  0.00    +0.000 NA
ATOM      5  C   UNL     1       2.105   2.956  21.136  0.00  0.00    +0.000 A 
ATOM      6  N   UNL     1       2.752   2.660  20.012  0.00  0.00    +0.000 NA
ATOM      7  C   UNL     1       3.044   3.702  19.180  0.00  0.00    +0.000 A 
ATOM      8  N   UNL     1       3.820   3.360  18.012  0.00  0.00    +0.000 N 
ATOM      9  N   UNL     1       4.304   4.260  17.127  0.00  0.00    +0.000 NA
ATOM     10  C   UNL     1       5.005   3.521  16.259  0.00  0.00    +0.000 A 
ATOM     11  N   UNL     1       4.955   2.165  16.513  0.00  0.00    +0.000 NA
ATOM     12  C   UNL     1       4.234   2.077  17.602  0.00  0.00    +0.000 A 
ATOM     13  N   UNL     1       3.946   0.926  18.232  0.00  0.00    +0.000 N 
ATOM     14  C   UNL     1       2.640   5.040  19.463  0.00  0.00    +0.000 A 
ATOM     15  C   UNL     1       2.839   6.236  18.704  0.00  0.00    +0.000 A 
ATOM     16  C   UNL     1       2.400   7.511  19.117  0.00  0.00    +0.000 A 
ATOM     17  H   UNL     1       4.134   0.050  17.757  0.00  0.00    +0.000 HD
ATOM     18  H   UNL     1       3.263   0.901  18.987  0.00  0.00    +0.000 HD
ENDROOT
BRANCH  10  19
ATOM     19  C   UNL     1       5.807   4.050  15.144  0.00  0.00    +0.000 A 
ATOM     20  C   UNL     1       5.572   3.588  13.847  0.00  0.00    +0.000 A 
ATOM     21  C   UNL     1       6.370   4.052  12.807  0.00  0.00    +0.000 A 
ATOM     22  C   UNL     1       7.378   4.968  13.080  0.00  0.00    +0.000 A 
ATOM     23  C   UNL     1       7.541   5.390  14.390  0.00  0.00    +0.000 A 
ATOM     24  N   UNL     1       6.783   4.952  15.423  0.00  0.00    +0.000 NA
ENDBRANCH  10  19
BRANCH   1  25
ATOM     25  O   UNL     1       0.953   8.675  20.809  0.00  0.00    +0.000 OA
BRANCH  25  26
ATOM     26  C   UNL     1       1.238   9.091  22.142  0.00  0.00    +0.000 C 
BRANCH  26  27
ATOM     27  C   UNL     1       0.006   9.466  22.943  0.00  0.00    +0.000 C 
BRANCH  27  29
ATOM     28  C   UNL     1      -1.414  11.366  23.041  0.00  0.00    +0.000 C 
ATOM     29  O   UNL     1      -0.098  10.890  22.838  0.00  0.00    +0.000 OA
ENDBRANCH  27  29
ENDBRANCH  26  27
ENDBRANCH  25  26
ENDBRANCH   1  25
BRANCH  16  30
ATOM     30  O   UNL     1       2.749   8.485  18.226  0.00  0.00    +0.000 OA
BRANCH  30  31
ATOM     31  C   UNL     1       1.754   9.405  17.786  0.00  0.00    +0.000 C 
BRANCH  31  32
ATOM     32  C   UNL     1       1.993  10.872  18.101  0.00  0.00    +0.000 C 
BRANCH  32  33
ATOM     33  O   UNL     1       1.050  11.360  19.048  0.00  0.00    +0.000 OA
ATOM     34  C   UNL     1       0.660  12.684  18.713  0.00  0.00    +0.000 C 
ENDBRANCH  32  33
ENDBRANCH  31  32
ENDBRANCH  30  31
ENDBRANCH  16  30
TORSDOF 9
ENDMDL
