MODEL 1
REMARK VINA RESULT:      -7.1      0.000      0.000
REMARK  Name = 
REMARK  6 active torsions:
REMARK  status: ('A' for Active; 'I' for Inactive)
REMARK    1  A    between atoms: N_10  and  O_11
REMARK    2  A    between atoms: O_11  and  C_12
REMARK    3  A    between atoms: C_12  and  C_13
REMARK    4  A    between atoms: C_13  and  C_14
REMARK    5  A    between atoms: C_14  and  O_15
REMARK    6  A    between atoms: O_15  and  C_16
REMARK                            x       y       z     vdW  Elec       q    Type
REMARK                         _______ _______ _______ _____ _____    ______ ____
ROOT
ATOM      1  N   UNL     1       0.578   1.585  18.766  0.00  0.00    +0.000 N 
ATOM      2  C   UNL     1       1.603   2.549  18.914  0.00  0.00    +0.000 C 
ATOM      3  N   UNL     1       1.306   3.792  18.859  0.00  0.00    +0.000 NA
ATOM      4  C   UNL     1       2.219   4.910  19.074  0.00  0.00    +0.000 C 
ATOM      5  C   UNL     1       1.988   5.863  17.869  0.00  0.00    +0.000 C 
ATOM      6  C   UNL     1       2.419   7.339  18.002  0.00  0.00    +0.000 C 
ATOM      7  S   UNL     1       1.771   8.158  19.497  0.00  0.00    +0.000 S 
ATOM      8  C   UNL     1       2.319   6.906  20.706  0.00  0.00    +0.000 C 
ATOM      9  C   UNL     1       1.711   5.551  20.376  0.00  0.00    +0.000 C 
ATOM     10  N   UNL     1       3.622   4.427  19.237  0.00  0.00    +0.000 N 
ATOM     11  C   UNL     1       3.881   3.002  19.331  0.00  0.00    +0.000 C 
ATOM     12  N   UNL     1       5.178   2.510  19.648  0.00  0.00    +0.000 N 
ATOM     13  N   UNL     1       2.927   2.150  19.181  0.00  0.00    +0.000 NA
ATOM     14  H   UNL     1      -0.390   1.884  18.576  0.00  0.00    +0.000 HD
ATOM     15  H   UNL     1       0.773   0.583  18.892  0.00  0.00    +0.000 HD
ATOM     16  H   UNL     1       5.971   3.127  19.816  0.00  0.00    +0.000 HD
ATOM     17  H   UNL     1       5.321   1.488  19.743  0.00  0.00    +0.000 HD
ENDROOT
BRANCH  10  18
ATOM     18  O   UNL     1       4.619   5.292  19.574  0.00  0.00    +0.000 OA
BRANCH  18  19
ATOM     19  C   UNL     1       5.336   5.660  18.393  0.00  0.00    +0.000 C 
BRANCH  19  20
ATOM     20  C   UNL     1       6.846   5.331  18.537  0.00  0.00    +0.000 C 
BRANCH  20  21
ATOM     21  C   UNL     1       7.431   4.599  17.314  0.00  0.00    +0.000 C 
BRANCH  21  22
ATOM     22  O   UNL     1       6.454   4.310  16.367  0.00  0.00    +0.000 OA
BRANCH  22  23
ATOM     23  C   UNL     1       6.638   4.388  15.013  0.00  0.00    +0.000 A 
ATOM     24  C   UNL     1       7.730   5.083  14.447  0.00  0.00    +0.000 A 
ATOM     25  C   UNL     1       7.898   5.141  13.061  0.00  0.00    +0.000 A 
ATOM     26  C   UNL     1       6.986   4.513  12.215  0.00  0.00    +0.000 A 
ATOM     27  C   UNL     1       5.895   3.823  12.754  0.00  0.00    +0.000 A 
ATOM     28 BR   UNL     1       4.654   2.971  11.576  0.00  0.00    +0.000 Br
ATOM     29  C   UNL     1       5.720   3.760  14.146  0.00  0.00    +0.000 A 
ENDBRANCH  22  23
ENDBRANCH  21  22
ENDBRANCH  20  21
ENDBRANCH  19  20
ENDBRANCH  18  19
ENDBRANCH  10  18
TORSDOF 6
ENDMDL
MODEL 2
REMARK VINA RESULT:      -7.1      4.437      7.536
REMARK  Name = 
REMARK  6 active torsions:
REMARK  status: ('A' for Active; 'I' for Inactive)
REMARK    1  A    between atoms: N_10  and  O_11
REMARK    2  A    between atoms: O_11  and  C_12
REMARK    3  A    between atoms: C_12  and  C_13
REMARK    4  A    between atoms: C_13  and  C_14
REMARK    5  A    between atoms: C_14  and  O_15
REMARK    6  A    between atoms: O_15  and  C_16
REMARK                            x       y       z     vdW  Elec       q    Type
REMARK                         _______ _______ _______ _____ _____    ______ ____
ROOT
ATOM      1  N   UNL     1       5.086   1.376  20.890  0.00  0.00    +0.000 N 
ATOM      2  C   UNL     1       4.504   2.481  20.225  0.00  0.00    +0.000 C 
ATOM      3  N   UNL     1       5.200   3.138  19.376  0.00  0.00    +0.000 NA
ATOM      4  C   UNL     1       4.734   4.244  18.546  0.00  0.00    +0.000 C 
ATOM      5  C   UNL     1       5.793   5.366  18.728  0.00  0.00    +0.000 C 
ATOM      6  C   UNL     1       5.884   6.476  17.660  0.00  0.00    +0.000 C 
ATOM      7  S   UNL     1       6.028   5.840  15.956  0.00  0.00    +0.000 S 
ATOM      8  C   UNL     1       4.603   4.701  16.010  0.00  0.00    +0.000 C 
ATOM      9  C   UNL     1       4.788   3.676  17.117  0.00  0.00    +0.000 C 
ATOM     10  N   UNL     1       3.338   4.628  18.907  0.00  0.00    +0.000 N 
ATOM     11  C   UNL     1       2.593   3.813  19.849  0.00  0.00    +0.000 C 
ATOM     12  N   UNL     1       1.212   4.051  20.095  0.00  0.00    +0.000 N 
ATOM     13  N   UNL     1       3.155   2.820  20.445  0.00  0.00    +0.000 NA
ATOM     14  H   UNL     1       6.072   1.130  20.719  0.00  0.00    +0.000 HD
ATOM     15  H   UNL     1       4.524   0.778  21.511  0.00  0.00    +0.000 HD
ATOM     16  H   UNL     1       0.694   4.796  19.632  0.00  0.00    +0.000 HD
ATOM     17  H   UNL     1       0.701   3.428  20.747  0.00  0.00    +0.000 HD
ENDROOT
BRANCH  10  18
ATOM     18  O   UNL     1       2.661   5.554  18.172  0.00  0.00    +0.000 OA
BRANCH  18  19
ATOM     19  C   UNL     1       2.503   6.743  18.950  0.00  0.00    +0.000 C 
BRANCH  19  20
ATOM     20  C   UNL     1       2.328   7.985  18.035  0.00  0.00    +0.000 C 
BRANCH  20  21
ATOM     21  C   UNL     1       1.522   9.121  18.694  0.00  0.00    +0.000 C 
BRANCH  21  22
ATOM     22  O   UNL     1       0.503   9.581  17.866  0.00  0.00    +0.000 OA
BRANCH  22  23
ATOM     23  C   UNL     1      -0.552  10.344  18.285  0.00  0.00    +0.000 A 
ATOM     24  C   UNL     1      -0.510  11.079  19.491  0.00  0.00    +0.000 A 
ATOM     25  C   UNL     1      -1.600  11.856  19.892  0.00  0.00    +0.000 A 
ATOM     26  C   UNL     1      -2.749  11.916  19.105  0.00  0.00    +0.000 A 
ATOM     27  C   UNL     1      -2.814  11.193  17.910  0.00  0.00    +0.000 A 
ATOM     28 BR   UNL     1      -4.400  11.286  16.847  0.00  0.00    +0.000 Br
ATOM     29  C   UNL     1      -1.722  10.410  17.501  0.00  0.00    +0.000 A 
ENDBRANCH  22  23
ENDBRANCH  21  22
ENDBRANCH  20  21
ENDBRANCH  19  20
ENDBRANCH  18  19
ENDBRANCH  10  18
TORSDOF 6
ENDMDL
MODEL 3
REMARK VINA RESULT:      -7.0      4.265      7.882
REMARK  Name = 
REMARK  6 active torsions:
REMARK  status: ('A' for Active; 'I' for Inactive)
REMARK    1  A    between atoms: N_10  and  O_11
REMARK    2  A    between atoms: O_11  and  C_12
REMARK    3  A    between atoms: C_12  and  C_13
REMARK    4  A    between atoms: C_13  and  C_14
REMARK    5  A    between atoms: C_14  and  O_15
REMARK    6  A    between atoms: O_15  and  C_16
REMARK                            x       y       z     vdW  Elec       q    Type
REMARK                         _______ _______ _______ _____ _____    ______ ____
ROOT
ATOM      1  N   UNL     1       4.907   1.489  20.787  0.00  0.00    +0.000 N 
ATOM      2  C   UNL     1       4.459   2.623  20.069  0.00  0.00    +0.000 C 
ATOM      3  N   UNL     1       5.264   3.218  19.273  0.00  0.00    +0.000 NA
ATOM      4  C   UNL     1       4.943   4.341  18.399  0.00  0.00    +0.000 C 
ATOM      5  C   UNL     1       6.060   5.391  18.656  0.00  0.00    +0.000 C 
ATOM      6  C   UNL     1       6.312   6.476  17.588  0.00  0.00    +0.000 C 
ATOM      7  S   UNL     1       6.546   5.809  15.907  0.00  0.00    +0.000 S 
ATOM      8  C   UNL     1       5.045   4.772  15.857  0.00  0.00    +0.000 C 
ATOM      9  C   UNL     1       5.069   3.751  16.984  0.00  0.00    +0.000 C 
ATOM     10  N   UNL     1       3.553   4.827  18.645  0.00  0.00    +0.000 N 
ATOM     11  C   UNL     1       2.681   4.078  19.532  0.00  0.00    +0.000 C 
ATOM     12  N   UNL     1       1.305   4.414  19.665  0.00  0.00    +0.000 N 
ATOM     13  N   UNL     1       3.123   3.057  20.179  0.00  0.00    +0.000 NA
ATOM     14  H   UNL     1       5.884   1.173  20.698  0.00  0.00    +0.000 HD
ATOM     15  H   UNL     1       4.258   0.940  21.367  0.00  0.00    +0.000 HD
ATOM     16  H   UNL     1       0.879   5.187  19.155  0.00  0.00    +0.000 HD
ATOM     17  H   UNL     1       0.702   3.838  20.279  0.00  0.00    +0.000 HD
ENDROOT
BRANCH  10  18
ATOM     18  O   UNL     1       3.003   5.787  17.850  0.00  0.00    +0.000 OA
BRANCH  18  19
ATOM     19  C   UNL     1       2.887   7.001  18.597  0.00  0.00    +0.000 C 
BRANCH  19  20
ATOM     20  C   UNL     1       1.928   7.996  17.891  0.00  0.00    +0.000 C 
BRANCH  20  21
ATOM     21  C   UNL     1       1.554   9.209  18.765  0.00  0.00    +0.000 C 
BRANCH  21  22
ATOM     22  O   UNL     1       1.371   8.851  20.098  0.00  0.00    +0.000 OA
BRANCH  22  23
ATOM     23  C   UNL     1       0.575   9.528  20.981  0.00  0.00    +0.000 A 
ATOM     24  C   UNL     1       0.429   9.115  22.324  0.00  0.00    +0.000 A 
ATOM     25  C   UNL     1      -0.385   9.830  23.206  0.00  0.00    +0.000 A 
ATOM     26  C   UNL     1      -1.067  10.964  22.771  0.00  0.00    +0.000 A 
ATOM     27  C   UNL     1      -0.941  11.389  21.445  0.00  0.00    +0.000 A 
ATOM     28 BR   UNL     1      -1.888  12.946  20.868  0.00  0.00    +0.000 Br
ATOM     29  C   UNL     1      -0.124  10.675  20.552  0.00  0.00    +0.000 A 
ENDBRANCH  22  23
ENDBRANCH  21  22
ENDBRANCH  20  21
ENDBRANCH  19  20
ENDBRANCH  18  19
ENDBRANCH  10  18
TORSDOF 6
ENDMDL
MODEL 4
REMARK VINA RESULT:      -6.7      4.604      7.595
REMARK  Name = 
REMARK  6 active torsions:
REMARK  status: ('A' for Active; 'I' for Inactive)
REMARK    1  A    between atoms: N_10  and  O_11
REMARK    2  A    between atoms: O_11  and  C_12
REMARK    3  A    between atoms: C_12  and  C_13
REMARK    4  A    between atoms: C_13  and  C_14
REMARK    5  A    between atoms: C_14  and  O_15
REMARK    6  A    between atoms: O_15  and  C_16
REMARK                            x       y       z     vdW  Elec       q    Type
REMARK                         _______ _______ _______ _____ _____    ______ ____
ROOT
ATOM      1  N   UNL     1       6.092   3.103  15.379  0.00  0.00    +0.000 N 
ATOM      2  C   UNL     1       5.316   3.878  16.272  0.00  0.00    +0.000 C 
ATOM      3  N   UNL     1       4.414   3.306  16.976  0.00  0.00    +0.000 NA
ATOM      4  C   UNL     1       3.587   3.936  17.999  0.00  0.00    +0.000 C 
ATOM      5  C   UNL     1       2.130   3.514  17.664  0.00  0.00    +0.000 C 
ATOM      6  C   UNL     1       1.063   3.595  18.777  0.00  0.00    +0.000 C 
ATOM      7  S   UNL     1       1.550   2.752  20.320  0.00  0.00    +0.000 S 
ATOM      8  C   UNL     1       3.179   3.552  20.518  0.00  0.00    +0.000 C 
ATOM      9  C   UNL     1       4.055   3.274  19.307  0.00  0.00    +0.000 C 
ATOM     10  N   UNL     1       3.823   5.410  18.042  0.00  0.00    +0.000 N 
ATOM     11  C   UNL     1       4.890   5.985  17.245  0.00  0.00    +0.000 C 
ATOM     12  N   UNL     1       5.252   7.355  17.380  0.00  0.00    +0.000 N 
ATOM     13  N   UNL     1       5.572   5.254  16.434  0.00  0.00    +0.000 NA
ATOM     14  H   UNL     1       5.903   2.095  15.269  0.00  0.00    +0.000 HD
ATOM     15  H   UNL     1       6.880   3.520  14.865  0.00  0.00    +0.000 HD
ATOM     16  H   UNL     1       4.780   7.984  18.029  0.00  0.00    +0.000 HD
ATOM     17  H   UNL     1       6.042   7.726  16.822  0.00  0.00    +0.000 HD
ENDROOT
BRANCH  10  18
ATOM     18  O   UNL     1       3.248   6.177  19.010  0.00  0.00    +0.000 OA
BRANCH  18  19
ATOM     19  C   UNL     1       2.154   6.903  18.443  0.00  0.00    +0.000 C 
BRANCH  19  20
ATOM     20  C   UNL     1       2.081   8.340  19.025  0.00  0.00    +0.000 C 
BRANCH  20  21
ATOM     21  C   UNL     1       1.749   9.411  17.969  0.00  0.00    +0.000 C 
BRANCH  21  22
ATOM     22  O   UNL     1       0.398   9.407  17.633  0.00  0.00    +0.000 OA
BRANCH  22  23
ATOM     23  C   UNL     1      -0.536  10.252  18.167  0.00  0.00    +0.000 A 
ATOM     24  C   UNL     1      -0.268  11.036  19.311  0.00  0.00    +0.000 A 
ATOM     25  C   UNL     1      -1.238  11.896  19.831  0.00  0.00    +0.000 A 
ATOM     26  C   UNL     1      -2.490  11.993  19.226  0.00  0.00    +0.000 A 
ATOM     27  C   UNL     1      -2.779  11.223  18.095  0.00  0.00    +0.000 A 
ATOM     28 BR   UNL     1      -4.503  11.367  17.282  0.00  0.00    +0.000 Br
ATOM     29  C   UNL     1      -1.808  10.356  17.566  0.00  0.00    +0.000 A 
ENDBRANCH  22  23
ENDBRANCH  21  22
ENDBRANCH  20  21
ENDBRANCH  19  20
ENDBRANCH  18  19
ENDBRANCH  10  18
TORSDOF 6
ENDMDL
MODEL 5
REMARK VINA RESULT:      -6.7      4.296      7.309
REMARK  Name = 
REMARK  6 active torsions:
REMARK  status: ('A' for Active; 'I' for Inactive)
REMARK    1  A    between atoms: N_10  and  O_11
REMARK    2  A    between atoms: O_11  and  C_12
REMARK    3  A    between atoms: C_12  and  C_13
REMARK    4  A    between atoms: C_13  and  C_14
REMARK    5  A    between atoms: C_14  and  O_15
REMARK    6  A    between atoms: O_15  and  C_16
REMARK                            x       y       z     vdW  Elec       q    Type
REMARK                         _______ _______ _______ _____ _____    ______ ____
ROOT
ATOM      1  N   UNL     1       1.920   2.446  21.863  0.00  0.00    +0.000 N 
ATOM      2  C   UNL     1       2.386   3.526  21.077  0.00  0.00    +0.000 C 
ATOM      3  N   UNL     1       3.244   3.304  20.154  0.00  0.00    +0.000 NA
ATOM      4  C   UNL     1       3.764   4.280  19.203  0.00  0.00    +0.000 C 
ATOM      5  C   UNL     1       5.308   4.114  19.249  0.00  0.00    +0.000 C 
ATOM      6  C   UNL     1       6.142   4.631  18.058  0.00  0.00    +0.000 C 
ATOM      7  S   UNL     1       5.560   4.023  16.439  0.00  0.00    +0.000 S 
ATOM      8  C   UNL     1       3.806   4.489  16.631  0.00  0.00    +0.000 C 
ATOM      9  C   UNL     1       3.208   3.804  17.850  0.00  0.00    +0.000 C 
ATOM     10  N   UNL     1       3.268   5.651  19.523  0.00  0.00    +0.000 N 
ATOM     11  C   UNL     1       2.264   5.824  20.557  0.00  0.00    +0.000 C 
ATOM     12  N   UNL     1       1.648   7.088  20.779  0.00  0.00    +0.000 N 
ATOM     13  N   UNL     1       1.868   4.823  21.262  0.00  0.00    +0.000 NA
ATOM     14  H   UNL     1       2.299   1.499  21.719  0.00  0.00    +0.000 HD
ATOM     15  H   UNL     1       1.168   2.581  22.552  0.00  0.00    +0.000 HD
ATOM     16  H   UNL     1       1.886   7.916  20.234  0.00  0.00    +0.000 HD
ATOM     17  H   UNL     1       0.910   7.170  21.501  0.00  0.00    +0.000 HD
ENDROOT
BRANCH  10  18
ATOM     18  O   UNL     1       3.528   6.696  18.688  0.00  0.00    +0.000 OA
BRANCH  18  19
ATOM     19  C   UNL     1       2.291   7.287  18.281  0.00  0.00    +0.000 C 
BRANCH  19  20
ATOM     20  C   UNL     1       2.536   8.632  17.545  0.00  0.00    +0.000 C 
BRANCH  20  21
ATOM     21  C   UNL     1       1.910   9.843  18.262  0.00  0.00    +0.000 C 
BRANCH  21  22
ATOM     22  O   UNL     1       0.686   9.526  18.844  0.00  0.00    +0.000 OA
BRANCH  22  23
ATOM     23  C   UNL     1      -0.488  10.179  18.585  0.00  0.00    +0.000 A 
ATOM     24  C   UNL     1      -1.064  11.076  19.511  0.00  0.00    +0.000 A 
ATOM     25  C   UNL     1      -2.261  11.735  19.218  0.00  0.00    +0.000 A 
ATOM     26  C   UNL     1      -2.906  11.514  18.003  0.00  0.00    +0.000 A 
ATOM     27  C   UNL     1      -2.357  10.626  17.073  0.00  0.00    +0.000 A 
ATOM     28 BR   UNL     1      -3.259  10.335  15.413  0.00  0.00    +0.000 Br
ATOM     29  C   UNL     1      -1.153   9.961  17.360  0.00  0.00    +0.000 A 
ENDBRANCH  22  23
ENDBRANCH  21  22
ENDBRANCH  20  21
ENDBRANCH  19  20
ENDBRANCH  18  19
ENDBRANCH  10  18
TORSDOF 6
ENDMDL
MODEL 6
REMARK VINA RESULT:      -6.6      4.871      7.772
REMARK  Name = 
REMARK  6 active torsions:
REMARK  status: ('A' for Active; 'I' for Inactive)
REMARK    1  A    between atoms: N_10  and  O_11
REMARK    2  A    between atoms: O_11  and  C_12
REMARK    3  A    between atoms: C_12  and  C_13
REMARK    4  A    between atoms: C_13  and  C_14
REMARK    5  A    between atoms: C_14  and  O_15
REMARK    6  A    between atoms: O_15  and  C_16
REMARK                            x       y       z     vdW  Elec       q    Type
REMARK                         _______ _______ _______ _____ _____    ______ ____
ROOT
ATOM      1  N   UNL     1       6.249   3.238  15.054  0.00  0.00    +0.000 N 
ATOM      2  C   UNL     1       5.507   4.026  15.966  0.00  0.00    +0.000 C 
ATOM      3  N   UNL     1       4.569   3.482  16.645  0.00  0.00    +0.000 NA
ATOM      4  C   UNL     1       3.768   4.123  17.681  0.00  0.00    +0.000 C 
ATOM      5  C   UNL     1       2.293   3.791  17.321  0.00  0.00    +0.000 C 
ATOM      6  C   UNL     1       1.222   3.894  18.428  0.00  0.00    +0.000 C 
ATOM      7  S   UNL     1       1.649   2.978  19.947  0.00  0.00    +0.000 S 
ATOM      8  C   UNL     1       3.316   3.682  20.183  0.00  0.00    +0.000 C 
ATOM      9  C   UNL     1       4.188   3.396  18.970  0.00  0.00    +0.000 C 
ATOM     10  N   UNL     1       4.082   5.580  17.771  0.00  0.00    +0.000 N 
ATOM     11  C   UNL     1       5.186   6.122  17.001  0.00  0.00    +0.000 C 
ATOM     12  N   UNL     1       5.619   7.465  17.182  0.00  0.00    +0.000 N 
ATOM     13  N   UNL     1       5.835   5.380  16.172  0.00  0.00    +0.000 NA
ATOM     14  H   UNL     1       6.008   2.246  14.912  0.00  0.00    +0.000 HD
ATOM     15  H   UNL     1       7.063   3.628  14.560  0.00  0.00    +0.000 HD
ATOM     16  H   UNL     1       5.176   8.098  17.848  0.00  0.00    +0.000 HD
ATOM     17  H   UNL     1       6.433   7.810  16.643  0.00  0.00    +0.000 HD
ENDROOT
BRANCH  10  18
ATOM     18  O   UNL     1       3.540   6.346  18.759  0.00  0.00    +0.000 OA
BRANCH  18  19
ATOM     19  C   UNL     1       2.704   7.345  18.169  0.00  0.00    +0.000 C 
BRANCH  19  20
ATOM     20  C   UNL     1       1.974   8.172  19.261  0.00  0.00    +0.000 C 
BRANCH  20  21
ATOM     21  C   UNL     1       1.451   9.529  18.752  0.00  0.00    +0.000 C 
BRANCH  21  22
ATOM     22  O   UNL     1       0.376   9.377  17.881  0.00  0.00    +0.000 OA
BRANCH  22  23
ATOM     23  C   UNL     1      -0.802  10.066  17.976  0.00  0.00    +0.000 A 
ATOM     24  C   UNL     1      -1.858   9.869  17.058  0.00  0.00    +0.000 A 
ATOM     25  C   UNL     1      -3.054  10.581  17.182  0.00  0.00    +0.000 A 
ATOM     26  C   UNL     1      -3.221  11.499  18.217  0.00  0.00    +0.000 A 
ATOM     27  C   UNL     1      -2.188  11.713  19.135  0.00  0.00    +0.000 A 
ATOM     28 BR   UNL     1      -2.437  12.979  20.546  0.00  0.00    +0.000 Br
ATOM     29  C   UNL     1      -0.983  11.000  19.016  0.00  0.00    +0.000 A 
ENDBRANCH  22  23
ENDBRANCH  21  22
ENDBRANCH  20  21
ENDBRANCH  19  20
ENDBRANCH  18  19
ENDBRANCH  10  18
TORSDOF 6
ENDMDL
MODEL 7
REMARK VINA RESULT:      -6.6      4.509      7.329
REMARK  Name = 
REMARK  6 active torsions:
REMARK  status: ('A' for Active; 'I' for Inactive)
REMARK    1  A    between atoms: N_10  and  O_11
REMARK    2  A    between atoms: O_11  and  C_12
REMARK    3  A    between atoms: C_12  and  C_13
REMARK    4  A    between atoms: C_13  and  C_14
REMARK    5  A    between atoms: C_14  and  O_15
REMARK    6  A    between atoms: O_15  and  C_16
REMARK                            x       y       z     vdW  Elec       q    Type
REMARK                         _______ _______ _______ _____ _____    ______ ____
ROOT
ATOM      1  N   UNL     1       5.127   1.388  21.032  0.00  0.00    +0.000 N 
ATOM      2  C   UNL     1       4.514   2.469  20.356  0.00  0.00    +0.000 C 
ATOM      3  N   UNL     1       5.182   3.119  19.479  0.00  0.00    +0.000 NA
ATOM      4  C   UNL     1       4.680   4.198  18.636  0.00  0.00    +0.000 C 
ATOM      5  C   UNL     1       5.722   5.342  18.773  0.00  0.00    +0.000 C 
ATOM      6  C   UNL     1       5.772   6.430  17.679  0.00  0.00    +0.000 C 
ATOM      7  S   UNL     1       5.895   5.760  15.987  0.00  0.00    +0.000 S 
ATOM      8  C   UNL     1       4.491   4.599  16.093  0.00  0.00    +0.000 C 
ATOM      9  C   UNL     1       4.716   3.600  17.219  0.00  0.00    +0.000 C 
ATOM     10  N   UNL     1       3.284   4.567  19.017  0.00  0.00    +0.000 N 
ATOM     11  C   UNL     1       2.573   3.759  19.990  0.00  0.00    +0.000 C 
ATOM     12  N   UNL     1       1.192   3.979  20.259  0.00  0.00    +0.000 N 
ATOM     13  N   UNL     1       3.163   2.789  20.596  0.00  0.00    +0.000 NA
ATOM     14  H   UNL     1       6.115   1.155  20.848  0.00  0.00    +0.000 HD
ATOM     15  H   UNL     1       4.589   0.794  21.677  0.00  0.00    +0.000 HD
ATOM     16  H   UNL     1       0.653   4.705  19.790  0.00  0.00    +0.000 HD
ATOM     17  H   UNL     1       0.705   3.362  20.933  0.00  0.00    +0.000 HD
ENDROOT
BRANCH  10  18
ATOM     18  O   UNL     1       2.577   5.465  18.275  0.00  0.00    +0.000 OA
BRANCH  18  19
ATOM     19  C   UNL     1       2.495   6.699  18.992  0.00  0.00    +0.000 C 
BRANCH  19  20
ATOM     20  C   UNL     1       2.424   7.903  18.015  0.00  0.00    +0.000 C 
BRANCH  20  21
ATOM     21  C   UNL     1       1.677   9.119  18.597  0.00  0.00    +0.000 C 
BRANCH  21  22
ATOM     22  O   UNL     1       1.995  10.294  17.922  0.00  0.00    +0.000 OA
BRANCH  22  23
ATOM     23  C   UNL     1       1.789  11.553  18.417  0.00  0.00    +0.000 A 
ATOM     24  C   UNL     1       0.762  11.832  19.347  0.00  0.00    +0.000 A 
ATOM     25  C   UNL     1       0.579  13.125  19.842  0.00  0.00    +0.000 A 
ATOM     26  C   UNL     1       1.409  14.163  19.423  0.00  0.00    +0.000 A 
ATOM     27  C   UNL     1       2.429  13.911  18.500  0.00  0.00    +0.000 A 
ATOM     28 BR   UNL     1       3.556  15.349  17.936  0.00  0.00    +0.000 Br
ATOM     29  C   UNL     1       2.620  12.612  17.998  0.00  0.00    +0.000 A 
ENDBRANCH  22  23
ENDBRANCH  21  22
ENDBRANCH  20  21
ENDBRANCH  19  20
ENDBRANCH  18  19
ENDBRANCH  10  18
TORSDOF 6
ENDMDL
MODEL 8
REMARK VINA RESULT:      -6.5      4.798      7.888
REMARK  Name = 
REMARK  6 active torsions:
REMARK  status: ('A' for Active; 'I' for Inactive)
REMARK    1  A    between atoms: N_10  and  O_11
REMARK    2  A    between atoms: O_11  and  C_12
REMARK    3  A    between atoms: C_12  and  C_13
REMARK    4  A    between atoms: C_13  and  C_14
REMARK    5  A    between atoms: C_14  and  O_15
REMARK    6  A    between atoms: O_15  and  C_16
REMARK                            x       y       z     vdW  Elec       q    Type
REMARK                         _______ _______ _______ _____ _____    ______ ____
ROOT
ATOM      1  N   UNL     1       6.327   3.402  14.797  0.00  0.00    +0.000 N 
ATOM      2  C   UNL     1       5.542   4.081  15.760  0.00  0.00    +0.000 C 
ATOM      3  N   UNL     1       4.694   3.421  16.454  0.00  0.00    +0.000 NA
ATOM      4  C   UNL     1       3.870   3.944  17.538  0.00  0.00    +0.000 C 
ATOM      5  C   UNL     1       2.425   3.468  17.220  0.00  0.00    +0.000 C 
ATOM      6  C   UNL     1       1.393   3.426  18.367  0.00  0.00    +0.000 C 
ATOM      7  S   UNL     1       1.972   2.517  19.839  0.00  0.00    +0.000 S 
ATOM      8  C   UNL     1       3.564   3.386  20.039  0.00  0.00    +0.000 C 
ATOM      9  C   UNL     1       4.413   3.229  18.787  0.00  0.00    +0.000 C 
ATOM     10  N   UNL     1       4.034   5.423  17.665  0.00  0.00    +0.000 N 
ATOM     11  C   UNL     1       5.045   6.100  16.875  0.00  0.00    +0.000 C 
ATOM     12  N   UNL     1       5.342   7.476  17.084  0.00  0.00    +0.000 N 
ATOM     13  N   UNL     1       5.734   5.456  15.999  0.00  0.00    +0.000 NA
ATOM     14  H   UNL     1       6.185   2.395  14.631  0.00  0.00    +0.000 HD
ATOM     15  H   UNL     1       7.076   3.890  14.288  0.00  0.00    +0.000 HD
ATOM     16  H   UNL     1       4.861   8.039  17.785  0.00  0.00    +0.000 HD
ATOM     17  H   UNL     1       6.093   7.920  16.528  0.00  0.00    +0.000 HD
ENDROOT
BRANCH  10  18
ATOM     18  O   UNL     1       3.453   6.098  18.696  0.00  0.00    +0.000 OA
BRANCH  18  19
ATOM     19  C   UNL     1       2.349   6.856  18.195  0.00  0.00    +0.000 C 
BRANCH  19  20
ATOM     20  C   UNL     1       2.341   8.287  18.794  0.00  0.00    +0.000 C 
BRANCH  20  21
ATOM     21  C   UNL     1       1.691   9.334  17.867  0.00  0.00    +0.000 C 
BRANCH  21  22
ATOM     22  O   UNL     1       0.325   9.456  18.101  0.00  0.00    +0.000 OA
BRANCH  22  23
ATOM     23  C   UNL     1      -0.247  10.436  18.866  0.00  0.00    +0.000 A 
ATOM     24  C   UNL     1      -0.726  11.639  18.303  0.00  0.00    +0.000 A 
ATOM     25  C   UNL     1      -1.312  12.620  19.107  0.00  0.00    +0.000 A 
ATOM     26  C   UNL     1      -1.430  12.425  20.481  0.00  0.00    +0.000 A 
ATOM     27  C   UNL     1      -0.958  11.243  21.061  0.00  0.00    +0.000 A 
ATOM     28 BR   UNL     1      -1.128  10.996  22.950  0.00  0.00    +0.000 Br
ATOM     29  C   UNL     1      -0.369  10.252  20.259  0.00  0.00    +0.000 A 
ENDBRANCH  22  23
ENDBRANCH  21  22
ENDBRANCH  20  21
ENDBRANCH  19  20
ENDBRANCH  18  19
ENDBRANCH  10  18
TORSDOF 6
ENDMDL
MODEL 9
REMARK VINA RESULT:      -6.5      4.372      7.511
REMARK  Name = 
REMARK  6 active torsions:
REMARK  status: ('A' for Active; 'I' for Inactive)
REMARK    1  A    between atoms: N_10  and  O_11
REMARK    2  A    between atoms: O_11  and  C_12
REMARK    3  A    between atoms: C_12  and  C_13
REMARK    4  A    between atoms: C_13  and  C_14
REMARK    5  A    between atoms: C_14  and  O_15
REMARK    6  A    between atoms: O_15  and  C_16
REMARK                            x       y       z     vdW  Elec       q    Type
REMARK                         _______ _______ _______ _____ _____    ______ ____
ROOT
ATOM      1  N   UNL     1       5.196   1.381  21.096  0.00  0.00    +0.000 N 
ATOM      2  C   UNL     1       4.556   2.399  20.351  0.00  0.00    +0.000 C 
ATOM      3  N   UNL     1       5.228   3.055  19.482  0.00  0.00    +0.000 NA
ATOM      4  C   UNL     1       4.709   4.072  18.574  0.00  0.00    +0.000 C 
ATOM      5  C   UNL     1       5.677   5.279  18.715  0.00  0.00    +0.000 C 
ATOM      6  C   UNL     1       5.720   6.327  17.584  0.00  0.00    +0.000 C 
ATOM      7  S   UNL     1       5.961   5.605  15.926  0.00  0.00    +0.000 S 
ATOM      8  C   UNL     1       4.621   4.369  16.012  0.00  0.00    +0.000 C 
ATOM      9  C   UNL     1       4.846   3.427  17.185  0.00  0.00    +0.000 C 
ATOM     10  N   UNL     1       3.278   4.373  18.876  0.00  0.00    +0.000 N 
ATOM     11  C   UNL     1       2.566   3.562  19.846  0.00  0.00    +0.000 C 
ATOM     12  N   UNL     1       1.164   3.710  20.042  0.00  0.00    +0.000 N 
ATOM     13  N   UNL     1       3.180   2.649  20.516  0.00  0.00    +0.000 NA
ATOM     14  H   UNL     1       6.202   1.199  20.967  0.00  0.00    +0.000 HD
ATOM     15  H   UNL     1       4.660   0.781  21.738  0.00  0.00    +0.000 HD
ATOM     16  H   UNL     1       0.608   4.387  19.520  0.00  0.00    +0.000 HD
ATOM     17  H   UNL     1       0.680   3.091  20.716  0.00  0.00    +0.000 HD
ENDROOT
BRANCH  10  18
ATOM     18  O   UNL     1       2.558   5.201  18.068  0.00  0.00    +0.000 OA
BRANCH  18  19
ATOM     19  C   UNL     1       2.421   6.473  18.707  0.00  0.00    +0.000 C 
BRANCH  19  20
ATOM     20  C   UNL     1       1.940   7.551  17.700  0.00  0.00    +0.000 C 
BRANCH  20  21
ATOM     21  C   UNL     1       2.341   8.984  18.100  0.00  0.00    +0.000 C 
BRANCH  21  22
ATOM     22  O   UNL     1       1.832   9.336  19.346  0.00  0.00    +0.000 OA
BRANCH  22  23
ATOM     23  C   UNL     1       0.688  10.061  19.541  0.00  0.00    +0.000 A 
ATOM     24  C   UNL     1      -0.121  10.482  18.462  0.00  0.00    +0.000 A 
ATOM     25  C   UNL     1      -1.289  11.216  18.690  0.00  0.00    +0.000 A 
ATOM     26  C   UNL     1      -1.671  11.544  19.989  0.00  0.00    +0.000 A 
ATOM     27  C   UNL     1      -0.882  11.141  21.071  0.00  0.00    +0.000 A 
ATOM     28 BR   UNL     1      -1.423  11.604  22.846  0.00  0.00    +0.000 Br
ATOM     29  C   UNL     1       0.292  10.403  20.850  0.00  0.00    +0.000 A 
ENDBRANCH  22  23
ENDBRANCH  21  22
ENDBRANCH  20  21
ENDBRANCH  19  20
ENDBRANCH  18  19
ENDBRANCH  10  18
TORSDOF 6
ENDMDL
