MODEL 1
REMARK VINA RESULT:      -7.9      0.000      0.000
REMARK  Name = 
REMARK  6 active torsions:
REMARK  status: ('A' for Active; 'I' for Inactive)
REMARK    1  A    between atoms: C_2  and  C_27
REMARK    2  A    between atoms: N_3  and  C_4
REMARK    3  A    between atoms: C_6  and  S_7
REMARK    4  A    between atoms: S_7  and  N_10
REMARK    5  A    between atoms: N_10  and  C_11
REMARK    6  A    between atoms: C_20  and  N_21
REMARK                            x       y       z     vdW  Elec       q    Type
REMARK                         _______ _______ _______ _____ _____    ______ ____
ROOT
ATOM      1  C   UNL     1       4.113   5.792  19.037  0.00  0.00    +0.000 A 
ATOM      2  C   UNL     1       5.164   6.168  18.186  0.00  0.00    +0.000 A 
ATOM      3  C   UNL     1       5.895   5.198  17.504  0.00  0.00    +0.000 A 
ATOM      4  C   UNL     1       5.625   3.852  17.709  0.00  0.00    +0.000 A 
ATOM      5  C   UNL     1       4.584   3.485  18.567  0.00  0.00    +0.000 A 
ATOM      6  C   UNL     1       3.749   4.431  19.203  0.00  0.00    +0.000 A 
ENDROOT
BRANCH   6   7
ATOM      7  N   UNL     1       2.622   4.008  19.899  0.00  0.00    +0.000 N 
ATOM      8  C   UNL     1       2.574   4.120  21.365  0.00  0.00    +0.000 C 
ATOM      9  C   UNL     1       2.022   2.809  21.921  0.00  0.00    +0.000 C 
ATOM     10  C   UNL     1       0.660   2.479  21.314  0.00  0.00    +0.000 C 
ATOM     11  C   UNL     1       0.696   2.545  19.785  0.00  0.00    +0.000 C 
ATOM     12  C   UNL     1       1.300   3.864  19.283  0.00  0.00    +0.000 C 
ENDBRANCH   6   7
BRANCH   1  15
ATOM     13  O   UNL     1       1.983   7.169  17.759  0.00  0.00    +0.000 OA
ATOM     14  C   UNL     1       2.320   7.454  18.906  0.00  0.00    +0.000 C 
ATOM     15  N   UNL     1       3.349   6.835  19.603  0.00  0.00    +0.000 N 
ATOM     16  H   UNL     1       3.732   7.240  20.443  0.00  0.00    +0.000 HD
BRANCH  14  17
ATOM     17  C   UNL     1       1.603   8.560  19.604  0.00  0.00    +0.000 A 
ATOM     18  C   UNL     1       1.281   8.383  20.961  0.00  0.00    +0.000 A 
ATOM     19  C   UNL     1       0.619   9.390  21.659  0.00  0.00    +0.000 A 
ATOM     20  C   UNL     1       0.267  10.567  21.005  0.00  0.00    +0.000 A 
ATOM     21  F   UNL     1      -0.373  11.534  21.675  0.00  0.00    +0.000 F 
ATOM     22  C   UNL     1       0.562  10.750  19.658  0.00  0.00    +0.000 A 
ATOM     23  C   UNL     1       1.224   9.740  18.954  0.00  0.00    +0.000 A 
ENDBRANCH  14  17
ENDBRANCH   1  15
BRANCH   3  24
ATOM     24  S   UNL     1       7.095   5.711  16.300  0.00  0.00    +0.000 S 
ATOM     25  O   UNL     1       7.646   6.984  16.727  0.00  0.00    +0.000 OA
ATOM     26  O   UNL     1       7.954   4.577  16.036  0.00  0.00    +0.000 OA
BRANCH  24  27
ATOM     27  N   UNL     1       6.163   5.954  14.909  0.00  0.00    +0.000 N 
ATOM     28  H   UNL     1       6.195   6.930  14.618  0.00  0.00    +0.000 HD
BRANCH  27  29
ATOM     29  C   UNL     1       6.243   4.972  13.889  0.00  0.00    +0.000 A 
ATOM     30  C   UNL     1       5.296   3.947  13.856  0.00  0.00    +0.000 A 
ATOM     31  C   UNL     1       5.393   2.942  12.891  0.00  0.00    +0.000 A 
ATOM     32  C   UNL     1       6.455   2.952  11.988  0.00  0.00    +0.000 A 
ATOM     33 CL   UNL     1       6.590   1.703  10.813  0.00  0.00    +0.000 Cl
ATOM     34  C   UNL     1       7.414   3.962  12.035  0.00  0.00    +0.000 A 
ATOM     35  C   UNL     1       7.302   4.982  12.982  0.00  0.00    +0.000 A 
ENDBRANCH  27  29
ENDBRANCH  24  27
ENDBRANCH   3  24
TORSDOF 6
ENDMDL
MODEL 2
REMARK VINA RESULT:      -7.8      0.528      1.306
REMARK  Name = 
REMARK  6 active torsions:
REMARK  status: ('A' for Active; 'I' for Inactive)
REMARK    1  A    between atoms: C_2  and  C_27
REMARK    2  A    between atoms: N_3  and  C_4
REMARK    3  A    between atoms: C_6  and  S_7
REMARK    4  A    between atoms: S_7  and  N_10
REMARK    5  A    between atoms: N_10  and  C_11
REMARK    6  A    between atoms: C_20  and  N_21
REMARK                            x       y       z     vdW  Elec       q    Type
REMARK                         _______ _______ _______ _____ _____    ______ ____
ROOT
ATOM      1  C   UNL     1       3.931   5.893  19.022  0.00  0.00    +0.000 A 
ATOM      2  C   UNL     1       4.989   6.300  18.193  0.00  0.00    +0.000 A 
ATOM      3  C   UNL     1       5.875   5.359  17.674  0.00  0.00    +0.000 A 
ATOM      4  C   UNL     1       5.751   4.021  18.023  0.00  0.00    +0.000 A 
ATOM      5  C   UNL     1       4.702   3.625  18.858  0.00  0.00    +0.000 A 
ATOM      6  C   UNL     1       3.718   4.524  19.327  0.00  0.00    +0.000 A 
ENDROOT
BRANCH   6   7
ATOM      7  N   UNL     1       2.602   4.044  20.004  0.00  0.00    +0.000 N 
ATOM      8  C   UNL     1       2.543   4.110  21.472  0.00  0.00    +0.000 C 
ATOM      9  C   UNL     1       2.030   2.766  21.984  0.00  0.00    +0.000 C 
ATOM     10  C   UNL     1       0.683   2.411  21.359  0.00  0.00    +0.000 C 
ATOM     11  C   UNL     1       0.725   2.524  19.833  0.00  0.00    +0.000 C 
ATOM     12  C   UNL     1       1.289   3.876  19.376  0.00  0.00    +0.000 C 
ENDBRANCH   6   7
BRANCH   1  15
ATOM     13  O   UNL     1       2.685   7.773  17.296  0.00  0.00    +0.000 OA
ATOM     14  C   UNL     1       2.446   7.769  18.502  0.00  0.00    +0.000 C 
ATOM     15  N   UNL     1       3.012   6.889  19.415  0.00  0.00    +0.000 N 
ATOM     16  H   UNL     1       2.960   7.059  20.407  0.00  0.00    +0.000 HD
BRANCH  14  17
ATOM     17  C   UNL     1       1.508   8.793  19.045  0.00  0.00    +0.000 A 
ATOM     18  C   UNL     1       0.923   9.696  18.140  0.00  0.00    +0.000 A 
ATOM     19  C   UNL     1       0.034  10.666  18.596  0.00  0.00    +0.000 A 
ATOM     20  C   UNL     1      -0.264  10.745  19.954  0.00  0.00    +0.000 A 
ATOM     21  F   UNL     1      -1.117  11.680  20.393  0.00  0.00    +0.000 F 
ATOM     22  C   UNL     1       0.319   9.870  20.865  0.00  0.00    +0.000 A 
ATOM     23  C   UNL     1       1.214   8.897  20.408  0.00  0.00    +0.000 A 
ENDBRANCH  14  17
ENDBRANCH   1  15
BRANCH   3  24
ATOM     24  S   UNL     1       7.089   5.880  16.489  0.00  0.00    +0.000 S 
ATOM     25  O   UNL     1       7.581   7.185  16.891  0.00  0.00    +0.000 OA
ATOM     26  O   UNL     1       7.995   4.772  16.283  0.00  0.00    +0.000 OA
BRANCH  24  27
ATOM     27  N   UNL     1       6.189   6.048  15.066  0.00  0.00    +0.000 N 
ATOM     28  H   UNL     1       6.243   7.002  14.714  0.00  0.00    +0.000 HD
BRANCH  27  29
ATOM     29  C   UNL     1       6.271   5.000  14.113  0.00  0.00    +0.000 A 
ATOM     30  C   UNL     1       7.274   5.038  13.144  0.00  0.00    +0.000 A 
ATOM     31  C   UNL     1       7.335   4.043  12.166  0.00  0.00    +0.000 A 
ATOM     32  C   UNL     1       6.370   3.036  12.146  0.00  0.00    +0.000 A 
ATOM     33 CL   UNL     1       6.428   1.822  10.929  0.00  0.00    +0.000 Cl
ATOM     34  C   UNL     1       5.354   3.010  13.099  0.00  0.00    +0.000 A 
ATOM     35  C   UNL     1       5.310   3.989  14.094  0.00  0.00    +0.000 A 
ENDBRANCH  27  29
ENDBRANCH  24  27
ENDBRANCH   3  24
TORSDOF 6
ENDMDL
MODEL 3
REMARK VINA RESULT:      -7.8      4.948      9.162
REMARK  Name = 
REMARK  6 active torsions:
REMARK  status: ('A' for Active; 'I' for Inactive)
REMARK    1  A    between atoms: C_2  and  C_27
REMARK    2  A    between atoms: N_3  and  C_4
REMARK    3  A    between atoms: C_6  and  S_7
REMARK    4  A    between atoms: S_7  and  N_10
REMARK    5  A    between atoms: N_10  and  C_11
REMARK    6  A    between atoms: C_20  and  N_21
REMARK                            x       y       z     vdW  Elec       q    Type
REMARK                         _______ _______ _______ _____ _____    ______ ____
ROOT
ATOM      1  C   UNL     1       2.516   6.039  18.834  0.00  0.00    +0.000 A 
ATOM      2  C   UNL     1       2.251   7.377  19.166  0.00  0.00    +0.000 A 
ATOM      3  C   UNL     1       1.516   7.683  20.308  0.00  0.00    +0.000 A 
ATOM      4  C   UNL     1       0.992   6.664  21.092  0.00  0.00    +0.000 A 
ATOM      5  C   UNL     1       1.251   5.334  20.749  0.00  0.00    +0.000 A 
ATOM      6  C   UNL     1       2.075   4.973  19.660  0.00  0.00    +0.000 A 
ENDROOT
BRANCH   6   7
ATOM      7  N   UNL     1       2.442   3.644  19.474  0.00  0.00    +0.000 N 
ATOM      8  C   UNL     1       3.202   2.935  20.515  0.00  0.00    +0.000 C 
ATOM      9  C   UNL     1       4.330   2.165  19.833  0.00  0.00    +0.000 C 
ATOM     10  C   UNL     1       3.790   1.224  18.758  0.00  0.00    +0.000 C 
ATOM     11  C   UNL     1       2.856   1.955  17.790  0.00  0.00    +0.000 C 
ATOM     12  C   UNL     1       1.770   2.747  18.531  0.00  0.00    +0.000 C 
ENDBRANCH   6   7
BRANCH   1  15
ATOM     13  O   UNL     1       5.283   5.408  18.960  0.00  0.00    +0.000 OA
ATOM     14  C   UNL     1       4.707   5.507  17.879  0.00  0.00    +0.000 C 
ATOM     15  N   UNL     1       3.362   5.814  17.726  0.00  0.00    +0.000 N 
ATOM     16  H   UNL     1       2.986   6.099  16.835  0.00  0.00    +0.000 HD
BRANCH  14  17
ATOM     17  C   UNL     1       5.500   5.316  16.631  0.00  0.00    +0.000 A 
ATOM     18  C   UNL     1       4.919   4.574  15.587  0.00  0.00    +0.000 A 
ATOM     19  C   UNL     1       5.616   4.374  14.399  0.00  0.00    +0.000 A 
ATOM     20  C   UNL     1       6.896   4.903  14.252  0.00  0.00    +0.000 A 
ATOM     21  F   UNL     1       7.568   4.708  13.110  0.00  0.00    +0.000 F 
ATOM     22  C   UNL     1       7.492   5.625  15.281  0.00  0.00    +0.000 A 
ATOM     23  C   UNL     1       6.795   5.824  16.476  0.00  0.00    +0.000 A 
ENDBRANCH  14  17
ENDBRANCH   1  15
BRANCH   3  24
ATOM     24  S   UNL     1       1.351   9.382  20.798  0.00  0.00    +0.000 S 
ATOM     25  O   UNL     1       1.995   9.544  22.089  0.00  0.00    +0.000 OA
ATOM     26  O   UNL     1       1.733  10.197  19.666  0.00  0.00    +0.000 OA
BRANCH  24  27
ATOM     27  N   UNL     1      -0.320   9.564  20.992  0.00  0.00    +0.000 N 
ATOM     28  H   UNL     1      -0.715   8.771  21.494  0.00  0.00    +0.000 HD
BRANCH  27  29
ATOM     29  C   UNL     1      -0.801  10.854  21.336  0.00  0.00    +0.000 A 
ATOM     30  C   UNL     1      -0.848  11.226  22.680  0.00  0.00    +0.000 A 
ATOM     31  C   UNL     1      -1.369  12.471  23.039  0.00  0.00    +0.000 A 
ATOM     32  C   UNL     1      -1.871  13.319  22.053  0.00  0.00    +0.000 A 
ATOM     33 CL   UNL     1      -2.536  14.843  22.493  0.00  0.00    +0.000 Cl
ATOM     34  C   UNL     1      -1.847  12.938  20.712  0.00  0.00    +0.000 A 
ATOM     35  C   UNL     1      -1.300  11.706  20.350  0.00  0.00    +0.000 A 
ENDBRANCH  27  29
ENDBRANCH  24  27
ENDBRANCH   3  24
TORSDOF 6
ENDMDL
MODEL 4
REMARK VINA RESULT:      -7.7      7.107     12.053
REMARK  Name = 
REMARK  6 active torsions:
REMARK  status: ('A' for Active; 'I' for Inactive)
REMARK    1  A    between atoms: C_2  and  C_27
REMARK    2  A    between atoms: N_3  and  C_4
REMARK    3  A    between atoms: C_6  and  S_7
REMARK    4  A    between atoms: S_7  and  N_10
REMARK    5  A    between atoms: N_10  and  C_11
REMARK    6  A    between atoms: C_20  and  N_21
REMARK                            x       y       z     vdW  Elec       q    Type
REMARK                         _______ _______ _______ _____ _____    ______ ____
ROOT
ATOM      1  C   UNL     1      -0.146  12.765  21.736  0.00  0.00    +0.000 A 
ATOM      2  C   UNL     1      -1.252  12.541  22.571  0.00  0.00    +0.000 A 
ATOM      3  C   UNL     1      -2.031  13.611  23.005  0.00  0.00    +0.000 A 
ATOM      4  C   UNL     1      -1.681  14.910  22.662  0.00  0.00    +0.000 A 
ATOM      5  C   UNL     1      -0.572  15.126  21.839  0.00  0.00    +0.000 A 
ATOM      6  C   UNL     1       0.190  14.069  21.291  0.00  0.00    +0.000 A 
ENDROOT
BRANCH   6   7
ATOM      7  N   UNL     1       1.168  14.337  20.339  0.00  0.00    +0.000 N 
ATOM      8  C   UNL     1       0.838  14.292  18.907  0.00  0.00    +0.000 C 
ATOM      9  C   UNL     1       1.949  13.528  18.190  0.00  0.00    +0.000 C 
ATOM     10  C   UNL     1       3.316  14.155  18.457  0.00  0.00    +0.000 C 
ATOM     11  C   UNL     1       3.559  14.354  19.956  0.00  0.00    +0.000 C 
ATOM     12  C   UNL     1       2.392  15.088  20.631  0.00  0.00    +0.000 C 
ENDBRANCH   6   7
BRANCH   1  15
ATOM     13  O   UNL     1      -0.921  11.224  19.480  0.00  0.00    +0.000 OA
ATOM     14  C   UNL     1       0.077  10.928  20.133  0.00  0.00    +0.000 C 
ATOM     15  N   UNL     1       0.525  11.623  21.249  0.00  0.00    +0.000 N 
ATOM     16  H   UNL     1       1.207  11.225  21.876  0.00  0.00    +0.000 HD
BRANCH  14  17
ATOM     17  C   UNL     1       0.857   9.722  19.732  0.00  0.00    +0.000 A 
ATOM     18  C   UNL     1       1.259   9.614  18.389  0.00  0.00    +0.000 A 
ATOM     19  C   UNL     1       1.997   8.512  17.966  0.00  0.00    +0.000 A 
ATOM     20  C   UNL     1       2.324   7.510  18.876  0.00  0.00    +0.000 A 
ATOM     21  F   UNL     1       3.031   6.448  18.469  0.00  0.00    +0.000 F 
ATOM     22  C   UNL     1       1.919   7.593  20.204  0.00  0.00    +0.000 A 
ATOM     23  C   UNL     1       1.176   8.698  20.630  0.00  0.00    +0.000 A 
ENDBRANCH  14  17
ENDBRANCH   1  15
BRANCH   3  24
ATOM     24  S   UNL     1      -3.523  13.280  23.908  0.00  0.00    +0.000 S 
ATOM     25  O   UNL     1      -3.710  11.842  23.960  0.00  0.00    +0.000 OA
ATOM     26  O   UNL     1      -3.480  14.072  25.118  0.00  0.00    +0.000 OA
BRANCH  24  27
ATOM     27  N   UNL     1      -4.724  13.954  22.924  0.00  0.00    +0.000 N 
ATOM     28  H   UNL     1      -4.516  14.929  22.716  0.00  0.00    +0.000 HD
BRANCH  27  29
ATOM     29  C   UNL     1      -5.222  13.157  21.861  0.00  0.00    +0.000 A 
ATOM     30  C   UNL     1      -4.477  13.048  20.686  0.00  0.00    +0.000 A 
ATOM     31  C   UNL     1      -4.979  12.311  19.611  0.00  0.00    +0.000 A 
ATOM     32  C   UNL     1      -6.237  11.719  19.708  0.00  0.00    +0.000 A 
ATOM     33 CL   UNL     1      -6.868  10.830  18.377  0.00  0.00    +0.000 Cl
ATOM     34  C   UNL     1      -6.992  11.847  20.873  0.00  0.00    +0.000 A 
ATOM     35  C   UNL     1      -6.478  12.559  21.958  0.00  0.00    +0.000 A 
ENDBRANCH  27  29
ENDBRANCH  24  27
ENDBRANCH   3  24
TORSDOF 6
ENDMDL
MODEL 5
REMARK VINA RESULT:      -7.7      4.458      8.125
REMARK  Name = 
REMARK  6 active torsions:
REMARK  status: ('A' for Active; 'I' for Inactive)
REMARK    1  A    between atoms: C_2  and  C_27
REMARK    2  A    between atoms: N_3  and  C_4
REMARK    3  A    between atoms: C_6  and  S_7
REMARK    4  A    between atoms: S_7  and  N_10
REMARK    5  A    between atoms: N_10  and  C_11
REMARK    6  A    between atoms: C_20  and  N_21
REMARK                            x       y       z     vdW  Elec       q    Type
REMARK                         _______ _______ _______ _____ _____    ______ ____
ROOT
ATOM      1  C   UNL     1       2.442   6.034  18.922  0.00  0.00    +0.000 A 
ATOM      2  C   UNL     1       2.140   7.357  19.281  0.00  0.00    +0.000 A 
ATOM      3  C   UNL     1       1.369   7.619  20.410  0.00  0.00    +0.000 A 
ATOM      4  C   UNL     1       0.845   6.569  21.153  0.00  0.00    +0.000 A 
ATOM      5  C   UNL     1       1.140   5.254  20.782  0.00  0.00    +0.000 A 
ATOM      6  C   UNL     1       1.999   4.938  19.707  0.00  0.00    +0.000 A 
ENDROOT
BRANCH   6   7
ATOM      7  N   UNL     1       2.398   3.622  19.497  0.00  0.00    +0.000 N 
ATOM      8  C   UNL     1       3.160   2.907  20.531  0.00  0.00    +0.000 C 
ATOM      9  C   UNL     1       4.313   2.176  19.847  0.00  0.00    +0.000 C 
ATOM     10  C   UNL     1       3.807   1.248  18.745  0.00  0.00    +0.000 C 
ATOM     11  C   UNL     1       2.870   1.980  17.782  0.00  0.00    +0.000 C 
ATOM     12  C   UNL     1       1.757   2.731  18.525  0.00  0.00    +0.000 C 
ENDBRANCH   6   7
BRANCH   1  15
ATOM     13  O   UNL     1       5.214   5.447  19.106  0.00  0.00    +0.000 OA
ATOM     14  C   UNL     1       4.666   5.566  18.013  0.00  0.00    +0.000 C 
ATOM     15  N   UNL     1       3.320   5.855  17.832  0.00  0.00    +0.000 N 
ATOM     16  H   UNL     1       2.964   6.158  16.939  0.00  0.00    +0.000 HD
BRANCH  14  17
ATOM     17  C   UNL     1       5.497   5.425  16.782  0.00  0.00    +0.000 A 
ATOM     18  C   UNL     1       4.968   4.680  15.713  0.00  0.00    +0.000 A 
ATOM     19  C   UNL     1       5.701   4.525  14.539  0.00  0.00    +0.000 A 
ATOM     20  C   UNL     1       6.965   5.101  14.433  0.00  0.00    +0.000 A 
ATOM     21  F   UNL     1       7.671   4.949  13.305  0.00  0.00    +0.000 F 
ATOM     22  C   UNL     1       7.509   5.826  15.488  0.00  0.00    +0.000 A 
ATOM     23  C   UNL     1       6.776   5.980  16.668  0.00  0.00    +0.000 A 
ENDBRANCH  14  17
ENDBRANCH   1  15
BRANCH   3  24
ATOM     24  S   UNL     1       1.157   9.300  20.939  0.00  0.00    +0.000 S 
ATOM     25  O   UNL     1      -0.194   9.445  21.449  0.00  0.00    +0.000 OA
ATOM     26  O   UNL     1       2.302   9.645  21.752  0.00  0.00    +0.000 OA
BRANCH  24  27
ATOM     27  N   UNL     1       1.297  10.176  19.499  0.00  0.00    +0.000 N 
ATOM     28  H   UNL     1       2.058   9.813  18.927  0.00  0.00    +0.000 HD
BRANCH  27  29
ATOM     29  C   UNL     1       0.097  10.530  18.830  0.00  0.00    +0.000 A 
ATOM     30  C   UNL     1      -0.553  11.714  19.181  0.00  0.00    +0.000 A 
ATOM     31  C   UNL     1      -1.763  12.051  18.570  0.00  0.00    +0.000 A 
ATOM     32  C   UNL     1      -2.330  11.182  17.639  0.00  0.00    +0.000 A 
ATOM     33 CL   UNL     1      -3.832  11.582  16.902  0.00  0.00    +0.000 Cl
ATOM     34  C   UNL     1      -1.694   9.988  17.305  0.00  0.00    +0.000 A 
ATOM     35  C   UNL     1      -0.470   9.665  17.894  0.00  0.00    +0.000 A 
ENDBRANCH  27  29
ENDBRANCH  24  27
ENDBRANCH   3  24
TORSDOF 6
ENDMDL
MODEL 6
REMARK VINA RESULT:      -7.7      0.976      1.783
REMARK  Name = 
REMARK  6 active torsions:
REMARK  status: ('A' for Active; 'I' for Inactive)
REMARK    1  A    between atoms: C_2  and  C_27
REMARK    2  A    between atoms: N_3  and  C_4
REMARK    3  A    between atoms: C_6  and  S_7
REMARK    4  A    between atoms: S_7  and  N_10
REMARK    5  A    between atoms: N_10  and  C_11
REMARK    6  A    between atoms: C_20  and  N_21
REMARK                            x       y       z     vdW  Elec       q    Type
REMARK                         _______ _______ _______ _____ _____    ______ ____
ROOT
ATOM      1  C   UNL     1       4.067   5.689  19.008  0.00  0.00    +0.000 A 
ATOM      2  C   UNL     1       4.954   6.350  18.142  0.00  0.00    +0.000 A 
ATOM      3  C   UNL     1       5.807   5.617  17.320  0.00  0.00    +0.000 A 
ATOM      4  C   UNL     1       5.826   4.231  17.396  0.00  0.00    +0.000 A 
ATOM      5  C   UNL     1       4.947   3.581  18.268  0.00  0.00    +0.000 A 
ATOM      6  C   UNL     1       3.993   4.273  19.047  0.00  0.00    +0.000 A 
ENDROOT
BRANCH   6   7
ATOM      7  N   UNL     1       3.030   3.565  19.758  0.00  0.00    +0.000 N 
ATOM      8  C   UNL     1       1.664   3.440  19.228  0.00  0.00    +0.000 C 
ATOM      9  C   UNL     1       0.688   3.708  20.371  0.00  0.00    +0.000 C 
ATOM     10  C   UNL     1       0.946   2.774  21.552  0.00  0.00    +0.000 C 
ATOM     11  C   UNL     1       2.419   2.791  21.969  0.00  0.00    +0.000 C 
ATOM     12  C   UNL     1       3.354   2.561  20.775  0.00  0.00    +0.000 C 
ENDBRANCH   6   7
BRANCH   1  15
ATOM     13  O   UNL     1       2.367   7.668  17.887  0.00  0.00    +0.000 OA
ATOM     14  C   UNL     1       2.360   7.442  19.094  0.00  0.00    +0.000 C 
ATOM     15  N   UNL     1       3.158   6.497  19.725  0.00  0.00    +0.000 N 
ATOM     16  H   UNL     1       3.281   6.496  20.725  0.00  0.00    +0.000 HD
BRANCH  14  17
ATOM     17  C   UNL     1       1.458   8.250  19.965  0.00  0.00    +0.000 A 
ATOM     18  C   UNL     1       1.009   9.490  19.477  0.00  0.00    +0.000 A 
ATOM     19  C   UNL     1       0.160  10.278  20.248  0.00  0.00    +0.000 A 
ATOM     20  C   UNL     1      -0.234   9.840  21.510  0.00  0.00    +0.000 A 
ATOM     21  F   UNL     1      -1.048  10.600  22.253  0.00  0.00    +0.000 F 
ATOM     22  C   UNL     1       0.216   8.624  22.015  0.00  0.00    +0.000 A 
ATOM     23  C   UNL     1       1.071   7.832  21.242  0.00  0.00    +0.000 A 
ENDBRANCH  14  17
ENDBRANCH   1  15
BRANCH   3  24
ATOM     24  S   UNL     1       6.785   6.474  16.112  0.00  0.00    +0.000 S 
ATOM     25  O   UNL     1       5.882   7.135  15.187  0.00  0.00    +0.000 OA
ATOM     26  O   UNL     1       7.799   7.219  16.825  0.00  0.00    +0.000 OA
BRANCH  24  27
ATOM     27  N   UNL     1       7.579   5.219  15.301  0.00  0.00    +0.000 N 
ATOM     28  H   UNL     1       8.076   4.621  15.959  0.00  0.00    +0.000 HD
BRANCH  27  29
ATOM     29  C   UNL     1       6.881   4.580  14.244  0.00  0.00    +0.000 A 
ATOM     30  C   UNL     1       7.459   4.541  12.974  0.00  0.00    +0.000 A 
ATOM     31  C   UNL     1       6.762   3.964  11.910  0.00  0.00    +0.000 A 
ATOM     32  C   UNL     1       5.478   3.460  12.119  0.00  0.00    +0.000 A 
ATOM     33 CL   UNL     1       4.607   2.769  10.806  0.00  0.00    +0.000 Cl
ATOM     34  C   UNL     1       4.891   3.519  13.382  0.00  0.00    +0.000 A 
ATOM     35  C   UNL     1       5.600   4.071  14.451  0.00  0.00    +0.000 A 
ENDBRANCH  27  29
ENDBRANCH  24  27
ENDBRANCH   3  24
TORSDOF 6
ENDMDL
MODEL 7
REMARK VINA RESULT:      -7.7      0.561      1.010
REMARK  Name = 
REMARK  6 active torsions:
REMARK  status: ('A' for Active; 'I' for Inactive)
REMARK    1  A    between atoms: C_2  and  C_27
REMARK    2  A    between atoms: N_3  and  C_4
REMARK    3  A    between atoms: C_6  and  S_7
REMARK    4  A    between atoms: S_7  and  N_10
REMARK    5  A    between atoms: N_10  and  C_11
REMARK    6  A    between atoms: C_20  and  N_21
REMARK                            x       y       z     vdW  Elec       q    Type
REMARK                         _______ _______ _______ _____ _____    ______ ____
ROOT
ATOM      1  C   UNL     1       4.306   5.447  19.003  0.00  0.00    +0.000 A 
ATOM      2  C   UNL     1       5.289   5.969  18.146  0.00  0.00    +0.000 A 
ATOM      3  C   UNL     1       6.071   5.114  17.375  0.00  0.00    +0.000 A 
ATOM      4  C   UNL     1       5.924   3.739  17.494  0.00  0.00    +0.000 A 
ATOM      5  C   UNL     1       4.951   3.226  18.357  0.00  0.00    +0.000 A 
ATOM      6  C   UNL     1       4.064   4.052  19.084  0.00  0.00    +0.000 A 
ENDROOT
BRANCH   6   7
ATOM      7  N   UNL     1       3.004   3.488  19.786  0.00  0.00    +0.000 N 
ATOM      8  C   UNL     1       1.666   3.425  19.179  0.00  0.00    +0.000 C 
ATOM      9  C   UNL     1       0.650   3.867  20.230  0.00  0.00    +0.000 C 
ATOM     10  C   UNL     1       0.759   3.023  21.498  0.00  0.00    +0.000 C 
ATOM     11  C   UNL     1       2.200   2.960  22.008  0.00  0.00    +0.000 C 
ATOM     12  C   UNL     1       3.182   2.553  20.901  0.00  0.00    +0.000 C 
ENDBRANCH   6   7
BRANCH   1  15
ATOM     13  O   UNL     1       2.251   6.992  17.796  0.00  0.00    +0.000 OA
ATOM     14  C   UNL     1       2.494   7.093  18.997  0.00  0.00    +0.000 C 
ATOM     15  N   UNL     1       3.480   6.380  19.665  0.00  0.00    +0.000 N 
ATOM     16  H   UNL     1       3.789   6.650  20.586  0.00  0.00    +0.000 HD
BRANCH  14  17
ATOM     17  C   UNL     1       1.703   8.068  19.802  0.00  0.00    +0.000 A 
ATOM     18  C   UNL     1       1.376   7.718  21.124  0.00  0.00    +0.000 A 
ATOM     19  C   UNL     1       0.646   8.597  21.920  0.00  0.00    +0.000 A 
ATOM     20  C   UNL     1       0.231   9.819  21.397  0.00  0.00    +0.000 A 
ATOM     21  F   UNL     1      -0.474  10.663  22.162  0.00  0.00    +0.000 F 
ATOM     22  C   UNL     1       0.531  10.173  20.086  0.00  0.00    +0.000 A 
ATOM     23  C   UNL     1       1.262   9.290  19.284  0.00  0.00    +0.000 A 
ENDBRANCH  14  17
ENDBRANCH   1  15
BRANCH   3  24
ATOM     24  S   UNL     1       7.177   5.807  16.172  0.00  0.00    +0.000 S 
ATOM     25  O   UNL     1       7.586   7.120  16.639  0.00  0.00    +0.000 OA
ATOM     26  O   UNL     1       8.155   4.792  15.848  0.00  0.00    +0.000 OA
BRANCH  24  27
ATOM     27  N   UNL     1       6.193   5.993  14.808  0.00  0.00    +0.000 N 
ATOM     28  H   UNL     1       6.191   6.961  14.492  0.00  0.00    +0.000 HD
BRANCH  27  29
ATOM     29  C   UNL     1       6.261   4.986  13.811  0.00  0.00    +0.000 A 
ATOM     30  C   UNL     1       5.332   3.945  13.830  0.00  0.00    +0.000 A 
ATOM     31  C   UNL     1       5.419   2.918  12.888  0.00  0.00    +0.000 A 
ATOM     32  C   UNL     1       6.456   2.923  11.956  0.00  0.00    +0.000 A 
ATOM     33 CL   UNL     1       6.580   1.647  10.809  0.00  0.00    +0.000 Cl
ATOM     34  C   UNL     1       7.398   3.950  11.950  0.00  0.00    +0.000 A 
ATOM     35  C   UNL     1       7.295   4.992  12.874  0.00  0.00    +0.000 A 
ENDBRANCH  27  29
ENDBRANCH  24  27
ENDBRANCH   3  24
TORSDOF 6
ENDMDL
MODEL 8
REMARK VINA RESULT:      -7.6      7.115     11.999
REMARK  Name = 
REMARK  6 active torsions:
REMARK  status: ('A' for Active; 'I' for Inactive)
REMARK    1  A    between atoms: C_2  and  C_27
REMARK    2  A    between atoms: N_3  and  C_4
REMARK    3  A    between atoms: C_6  and  S_7
REMARK    4  A    between atoms: S_7  and  N_10
REMARK    5  A    between atoms: N_10  and  C_11
REMARK    6  A    between atoms: C_20  and  N_21
REMARK                            x       y       z     vdW  Elec       q    Type
REMARK                         _______ _______ _______ _____ _____    ______ ____
ROOT
ATOM      1  C   UNL     1      -0.106  12.788  21.745  0.00  0.00    +0.000 A 
ATOM      2  C   UNL     1      -1.242  12.556  22.538  0.00  0.00    +0.000 A 
ATOM      3  C   UNL     1      -2.001  13.626  23.004  0.00  0.00    +0.000 A 
ATOM      4  C   UNL     1      -1.604  14.929  22.737  0.00  0.00    +0.000 A 
ATOM      5  C   UNL     1      -0.466  15.152  21.957  0.00  0.00    +0.000 A 
ATOM      6  C   UNL     1       0.279  14.102  21.376  0.00  0.00    +0.000 A 
ENDROOT
BRANCH   6   7
ATOM      7  N   UNL     1       1.292  14.386  20.466  0.00  0.00    +0.000 N 
ATOM      8  C   UNL     1       0.993  14.464  19.028  0.00  0.00    +0.000 C 
ATOM      9  C   UNL     1       2.079  13.697  18.278  0.00  0.00    +0.000 C 
ATOM     10  C   UNL     1       3.470  14.230  18.616  0.00  0.00    +0.000 C 
ATOM     11  C   UNL     1       3.688  14.306  20.130  0.00  0.00    +0.000 C 
ATOM     12  C   UNL     1       2.546  15.049  20.836  0.00  0.00    +0.000 C 
ENDBRANCH   6   7
BRANCH   1  15
ATOM     13  O   UNL     1      -0.851  11.398  19.383  0.00  0.00    +0.000 OA
ATOM     14  C   UNL     1       0.113  11.033  20.052  0.00  0.00    +0.000 C 
ATOM     15  N   UNL     1       0.544  11.651  21.218  0.00  0.00    +0.000 N 
ATOM     16  H   UNL     1       1.190  11.197  21.845  0.00  0.00    +0.000 HD
BRANCH  14  17
ATOM     17  C   UNL     1       0.869   9.825  19.611  0.00  0.00    +0.000 A 
ATOM     18  C   UNL     1       1.148   8.836  20.571  0.00  0.00    +0.000 A 
ATOM     19  C   UNL     1       1.843   7.686  20.207  0.00  0.00    +0.000 A 
ATOM     20  C   UNL     1       2.272   7.525  18.892  0.00  0.00    +0.000 A 
ATOM     21  F   UNL     1       2.944   6.420  18.544  0.00  0.00    +0.000 F 
ATOM     22  C   UNL     1       2.020   8.502  17.935  0.00  0.00    +0.000 A 
ATOM     23  C   UNL     1       1.324   9.659  18.299  0.00  0.00    +0.000 A 
ENDBRANCH  14  17
ENDBRANCH   1  15
BRANCH   3  24
ATOM     24  S   UNL     1      -3.527  13.297  23.849  0.00  0.00    +0.000 S 
ATOM     25  O   UNL     1      -3.747  11.862  23.841  0.00  0.00    +0.000 OA
ATOM     26  O   UNL     1      -3.504  14.041  25.089  0.00  0.00    +0.000 OA
BRANCH  24  27
ATOM     27  N   UNL     1      -4.682  14.034  22.857  0.00  0.00    +0.000 N 
ATOM     28  H   UNL     1      -4.419  14.996  22.648  0.00  0.00    +0.000 HD
BRANCH  27  29
ATOM     29  C   UNL     1      -5.217  13.263  21.793  0.00  0.00    +0.000 A 
ATOM     30  C   UNL     1      -6.444  12.621  21.968  0.00  0.00    +0.000 A 
ATOM     31  C   UNL     1      -6.958  11.814  20.951  0.00  0.00    +0.000 A 
ATOM     32  C   UNL     1      -6.225  11.630  19.779  0.00  0.00    +0.000 A 
ATOM     33 CL   UNL     1      -6.845  10.619  18.533  0.00  0.00    +0.000 Cl
ATOM     34  C   UNL     1      -4.989  12.253  19.612  0.00  0.00    +0.000 A 
ATOM     35  C   UNL     1      -4.488  13.081  20.618  0.00  0.00    +0.000 A 
ENDBRANCH  27  29
ENDBRANCH  24  27
ENDBRANCH   3  24
TORSDOF 6
ENDMDL
MODEL 9
REMARK VINA RESULT:      -7.6      0.973      1.097
REMARK  Name = 
REMARK  6 active torsions:
REMARK  status: ('A' for Active; 'I' for Inactive)
REMARK    1  A    between atoms: C_2  and  C_27
REMARK    2  A    between atoms: N_3  and  C_4
REMARK    3  A    between atoms: C_6  and  S_7
REMARK    4  A    between atoms: S_7  and  N_10
REMARK    5  A    between atoms: N_10  and  C_11
REMARK    6  A    between atoms: C_20  and  N_21
REMARK                            x       y       z     vdW  Elec       q    Type
REMARK                         _______ _______ _______ _____ _____    ______ ____
ROOT
ATOM      1  C   UNL     1       3.603   6.208  19.179  0.00  0.00    +0.000 A 
ATOM      2  C   UNL     1       4.498   6.797  18.271  0.00  0.00    +0.000 A 
ATOM      3  C   UNL     1       5.303   5.998  17.463  0.00  0.00    +0.000 A 
ATOM      4  C   UNL     1       5.267   4.616  17.594  0.00  0.00    +0.000 A 
ATOM      5  C   UNL     1       4.380   4.038  18.507  0.00  0.00    +0.000 A 
ATOM      6  C   UNL     1       3.472   4.799  19.276  0.00  0.00    +0.000 A 
ENDROOT
BRANCH   6   7
ATOM      7  N   UNL     1       2.495   4.161  20.033  0.00  0.00    +0.000 N 
ATOM      8  C   UNL     1       2.571   4.175  21.502  0.00  0.00    +0.000 C 
ATOM      9  C   UNL     1       2.281   2.762  22.003  0.00  0.00    +0.000 C 
ATOM     10  C   UNL     1       0.934   2.257  21.491  0.00  0.00    +0.000 C 
ATOM     11  C   UNL     1       0.813   2.421  19.974  0.00  0.00    +0.000 C 
ATOM     12  C   UNL     1       1.158   3.846  19.523  0.00  0.00    +0.000 C 
ENDBRANCH   6   7
BRANCH   1  15
ATOM     13  O   UNL     1       1.924   8.177  18.008  0.00  0.00    +0.000 OA
ATOM     14  C   UNL     1       1.951   8.015  19.225  0.00  0.00    +0.000 C 
ATOM     15  N   UNL     1       2.743   7.080  19.880  0.00  0.00    +0.000 N 
ATOM     16  H   UNL     1       2.899   7.130  20.875  0.00  0.00    +0.000 HD
BRANCH  14  17
ATOM     17  C   UNL     1       1.104   8.896  20.079  0.00  0.00    +0.000 A 
ATOM     18  C   UNL     1       1.063   8.634  21.460  0.00  0.00    +0.000 A 
ATOM     19  C   UNL     1       0.292   9.432  22.301  0.00  0.00    +0.000 A 
ATOM     20  C   UNL     1      -0.447  10.484  21.767  0.00  0.00    +0.000 A 
ATOM     21  F   UNL     1      -1.191  11.250  22.576  0.00  0.00    +0.000 F 
ATOM     22  C   UNL     1      -0.432  10.746  20.401  0.00  0.00    +0.000 A 
ATOM     23  C   UNL     1       0.339   9.943  19.555  0.00  0.00    +0.000 A 
ENDBRANCH  14  17
ENDBRANCH   1  15
BRANCH   3  24
ATOM     24  S   UNL     1       6.291   6.765  16.203  0.00  0.00    +0.000 S 
ATOM     25  O   UNL     1       5.403   7.213  15.145  0.00  0.00    +0.000 OA
ATOM     26  O   UNL     1       7.191   7.686  16.861  0.00  0.00    +0.000 OA
BRANCH  24  27
ATOM     27  N   UNL     1       7.234   5.486  15.624  0.00  0.00    +0.000 N 
ATOM     28  H   UNL     1       7.586   4.918  16.393  0.00  0.00    +0.000 HD
BRANCH  27  29
ATOM     29  C   UNL     1       6.770   4.800  14.472  0.00  0.00    +0.000 A 
ATOM     30  C   UNL     1       5.614   4.023  14.563  0.00  0.00    +0.000 A 
ATOM     31  C   UNL     1       5.174   3.298  13.453  0.00  0.00    +0.000 A 
ATOM     32  C   UNL     1       5.914   3.330  12.271  0.00  0.00    +0.000 A 
ATOM     33 CL   UNL     1       5.388   2.421  10.909  0.00  0.00    +0.000 Cl
ATOM     34  C   UNL     1       7.080   4.088  12.186  0.00  0.00    +0.000 A 
ATOM     35  C   UNL     1       7.505   4.834  13.287  0.00  0.00    +0.000 A 
ENDBRANCH  27  29
ENDBRANCH  24  27
ENDBRANCH   3  24
TORSDOF 6
ENDMDL
