MODEL 1
REMARK VINA RESULT:      -7.3      0.000      0.000
REMARK  Name = 
REMARK  9 active torsions:
REMARK  status: ('A' for Active; 'I' for Inactive)
REMARK    1  A    between atoms: C_1  and  O_2
REMARK    2  A    between atoms: O_2  and  C_3
REMARK    3  A    between atoms: C_5  and  C_6
REMARK    4  A    between atoms: C_12  and  C_13
REMARK    5  A    between atoms: C_13  and  C_15
REMARK    6  A    between atoms: C_18  and  O_19
REMARK    7  A    between atoms: C_20  and  O_21
REMARK    8  A    between atoms: O_21  and  C_22
REMARK    9  A    between atoms: C_26  and  O_27
REMARK                            x       y       z     vdW  Elec       q    Type
REMARK                         _______ _______ _______ _____ _____    ______ ____
ROOT
ATOM      1  C   UNL     1       2.052   7.852  17.920  0.00  0.00    +0.000 C 
ATOM      2  C   UNL     1       2.106   6.922  18.886  0.00  0.00    +0.000 C 
ATOM      3  C   UNL     1       1.623   7.057  20.281  0.00  0.00    +0.000 C 
ATOM      4  O   UNL     1       1.271   8.073  20.850  0.00  0.00    +0.000 OA
ATOM      5  O   UNL     1       1.576   5.810  20.827  0.00  0.00    +0.000 OA
ATOM      6  C   UNL     1       1.879   4.822  19.840  0.00  0.00    +0.000 C 
ATOM      7  C   UNL     1       2.601   5.528  18.718  0.00  0.00    +0.000 C 
ENDROOT
BRANCH   1  10
ATOM      8  C   UNL     1      -0.256  10.798  18.354  0.00  0.00    +0.000 A 
ATOM      9  C   UNL     1       0.229   9.500  18.146  0.00  0.00    +0.000 A 
ATOM     10  C   UNL     1       1.602   9.234  18.084  0.00  0.00    +0.000 A 
ATOM     11  C   UNL     1       2.509  10.287  18.211  0.00  0.00    +0.000 A 
ATOM     12  C   UNL     1       2.041  11.588  18.419  0.00  0.00    +0.000 A 
ATOM     13  C   UNL     1       0.666  11.841  18.502  0.00  0.00    +0.000 A 
BRANCH   8  15
ATOM     14  C   UNL     1      -2.322  11.212  17.221  0.00  0.00    +0.000 C 
ATOM     15  O   UNL     1      -1.623  10.854  18.403  0.00  0.00    +0.000 OA
ENDBRANCH   8  15
BRANCH  13  16
ATOM     16  O   UNL     1       0.260  13.126  18.741  0.00  0.00    +0.000 OA
ATOM     17  H   UNL     1       0.465  13.671  17.965  0.00  0.00    +0.000 HD
ENDBRANCH  13  16
ENDBRANCH   1  10
BRANCH   7  18
ATOM     18  C   UNL     1       4.117   5.400  18.911  0.00  0.00    +0.000 C 
ATOM     19  O   UNL     1       4.635   5.264  20.017  0.00  0.00    +0.000 OA
BRANCH  18  20
ATOM     20  C   UNL     1       5.004   5.435  17.701  0.00  0.00    +0.000 A 
ATOM     21  C   UNL     1       4.738   4.565  16.638  0.00  0.00    +0.000 A 
ATOM     22  C   UNL     1       5.575   4.542  15.517  0.00  0.00    +0.000 A 
ATOM     23  C   UNL     1       6.679   5.395  15.443  0.00  0.00    +0.000 A 
ATOM     24  C   UNL     1       6.939   6.296  16.480  0.00  0.00    +0.000 A 
ATOM     25  C   UNL     1       6.098   6.303  17.602  0.00  0.00    +0.000 A 
BRANCH  23  26
ATOM     26  O   UNL     1       7.488   5.321  14.345  0.00  0.00    +0.000 OA
ATOM     27  H   UNL     1       8.389   5.085  14.622  0.00  0.00    +0.000 HD
ENDBRANCH  23  26
BRANCH  24  28
ATOM     28  O   UNL     1       7.942   7.223  16.580  0.00  0.00    +0.000 OA
ATOM     29  C   UNL     1       7.860   8.193  17.613  0.00  0.00    +0.000 C 
ENDBRANCH  24  28
ENDBRANCH  18  20
ENDBRANCH   7  18
TORSDOF 7
ENDMDL
MODEL 2
REMARK VINA RESULT:      -7.2      1.520      2.178
REMARK  Name = 
REMARK  9 active torsions:
REMARK  status: ('A' for Active; 'I' for Inactive)
REMARK    1  A    between atoms: C_1  and  O_2
REMARK    2  A    between atoms: O_2  and  C_3
REMARK    3  A    between atoms: C_5  and  C_6
REMARK    4  A    between atoms: C_12  and  C_13
REMARK    5  A    between atoms: C_13  and  C_15
REMARK    6  A    between atoms: C_18  and  O_19
REMARK    7  A    between atoms: C_20  and  O_21
REMARK    8  A    between atoms: O_21  and  C_22
REMARK    9  A    between atoms: C_26  and  O_27
REMARK                            x       y       z     vdW  Elec       q    Type
REMARK                         _______ _______ _______ _____ _____    ______ ____
ROOT
ATOM      1  C   UNL     1       2.284   6.641  18.356  0.00  0.00    +0.000 C 
ATOM      2  C   UNL     1       2.175   5.324  18.594  0.00  0.00    +0.000 C 
ATOM      3  C   UNL     1       1.520   4.680  19.757  0.00  0.00    +0.000 C 
ATOM      4  O   UNL     1       1.137   5.211  20.782  0.00  0.00    +0.000 OA
ATOM      5  O   UNL     1       1.354   3.361  19.461  0.00  0.00    +0.000 OA
ATOM      6  C   UNL     1       1.744   3.099  18.112  0.00  0.00    +0.000 C 
ATOM      7  C   UNL     1       2.633   4.240  17.681  0.00  0.00    +0.000 C 
ENDROOT
BRANCH   1  10
ATOM      8  C   UNL     1       0.903   9.938  19.545  0.00  0.00    +0.000 A 
ATOM      9  C   UNL     1       1.361   8.900  18.723  0.00  0.00    +0.000 A 
ATOM     10  C   UNL     1       1.871   7.714  19.262  0.00  0.00    +0.000 A 
ATOM     11  C   UNL     1       1.945   7.567  20.648  0.00  0.00    +0.000 A 
ATOM     12  C   UNL     1       1.491   8.594  21.482  0.00  0.00    +0.000 A 
ATOM     13  C   UNL     1       0.962   9.769  20.933  0.00  0.00    +0.000 A 
BRANCH   8  15
ATOM     14  C   UNL     1      -0.964  11.056  18.550  0.00  0.00    +0.000 C 
ATOM     15  O   UNL     1       0.425  11.008  18.835  0.00  0.00    +0.000 OA
ENDBRANCH   8  15
BRANCH  13  16
ATOM     16  O   UNL     1       0.500  10.730  21.791  0.00  0.00    +0.000 OA
ATOM     17  H   UNL     1       0.941  10.627  22.649  0.00  0.00    +0.000 HD
ENDBRANCH  13  16
ENDBRANCH   1  10
BRANCH   7  18
ATOM     18  C   UNL     1       4.104   3.861  17.887  0.00  0.00    +0.000 C 
ATOM     19  O   UNL     1       4.486   3.177  18.833  0.00  0.00    +0.000 OA
BRANCH  18  20
ATOM     20  C   UNL     1       5.119   4.339  16.891  0.00  0.00    +0.000 A 
ATOM     21  C   UNL     1       5.189   3.717  15.640  0.00  0.00    +0.000 A 
ATOM     22  C   UNL     1       6.155   4.109  14.707  0.00  0.00    +0.000 A 
ATOM     23  C   UNL     1       7.054   5.135  15.011  0.00  0.00    +0.000 A 
ATOM     24  C   UNL     1       6.977   5.792  16.243  0.00  0.00    +0.000 A 
ATOM     25  C   UNL     1       6.009   5.383  17.173  0.00  0.00    +0.000 A 
BRANCH  23  26
ATOM     26  O   UNL     1       8.001   5.467  14.086  0.00  0.00    +0.000 OA
ATOM     27  H   UNL     1       8.121   4.730  13.465  0.00  0.00    +0.000 HD
ENDBRANCH  23  26
BRANCH  24  28
ATOM     28  O   UNL     1       7.739   6.828  16.712  0.00  0.00    +0.000 OA
ATOM     29  C   UNL     1       7.756   7.070  18.111  0.00  0.00    +0.000 C 
ENDBRANCH  24  28
ENDBRANCH  18  20
ENDBRANCH   7  18
TORSDOF 7
ENDMDL
MODEL 3
REMARK VINA RESULT:      -7.1      1.780      2.889
REMARK  Name = 
REMARK  9 active torsions:
REMARK  status: ('A' for Active; 'I' for Inactive)
REMARK    1  A    between atoms: C_1  and  O_2
REMARK    2  A    between atoms: O_2  and  C_3
REMARK    3  A    between atoms: C_5  and  C_6
REMARK    4  A    between atoms: C_12  and  C_13
REMARK    5  A    between atoms: C_13  and  C_15
REMARK    6  A    between atoms: C_18  and  O_19
REMARK    7  A    between atoms: C_20  and  O_21
REMARK    8  A    between atoms: O_21  and  C_22
REMARK    9  A    between atoms: C_26  and  O_27
REMARK                            x       y       z     vdW  Elec       q    Type
REMARK                         _______ _______ _______ _____ _____    ______ ____
ROOT
ATOM      1  C   UNL     1       2.395   6.113  18.184  0.00  0.00    +0.000 C 
ATOM      2  C   UNL     1       2.135   4.822  18.449  0.00  0.00    +0.000 C 
ATOM      3  C   UNL     1       1.281   4.291  19.538  0.00  0.00    +0.000 C 
ATOM      4  O   UNL     1       0.823   4.899  20.486  0.00  0.00    +0.000 OA
ATOM      5  O   UNL     1       1.031   2.980  19.266  0.00  0.00    +0.000 OA
ATOM      6  C   UNL     1       1.562   2.625  17.988  0.00  0.00    +0.000 C 
ATOM      7  C   UNL     1       2.601   3.663  17.640  0.00  0.00    +0.000 C 
ENDROOT
BRANCH   1  10
ATOM      8  C   UNL     1       0.941   9.469  19.087  0.00  0.00    +0.000 A 
ATOM      9  C   UNL     1       1.410   8.369  18.357  0.00  0.00    +0.000 A 
ATOM     10  C   UNL     1       1.973   7.256  18.993  0.00  0.00    +0.000 A 
ATOM     11  C   UNL     1       2.089   7.250  20.384  0.00  0.00    +0.000 A 
ATOM     12  C   UNL     1       1.625   8.340  21.127  0.00  0.00    +0.000 A 
ATOM     13  C   UNL     1       1.044   9.439  20.482  0.00  0.00    +0.000 A 
BRANCH   8  15
ATOM     14  C   UNL     1      -1.000  10.498  18.139  0.00  0.00    +0.000 C 
ATOM     15  O   UNL     1       0.410  10.448  18.291  0.00  0.00    +0.000 OA
ENDBRANCH   8  15
BRANCH  13  16
ATOM     16  O   UNL     1       0.575  10.466  21.256  0.00  0.00    +0.000 OA
ATOM     17  H   UNL     1      -0.337  10.271  21.521  0.00  0.00    +0.000 HD
ENDBRANCH  13  16
ENDBRANCH   1  10
BRANCH   7  18
ATOM     18  C   UNL     1       3.993   3.165  18.047  0.00  0.00    +0.000 C 
ATOM     19  O   UNL     1       4.215   1.997  18.356  0.00  0.00    +0.000 OA
BRANCH  18  20
ATOM     20  C   UNL     1       5.132   4.142  18.063  0.00  0.00    +0.000 A 
ATOM     21  C   UNL     1       5.536   4.694  19.284  0.00  0.00    +0.000 A 
ATOM     22  C   UNL     1       6.565   5.642  19.325  0.00  0.00    +0.000 A 
ATOM     23  C   UNL     1       7.206   6.039  18.148  0.00  0.00    +0.000 A 
ATOM     24  C   UNL     1       6.840   5.471  16.924  0.00  0.00    +0.000 A 
ATOM     25  C   UNL     1       5.801   4.528  16.896  0.00  0.00    +0.000 A 
BRANCH  23  26
ATOM     26  O   UNL     1       8.184   6.989  18.228  0.00  0.00    +0.000 OA
ATOM     27  H   UNL     1       7.991   7.592  18.965  0.00  0.00    +0.000 HD
ENDBRANCH  23  26
BRANCH  24  28
ATOM     28  O   UNL     1       7.361   5.703  15.680  0.00  0.00    +0.000 OA
ATOM     29  C   UNL     1       6.932   4.879  14.607  0.00  0.00    +0.000 C 
ENDBRANCH  24  28
ENDBRANCH  18  20
ENDBRANCH   7  18
TORSDOF 7
ENDMDL
MODEL 4
REMARK VINA RESULT:      -7.0      1.603      2.907
REMARK  Name = 
REMARK  9 active torsions:
REMARK  status: ('A' for Active; 'I' for Inactive)
REMARK    1  A    between atoms: C_1  and  O_2
REMARK    2  A    between atoms: O_2  and  C_3
REMARK    3  A    between atoms: C_5  and  C_6
REMARK    4  A    between atoms: C_12  and  C_13
REMARK    5  A    between atoms: C_13  and  C_15
REMARK    6  A    between atoms: C_18  and  O_19
REMARK    7  A    between atoms: C_20  and  O_21
REMARK    8  A    between atoms: O_21  and  C_22
REMARK    9  A    between atoms: C_26  and  O_27
REMARK                            x       y       z     vdW  Elec       q    Type
REMARK                         _______ _______ _______ _____ _____    ______ ____
ROOT
ATOM      1  C   UNL     1       2.456   6.194  18.251  0.00  0.00    +0.000 C 
ATOM      2  C   UNL     1       2.434   5.055  18.961  0.00  0.00    +0.000 C 
ATOM      3  C   UNL     1       1.766   4.831  20.265  0.00  0.00    +0.000 C 
ATOM      4  O   UNL     1       1.285   5.667  21.007  0.00  0.00    +0.000 OA
ATOM      5  O   UNL     1       1.717   3.488  20.481  0.00  0.00    +0.000 OA
ATOM      6  C   UNL     1       2.202   2.781  19.338  0.00  0.00    +0.000 C 
ATOM      7  C   UNL     1       3.025   3.757  18.533  0.00  0.00    +0.000 C 
ENDROOT
BRANCH   1  10
ATOM      8  C   UNL     1       1.430   9.034  20.504  0.00  0.00    +0.000 A 
ATOM      9  C   UNL     1       1.891   7.793  20.043  0.00  0.00    +0.000 A 
ATOM     10  C   UNL     1       1.912   7.483  18.679  0.00  0.00    +0.000 A 
ATOM     11  C   UNL     1       1.443   8.420  17.757  0.00  0.00    +0.000 A 
ATOM     12  C   UNL     1       0.980   9.662  18.201  0.00  0.00    +0.000 A 
ATOM     13  C   UNL     1       0.984   9.972  19.566  0.00  0.00    +0.000 A 
BRANCH   8  15
ATOM     14  C   UNL     1       0.295   9.149  22.607  0.00  0.00    +0.000 C 
ATOM     15  O   UNL     1       1.505   9.157  21.866  0.00  0.00    +0.000 OA
ENDBRANCH   8  15
BRANCH  13  16
ATOM     16  O   UNL     1       0.552  11.213  19.947  0.00  0.00    +0.000 OA
ATOM     17  H   UNL     1       0.783  11.854  19.256  0.00  0.00    +0.000 HD
ENDBRANCH  13  16
ENDBRANCH   1  10
BRANCH   7  18
ATOM     18  C   UNL     1       4.507   3.619  18.901  0.00  0.00    +0.000 C 
ATOM     19  O   UNL     1       4.919   2.764  19.681  0.00  0.00    +0.000 OA
BRANCH  18  20
ATOM     20  C   UNL     1       5.496   4.561  18.280  0.00  0.00    +0.000 A 
ATOM     21  C   UNL     1       6.293   5.355  19.112  0.00  0.00    +0.000 A 
ATOM     22  C   UNL     1       7.192   6.276  18.562  0.00  0.00    +0.000 A 
ATOM     23  C   UNL     1       7.309   6.405  17.176  0.00  0.00    +0.000 A 
ATOM     24  C   UNL     1       6.546   5.595  16.329  0.00  0.00    +0.000 A 
ATOM     25  C   UNL     1       5.643   4.682  16.893  0.00  0.00    +0.000 A 
BRANCH  23  26
ATOM     26  O   UNL     1       8.175   7.337  16.680  0.00  0.00    +0.000 OA
ATOM     27  H   UNL     1       7.693   8.158  16.487  0.00  0.00    +0.000 HD
ENDBRANCH  23  26
BRANCH  24  28
ATOM     28  O   UNL     1       6.539   5.551  14.961  0.00  0.00    +0.000 OA
ATOM     29  C   UNL     1       6.129   4.347  14.329  0.00  0.00    +0.000 C 
ENDBRANCH  24  28
ENDBRANCH  18  20
ENDBRANCH   7  18
TORSDOF 7
ENDMDL
MODEL 5
REMARK VINA RESULT:      -6.9      1.474      2.283
REMARK  Name = 
REMARK  9 active torsions:
REMARK  status: ('A' for Active; 'I' for Inactive)
REMARK    1  A    between atoms: C_1  and  O_2
REMARK    2  A    between atoms: O_2  and  C_3
REMARK    3  A    between atoms: C_5  and  C_6
REMARK    4  A    between atoms: C_12  and  C_13
REMARK    5  A    between atoms: C_13  and  C_15
REMARK    6  A    between atoms: C_18  and  O_19
REMARK    7  A    between atoms: C_20  and  O_21
REMARK    8  A    between atoms: O_21  and  C_22
REMARK    9  A    between atoms: C_26  and  O_27
REMARK                            x       y       z     vdW  Elec       q    Type
REMARK                         _______ _______ _______ _____ _____    ______ ____
ROOT
ATOM      1  C   UNL     1       2.347   6.487  18.129  0.00  0.00    +0.000 C 
ATOM      2  C   UNL     1       2.417   5.329  18.805  0.00  0.00    +0.000 C 
ATOM      3  C   UNL     1       1.929   5.071  20.180  0.00  0.00    +0.000 C 
ATOM      4  O   UNL     1       1.558   5.887  21.002  0.00  0.00    +0.000 OA
ATOM      5  O   UNL     1       1.904   3.722  20.365  0.00  0.00    +0.000 OA
ATOM      6  C   UNL     1       2.226   3.046  19.149  0.00  0.00    +0.000 C 
ATOM      7  C   UNL     1       2.937   4.042  18.266  0.00  0.00    +0.000 C 
ENDROOT
BRANCH   1  10
ATOM      8  C   UNL     1       1.423   9.167  20.609  0.00  0.00    +0.000 A 
ATOM      9  C   UNL     1       1.820   7.947  20.047  0.00  0.00    +0.000 A 
ATOM     10  C   UNL     1       1.872   7.765  18.660  0.00  0.00    +0.000 A 
ATOM     11  C   UNL     1       1.502   8.813  17.817  0.00  0.00    +0.000 A 
ATOM     12  C   UNL     1       1.104  10.038  18.363  0.00  0.00    +0.000 A 
ATOM     13  C   UNL     1       1.076  10.218  19.751  0.00  0.00    +0.000 A 
BRANCH   8  15
ATOM     14  C   UNL     1       0.218   9.191  22.676  0.00  0.00    +0.000 C 
ATOM     15  O   UNL     1       1.453   9.157  21.978  0.00  0.00    +0.000 OA
ENDBRANCH   8  15
BRANCH  13  16
ATOM     16  O   UNL     1       0.712  11.445  20.235  0.00  0.00    +0.000 OA
ATOM     17  H   UNL     1       0.678  12.077  19.501  0.00  0.00    +0.000 HD
ENDBRANCH  13  16
ENDBRANCH   1  10
BRANCH   7  18
ATOM     18  C   UNL     1       4.455   3.892  18.427  0.00  0.00    +0.000 C 
ATOM     19  O   UNL     1       4.970   3.401  19.428  0.00  0.00    +0.000 OA
BRANCH  18  20
ATOM     20  C   UNL     1       5.348   4.358  17.314  0.00  0.00    +0.000 A 
ATOM     21  C   UNL     1       5.366   3.642  16.113  0.00  0.00    +0.000 A 
ATOM     22  C   UNL     1       6.223   4.024  15.075  0.00  0.00    +0.000 A 
ATOM     23  C   UNL     1       7.061   5.132  15.223  0.00  0.00    +0.000 A 
ATOM     24  C   UNL     1       7.030   5.881  16.404  0.00  0.00    +0.000 A 
ATOM     25  C   UNL     1       6.173   5.481  17.440  0.00  0.00    +0.000 A 
BRANCH  23  26
ATOM     26  O   UNL     1       7.904   5.453  14.199  0.00  0.00    +0.000 OA
ATOM     27  H   UNL     1       7.884   4.751  13.529  0.00  0.00    +0.000 HD
ENDBRANCH  23  26
BRANCH  24  28
ATOM     28  O   UNL     1       7.745   7.003  16.727  0.00  0.00    +0.000 OA
ATOM     29  C   UNL     1       7.885   7.338  18.099  0.00  0.00    +0.000 C 
ENDBRANCH  24  28
ENDBRANCH  18  20
ENDBRANCH   7  18
TORSDOF 7
ENDMDL
MODEL 6
REMARK VINA RESULT:      -6.9      1.093      1.251
REMARK  Name = 
REMARK  9 active torsions:
REMARK  status: ('A' for Active; 'I' for Inactive)
REMARK    1  A    between atoms: C_1  and  O_2
REMARK    2  A    between atoms: O_2  and  C_3
REMARK    3  A    between atoms: C_5  and  C_6
REMARK    4  A    between atoms: C_12  and  C_13
REMARK    5  A    between atoms: C_13  and  C_15
REMARK    6  A    between atoms: C_18  and  O_19
REMARK    7  A    between atoms: C_20  and  O_21
REMARK    8  A    between atoms: O_21  and  C_22
REMARK    9  A    between atoms: C_26  and  O_27
REMARK                            x       y       z     vdW  Elec       q    Type
REMARK                         _______ _______ _______ _____ _____    ______ ____
ROOT
ATOM      1  C   UNL     1       2.217   6.466  17.838  0.00  0.00    +0.000 C 
ATOM      2  C   UNL     1       2.206   5.623  18.883  0.00  0.00    +0.000 C 
ATOM      3  C   UNL     1       1.846   5.947  20.284  0.00  0.00    +0.000 C 
ATOM      4  O   UNL     1       1.681   7.048  20.774  0.00  0.00    +0.000 OA
ATOM      5  O   UNL     1       1.661   4.771  20.947  0.00  0.00    +0.000 OA
ATOM      6  C   UNL     1       1.752   3.669  20.042  0.00  0.00    +0.000 C 
ATOM      7  C   UNL     1       2.486   4.162  18.819  0.00  0.00    +0.000 C 
ENDROOT
BRANCH   1  10
ATOM      8  C   UNL     1       0.394   9.745  18.178  0.00  0.00    +0.000 A 
ATOM      9  C   UNL     1       0.672   8.376  18.064  0.00  0.00    +0.000 A 
ATOM     10  C   UNL     1       1.980   7.908  17.896  0.00  0.00    +0.000 A 
ATOM     11  C   UNL     1       3.030   8.824  17.821  0.00  0.00    +0.000 A 
ATOM     12  C   UNL     1       2.769  10.194  17.934  0.00  0.00    +0.000 A 
ATOM     13  C   UNL     1       1.459  10.651  18.123  0.00  0.00    +0.000 A 
BRANCH   8  15
ATOM     14  C   UNL     1      -1.775  10.026  17.207  0.00  0.00    +0.000 C 
ATOM     15  O   UNL     1      -0.939  10.004  18.354  0.00  0.00    +0.000 OA
ENDBRANCH   8  15
BRANCH  13  16
ATOM     16  O   UNL     1       1.260  11.998  18.261  0.00  0.00    +0.000 OA
ATOM     17  H   UNL     1       1.949  12.361  18.839  0.00  0.00    +0.000 HD
ENDBRANCH  13  16
ENDBRANCH   1  10
BRANCH   7  18
ATOM     18  C   UNL     1       3.978   3.829  18.938  0.00  0.00    +0.000 C 
ATOM     19  O   UNL     1       4.433   3.136  19.844  0.00  0.00    +0.000 OA
BRANCH  18  20
ATOM     20  C   UNL     1       4.922   4.366  17.901  0.00  0.00    +0.000 A 
ATOM     21  C   UNL     1       4.756   3.979  16.566  0.00  0.00    +0.000 A 
ATOM     22  C   UNL     1       5.647   4.426  15.585  0.00  0.00    +0.000 A 
ATOM     23  C   UNL     1       6.707   5.270  15.926  0.00  0.00    +0.000 A 
ATOM     24  C   UNL     1       6.868   5.695  17.249  0.00  0.00    +0.000 A 
ATOM     25  C   UNL     1       5.972   5.233  18.224  0.00  0.00    +0.000 A 
BRANCH  23  26
ATOM     26  O   UNL     1       7.573   5.659  14.944  0.00  0.00    +0.000 OA
ATOM     27  H   UNL     1       8.481   5.434  15.205  0.00  0.00    +0.000 HD
ENDBRANCH  23  26
BRANCH  24  28
ATOM     28  O   UNL     1       7.813   6.535  17.771  0.00  0.00    +0.000 OA
ATOM     29  C   UNL     1       7.665   7.931  17.557  0.00  0.00    +0.000 C 
ENDBRANCH  24  28
ENDBRANCH  18  20
ENDBRANCH   7  18
TORSDOF 7
ENDMDL
MODEL 7
REMARK VINA RESULT:      -6.8      2.414      5.253
REMARK  Name = 
REMARK  9 active torsions:
REMARK  status: ('A' for Active; 'I' for Inactive)
REMARK    1  A    between atoms: C_1  and  O_2
REMARK    2  A    between atoms: O_2  and  C_3
REMARK    3  A    between atoms: C_5  and  C_6
REMARK    4  A    between atoms: C_12  and  C_13
REMARK    5  A    between atoms: C_13  and  C_15
REMARK    6  A    between atoms: C_18  and  O_19
REMARK    7  A    between atoms: C_20  and  O_21
REMARK    8  A    between atoms: O_21  and  C_22
REMARK    9  A    between atoms: C_26  and  O_27
REMARK                            x       y       z     vdW  Elec       q    Type
REMARK                         _______ _______ _______ _____ _____    ______ ____
ROOT
ATOM      1  C   UNL     1      -1.484   9.826  18.567  0.00  0.00    +0.000 C 
ATOM      2  C   UNL     1      -0.334  10.391  18.965  0.00  0.00    +0.000 C 
ATOM      3  C   UNL     1      -0.029  11.840  19.027  0.00  0.00    +0.000 C 
ATOM      4  O   UNL     1      -0.678  12.757  18.561  0.00  0.00    +0.000 OA
ATOM      5  O   UNL     1       1.104  11.994  19.768  0.00  0.00    +0.000 OA
ATOM      6  C   UNL     1       1.514  10.742  20.319  0.00  0.00    +0.000 C 
ATOM      7  C   UNL     1       0.849   9.662  19.501  0.00  0.00    +0.000 C 
ENDROOT
BRANCH   1  10
ATOM      8  C   UNL     1      -3.969  11.099  16.038  0.00  0.00    +0.000 A 
ATOM      9  C   UNL     1      -2.853  10.487  16.623  0.00  0.00    +0.000 A 
ATOM     10  C   UNL     1      -2.637  10.529  18.005  0.00  0.00    +0.000 A 
ATOM     11  C   UNL     1      -3.542  11.213  18.818  0.00  0.00    +0.000 A 
ATOM     12  C   UNL     1      -4.662  11.829  18.249  0.00  0.00    +0.000 A 
ATOM     13  C   UNL     1      -4.880  11.762  16.868  0.00  0.00    +0.000 A 
BRANCH   8  15
ATOM     14  C   UNL     1      -3.065  10.070  14.076  0.00  0.00    +0.000 C 
ATOM     15  O   UNL     1      -4.016  10.934  14.679  0.00  0.00    +0.000 OA
ENDBRANCH   8  15
BRANCH  13  16
ATOM     16  O   UNL     1      -6.008  12.352  16.365  0.00  0.00    +0.000 OA
ATOM     17  H   UNL     1      -6.720  12.282  17.019  0.00  0.00    +0.000 HD
ENDBRANCH  13  16
ENDBRANCH   1  10
BRANCH   7  18
ATOM     18  C   UNL     1       1.804   9.176  18.404  0.00  0.00    +0.000 C 
ATOM     19  O   UNL     1       2.048   9.837  17.398  0.00  0.00    +0.000 OA
BRANCH  18  20
ATOM     20  C   UNL     1       2.473   7.843  18.568  0.00  0.00    +0.000 A 
ATOM     21  C   UNL     1       3.414   7.433  17.617  0.00  0.00    +0.000 A 
ATOM     22  C   UNL     1       4.020   6.176  17.717  0.00  0.00    +0.000 A 
ATOM     23  C   UNL     1       3.700   5.321  18.775  0.00  0.00    +0.000 A 
ATOM     24  C   UNL     1       2.789   5.729  19.755  0.00  0.00    +0.000 A 
ATOM     25  C   UNL     1       2.182   6.988  19.637  0.00  0.00    +0.000 A 
BRANCH  23  26
ATOM     26  O   UNL     1       4.291   4.091  18.820  0.00  0.00    +0.000 OA
ATOM     27  H   UNL     1       3.635   3.425  19.085  0.00  0.00    +0.000 HD
ENDBRANCH  23  26
BRANCH  24  28
ATOM     28  O   UNL     1       2.371   5.055  20.871  0.00  0.00    +0.000 OA
ATOM     29  C   UNL     1       1.324   4.107  20.731  0.00  0.00    +0.000 C 
ENDBRANCH  24  28
ENDBRANCH  18  20
ENDBRANCH   7  18
TORSDOF 7
ENDMDL
MODEL 8
REMARK VINA RESULT:      -6.8      2.189      5.185
REMARK  Name = 
REMARK  9 active torsions:
REMARK  status: ('A' for Active; 'I' for Inactive)
REMARK    1  A    between atoms: C_1  and  O_2
REMARK    2  A    between atoms: O_2  and  C_3
REMARK    3  A    between atoms: C_5  and  C_6
REMARK    4  A    between atoms: C_12  and  C_13
REMARK    5  A    between atoms: C_13  and  C_15
REMARK    6  A    between atoms: C_18  and  O_19
REMARK    7  A    between atoms: C_20  and  O_21
REMARK    8  A    between atoms: O_21  and  C_22
REMARK    9  A    between atoms: C_26  and  O_27
REMARK                            x       y       z     vdW  Elec       q    Type
REMARK                         _______ _______ _______ _____ _____    ______ ____
ROOT
ATOM      1  C   UNL     1      -1.496  10.151  18.722  0.00  0.00    +0.000 C 
ATOM      2  C   UNL     1      -0.318  10.760  18.932  0.00  0.00    +0.000 C 
ATOM      3  C   UNL     1      -0.006  12.192  18.718  0.00  0.00    +0.000 C 
ATOM      4  O   UNL     1      -0.685  13.024  18.146  0.00  0.00    +0.000 OA
ATOM      5  O   UNL     1       1.177  12.456  19.338  0.00  0.00    +0.000 OA
ATOM      6  C   UNL     1       1.623  11.312  20.070  0.00  0.00    +0.000 C 
ATOM      7  C   UNL     1       0.898  10.117  19.501  0.00  0.00    +0.000 C 
ENDROOT
BRANCH   1  10
ATOM      8  C   UNL     1      -4.006  11.227  16.127  0.00  0.00    +0.000 A 
ATOM      9  C   UNL     1      -2.861  10.704  16.742  0.00  0.00    +0.000 A 
ATOM     10  C   UNL     1      -2.685  10.763  18.129  0.00  0.00    +0.000 A 
ATOM     11  C   UNL     1      -3.661  11.375  18.917  0.00  0.00    +0.000 A 
ATOM     12  C   UNL     1      -4.810  11.903  18.319  0.00  0.00    +0.000 A 
ATOM     13  C   UNL     1      -4.987  11.819  16.932  0.00  0.00    +0.000 A 
BRANCH   8  15
ATOM     14  C   UNL     1      -3.195  10.030  14.221  0.00  0.00    +0.000 C 
ATOM     15  O   UNL     1      -4.005  11.059  14.768  0.00  0.00    +0.000 OA
ENDBRANCH   8  15
BRANCH  13  16
ATOM     16  O   UNL     1      -6.143  12.320  16.399  0.00  0.00    +0.000 OA
ATOM     17  H   UNL     1      -6.031  12.422  15.441  0.00  0.00    +0.000 HD
ENDBRANCH  13  16
ENDBRANCH   1  10
BRANCH   7  18
ATOM     18  C   UNL     1       1.770   9.434  18.441  0.00  0.00    +0.000 C 
ATOM     19  O   UNL     1       2.071   9.976  17.381  0.00  0.00    +0.000 OA
BRANCH  18  20
ATOM     20  C   UNL     1       2.283   8.049  18.711  0.00  0.00    +0.000 A 
ATOM     21  C   UNL     1       1.906   7.403  19.894  0.00  0.00    +0.000 A 
ATOM     22  C   UNL     1       2.404   6.131  20.195  0.00  0.00    +0.000 A 
ATOM     23  C   UNL     1       3.277   5.488  19.313  0.00  0.00    +0.000 A 
ATOM     24  C   UNL     1       3.637   6.104  18.110  0.00  0.00    +0.000 A 
ATOM     25  C   UNL     1       3.136   7.383  17.824  0.00  0.00    +0.000 A 
BRANCH  23  26
ATOM     26  O   UNL     1       3.765   4.261  19.658  0.00  0.00    +0.000 OA
ATOM     27  H   UNL     1       3.088   3.584  19.495  0.00  0.00    +0.000 HD
ENDBRANCH  23  26
BRANCH  24  28
ATOM     28  O   UNL     1       4.446   5.630  17.113  0.00  0.00    +0.000 OA
ATOM     29  C   UNL     1       5.033   6.567  16.222  0.00  0.00    +0.000 C 
ENDBRANCH  24  28
ENDBRANCH  18  20
ENDBRANCH   7  18
TORSDOF 7
ENDMDL
MODEL 9
REMARK VINA RESULT:      -6.8      1.677      2.900
REMARK  Name = 
REMARK  9 active torsions:
REMARK  status: ('A' for Active; 'I' for Inactive)
REMARK    1  A    between atoms: C_1  and  O_2
REMARK    2  A    between atoms: O_2  and  C_3
REMARK    3  A    between atoms: C_5  and  C_6
REMARK    4  A    between atoms: C_12  and  C_13
REMARK    5  A    between atoms: C_13  and  C_15
REMARK    6  A    between atoms: C_18  and  O_19
REMARK    7  A    between atoms: C_20  and  O_21
REMARK    8  A    between atoms: O_21  and  C_22
REMARK    9  A    between atoms: C_26  and  O_27
REMARK                            x       y       z     vdW  Elec       q    Type
REMARK                         _______ _______ _______ _____ _____    ______ ____
ROOT
ATOM      1  C   UNL     1       2.379   6.709  18.428  0.00  0.00    +0.000 C 
ATOM      2  C   UNL     1       2.255   5.385  18.616  0.00  0.00    +0.000 C 
ATOM      3  C   UNL     1       1.538   4.707  19.721  0.00  0.00    +0.000 C 
ATOM      4  O   UNL     1       1.103   5.205  20.741  0.00  0.00    +0.000 OA
ATOM      5  O   UNL     1       1.384   3.399  19.374  0.00  0.00    +0.000 OA
ATOM      6  C   UNL     1       1.844   3.179  18.039  0.00  0.00    +0.000 C 
ATOM      7  C   UNL     1       2.757   4.329  17.694  0.00  0.00    +0.000 C 
ENDROOT
BRANCH   1  10
ATOM      8  C   UNL     1       0.895   9.948  19.650  0.00  0.00    +0.000 A 
ATOM      9  C   UNL     1       1.395   8.938  18.818  0.00  0.00    +0.000 A 
ATOM     10  C   UNL     1       1.922   7.753  19.345  0.00  0.00    +0.000 A 
ATOM     11  C   UNL     1       1.970   7.580  20.729  0.00  0.00    +0.000 A 
ATOM     12  C   UNL     1       1.474   8.580  21.573  0.00  0.00    +0.000 A 
ATOM     13  C   UNL     1       0.929   9.752  21.036  0.00  0.00    +0.000 A 
BRANCH   8  15
ATOM     14  C   UNL     1      -0.972  11.032  18.619  0.00  0.00    +0.000 C 
ATOM     15  O   UNL     1       0.407  11.020  18.951  0.00  0.00    +0.000 OA
ENDBRANCH   8  15
BRANCH  13  16
ATOM     16  O   UNL     1       0.427  10.685  21.902  0.00  0.00    +0.000 OA
ATOM     17  H   UNL     1       0.317  10.278  22.776  0.00  0.00    +0.000 HD
ENDBRANCH  13  16
ENDBRANCH   1  10
BRANCH   7  18
ATOM     18  C   UNL     1       4.215   3.938  17.964  0.00  0.00    +0.000 C 
ATOM     19  O   UNL     1       4.558   3.311  18.963  0.00  0.00    +0.000 OA
BRANCH  18  20
ATOM     20  C   UNL     1       5.265   4.330  16.966  0.00  0.00    +0.000 A 
ATOM     21  C   UNL     1       6.129   5.388  17.269  0.00  0.00    +0.000 A 
ATOM     22  C   UNL     1       7.088   5.807  16.340  0.00  0.00    +0.000 A 
ATOM     23  C   UNL     1       7.198   5.166  15.103  0.00  0.00    +0.000 A 
ATOM     24  C   UNL     1       6.366   4.084  14.797  0.00  0.00    +0.000 A 
ATOM     25  C   UNL     1       5.404   3.680  15.734  0.00  0.00    +0.000 A 
BRANCH  23  26
ATOM     26  O   UNL     1       8.126   5.625  14.212  0.00  0.00    +0.000 OA
ATOM     27  H   UNL     1       7.795   6.433  13.786  0.00  0.00    +0.000 HD
ENDBRANCH  23  26
BRANCH  24  28
ATOM     28  O   UNL     1       6.340   3.316  13.664  0.00  0.00    +0.000 OA
ATOM     29  C   UNL     1       5.491   3.718  12.600  0.00  0.00    +0.000 C 
ENDBRANCH  24  28
ENDBRANCH  18  20
ENDBRANCH   7  18
TORSDOF 7
ENDMDL
