MODEL 1
REMARK VINA RESULT:      -8.7      0.000      0.000
REMARK  Name = 
REMARK  6 active torsions:
REMARK  status: ('A' for Active; 'I' for Inactive)
REMARK    1  A    between atoms: C_1  and  O_2
REMARK    2  A    between atoms: O_2  and  C_3
REMARK    3  A    between atoms: C_9  and  C_10
REMARK    4  A    between atoms: C_16  and  C_17
REMARK    5  A    between atoms: N_19  and  C_20
REMARK    6  A    between atoms: C_20  and  C_21
REMARK                            x       y       z     vdW  Elec       q    Type
REMARK                         _______ _______ _______ _____ _____    ______ ____
ROOT
ATOM      1  C   UNL     1       3.928   3.978  18.658  0.00  0.00    +0.000 A 
ATOM      2  C   UNL     1       3.668   2.680  19.127  0.00  0.00    +0.000 A 
ATOM      3  C   UNL     1       2.739   2.475  20.140  0.00  0.00    +0.000 A 
ATOM      4  N   UNL     1       2.050   3.437  20.775  0.00  0.00    +0.000 NA
ATOM      5  C   UNL     1       2.325   4.664  20.308  0.00  0.00    +0.000 A 
ATOM      6  N   UNL     1       1.777   5.811  20.798  0.00  0.00    +0.000 N 
ATOM      7  C   UNL     1       2.225   6.885  20.103  0.00  0.00    +0.000 A 
ATOM      8  C   UNL     1       3.081   6.434  19.128  0.00  0.00    +0.000 A 
ATOM      9  C   UNL     1       3.191   5.015  19.282  0.00  0.00    +0.000 A 
ATOM     10  H   UNL     1       1.107   5.819  21.557  0.00  0.00    +0.000 HD
ENDROOT
BRANCH   1  17
ATOM     11  C   UNL     1       6.234   4.740  17.911  0.00  0.00    +0.000 A 
ATOM     12  C   UNL     1       7.128   5.034  16.869  0.00  0.00    +0.000 A 
ATOM     13  C   UNL     1       6.759   4.862  15.544  0.00  0.00    +0.000 A 
ATOM     14  C   UNL     1       5.486   4.414  15.247  0.00  0.00    +0.000 A 
ATOM     15  F   UNL     1       5.124   4.219  13.976  0.00  0.00    +0.000 F 
ATOM     16  C   UNL     1       4.581   4.170  16.262  0.00  0.00    +0.000 A 
ATOM     17  C   UNL     1       4.926   4.291  17.620  0.00  0.00    +0.000 A 
BRANCH  11  19
ATOM     18  C   UNL     1       7.673   5.691  19.544  0.00  0.00    +0.000 C 
ATOM     19  O   UNL     1       6.614   4.797  19.229  0.00  0.00    +0.000 OA
ENDBRANCH  11  19
ENDBRANCH   1  17
BRANCH   7  20
ATOM     20  C   UNL     1       1.895   8.339  20.370  0.00  0.00    +0.000 C 
ATOM     21  C   UNL     1       1.100   9.092  19.273  0.00  0.00    +0.000 C 
ATOM     22  N   UNL     1       0.210   9.670  20.317  0.00  0.00    +0.000 NA
ATOM     23  C   UNL     1       0.589   8.534  21.195  0.00  0.00    +0.000 C 
BRANCH  22  24
ATOM     24  C   UNL     1       0.741  10.964  20.817  0.00  0.00    +0.000 C 
BRANCH  24  25
ATOM     25  C   UNL     1      -0.385  11.920  21.279  0.00  0.00    +0.000 C 
ATOM     26  C   UNL     1      -0.927  11.570  22.673  0.00  0.00    +0.000 C 
ATOM     27  C   UNL     1      -2.101  12.464  23.057  0.00  0.00    +0.000 C 
ATOM     28  O   UNL     1      -3.137  12.359  22.080  0.00  0.00    +0.000 OA
ATOM     29  C   UNL     1      -2.707  12.791  20.792  0.00  0.00    +0.000 C 
ATOM     30  C   UNL     1      -1.552  11.935  20.275  0.00  0.00    +0.000 C 
ENDBRANCH  24  25
ENDBRANCH  22  24
ENDBRANCH   7  20
TORSDOF 5
ENDMDL
MODEL 2
REMARK VINA RESULT:      -8.3      0.618      1.001
REMARK  Name = 
REMARK  6 active torsions:
REMARK  status: ('A' for Active; 'I' for Inactive)
REMARK    1  A    between atoms: C_1  and  O_2
REMARK    2  A    between atoms: O_2  and  C_3
REMARK    3  A    between atoms: C_9  and  C_10
REMARK    4  A    between atoms: C_16  and  C_17
REMARK    5  A    between atoms: N_19  and  C_20
REMARK    6  A    between atoms: C_20  and  C_21
REMARK                            x       y       z     vdW  Elec       q    Type
REMARK                         _______ _______ _______ _____ _____    ______ ____
ROOT
ATOM      1  C   UNL     1       4.023   3.988  18.776  0.00  0.00    +0.000 A 
ATOM      2  C   UNL     1       3.840   2.691  19.284  0.00  0.00    +0.000 A 
ATOM      3  C   UNL     1       2.958   2.469  20.335  0.00  0.00    +0.000 A 
ATOM      4  N   UNL     1       2.246   3.413  20.970  0.00  0.00    +0.000 NA
ATOM      5  C   UNL     1       2.446   4.639  20.465  0.00  0.00    +0.000 A 
ATOM      6  N   UNL     1       1.861   5.771  20.947  0.00  0.00    +0.000 N 
ATOM      7  C   UNL     1       2.234   6.848  20.211  0.00  0.00    +0.000 A 
ATOM      8  C   UNL     1       3.077   6.413  19.217  0.00  0.00    +0.000 A 
ATOM      9  C   UNL     1       3.259   5.004  19.401  0.00  0.00    +0.000 A 
ATOM     10  H   UNL     1       1.218   5.768  21.729  0.00  0.00    +0.000 HD
ENDROOT
BRANCH   1  17
ATOM     11  C   UNL     1       6.272   4.812  17.930  0.00  0.00    +0.000 A 
ATOM     12  C   UNL     1       7.114   5.123  16.850  0.00  0.00    +0.000 A 
ATOM     13  C   UNL     1       6.698   4.925  15.543  0.00  0.00    +0.000 A 
ATOM     14  C   UNL     1       5.429   4.435  15.301  0.00  0.00    +0.000 A 
ATOM     15  F   UNL     1       5.023   4.216  14.048  0.00  0.00    +0.000 F 
ATOM     16  C   UNL     1       4.574   4.174  16.354  0.00  0.00    +0.000 A 
ATOM     17  C   UNL     1       4.968   4.320  17.696  0.00  0.00    +0.000 A 
BRANCH  11  19
ATOM     18  C   UNL     1       7.845   5.704  19.469  0.00  0.00    +0.000 C 
ATOM     19  O   UNL     1       6.702   4.895  19.231  0.00  0.00    +0.000 OA
ENDBRANCH  11  19
ENDBRANCH   1  17
BRANCH   7  20
ATOM     20  C   UNL     1       1.845   8.290  20.456  0.00  0.00    +0.000 C 
ATOM     21  C   UNL     1       1.217   9.060  19.265  0.00  0.00    +0.000 C 
ATOM     22  N   UNL     1       0.168   9.603  20.172  0.00  0.00    +0.000 NA
ATOM     23  C   UNL     1       0.425   8.450  21.073  0.00  0.00    +0.000 C 
BRANCH  22  24
ATOM     24  C   UNL     1       0.596  10.890  20.775  0.00  0.00    +0.000 C 
BRANCH  24  25
ATOM     25  C   UNL     1      -0.607  11.769  21.196  0.00  0.00    +0.000 C 
ATOM     26  C   UNL     1      -0.349  13.269  20.990  0.00  0.00    +0.000 C 
ATOM     27  C   UNL     1      -1.508  14.112  21.509  0.00  0.00    +0.000 C 
ATOM     28  O   UNL     1      -1.738  13.833  22.890  0.00  0.00    +0.000 OA
ATOM     29  C   UNL     1      -2.100  12.473  23.110  0.00  0.00    +0.000 C 
ATOM     30  C   UNL     1      -0.989  11.522  22.667  0.00  0.00    +0.000 C 
ENDBRANCH  24  25
ENDBRANCH  22  24
ENDBRANCH   7  20
TORSDOF 5
ENDMDL
MODEL 3
REMARK VINA RESULT:      -8.3      1.253      1.551
REMARK  Name = 
REMARK  6 active torsions:
REMARK  status: ('A' for Active; 'I' for Inactive)
REMARK    1  A    between atoms: C_1  and  O_2
REMARK    2  A    between atoms: O_2  and  C_3
REMARK    3  A    between atoms: C_9  and  C_10
REMARK    4  A    between atoms: C_16  and  C_17
REMARK    5  A    between atoms: N_19  and  C_20
REMARK    6  A    between atoms: C_20  and  C_21
REMARK                            x       y       z     vdW  Elec       q    Type
REMARK                         _______ _______ _______ _____ _____    ______ ____
ROOT
ATOM      1  C   UNL     1       3.844   3.764  18.279  0.00  0.00    +0.000 A 
ATOM      2  C   UNL     1       3.479   2.436  18.552  0.00  0.00    +0.000 A 
ATOM      3  C   UNL     1       2.475   2.161  19.473  0.00  0.00    +0.000 A 
ATOM      4  N   UNL     1       1.802   3.075  20.191  0.00  0.00    +0.000 NA
ATOM      5  C   UNL     1       2.177   4.332  19.911  0.00  0.00    +0.000 A 
ATOM      6  N   UNL     1       1.665   5.438  20.519  0.00  0.00    +0.000 N 
ATOM      7  C   UNL     1       2.219   6.562  20.003  0.00  0.00    +0.000 A 
ATOM      8  C   UNL     1       3.111   6.188  19.027  0.00  0.00    +0.000 A 
ATOM      9  C   UNL     1       3.128   4.756  18.993  0.00  0.00    +0.000 A 
ATOM     10  H   UNL     1       0.948   5.391  21.232  0.00  0.00    +0.000 HD
ENDROOT
BRANCH   1  17
ATOM     11  C   UNL     1       6.183   4.623  17.781  0.00  0.00    +0.000 A 
ATOM     12  C   UNL     1       7.160   4.981  16.840  0.00  0.00    +0.000 A 
ATOM     13  C   UNL     1       6.925   4.844  15.481  0.00  0.00    +0.000 A 
ATOM     14  C   UNL     1       5.703   4.367  15.049  0.00  0.00    +0.000 A 
ATOM     15  F   UNL     1       5.470   4.206  13.744  0.00  0.00    +0.000 F 
ATOM     16  C   UNL     1       4.715   4.060  15.964  0.00  0.00    +0.000 A 
ATOM     17  C   UNL     1       4.924   4.144  17.352  0.00  0.00    +0.000 A 
BRANCH  11  19
ATOM     18  C   UNL     1       7.423   5.564  19.575  0.00  0.00    +0.000 C 
ATOM     19  O   UNL     1       6.434   4.647  19.131  0.00  0.00    +0.000 OA
ENDBRANCH  11  19
ENDBRANCH   1  17
BRANCH   7  20
ATOM     20  C   UNL     1       1.957   7.987  20.444  0.00  0.00    +0.000 C 
ATOM     21  C   UNL     1       1.302   8.935  19.407  0.00  0.00    +0.000 C 
ATOM     22  N   UNL     1       0.365   9.430  20.454  0.00  0.00    +0.000 NA
ATOM     23  C   UNL     1       0.602   8.162  21.190  0.00  0.00    +0.000 C 
BRANCH  22  24
ATOM     24  C   UNL     1       0.930  10.603  21.165  0.00  0.00    +0.000 C 
BRANCH  24  25
ATOM     25  C   UNL     1       0.297  11.935  20.695  0.00  0.00    +0.000 C 
ATOM     26  C   UNL     1      -1.042  11.733  19.969  0.00  0.00    +0.000 C 
ATOM     27  C   UNL     1      -1.590  13.049  19.429  0.00  0.00    +0.000 C 
ATOM     28  O   UNL     1      -0.637  13.655  18.555  0.00  0.00    +0.000 OA
ATOM     29  C   UNL     1       0.581  13.970  19.223  0.00  0.00    +0.000 C 
ATOM     30  C   UNL     1       1.254  12.714  19.775  0.00  0.00    +0.000 C 
ENDBRANCH  24  25
ENDBRANCH  22  24
ENDBRANCH   7  20
TORSDOF 5
ENDMDL
MODEL 4
REMARK VINA RESULT:      -8.2      1.030      1.080
REMARK  Name = 
REMARK  6 active torsions:
REMARK  status: ('A' for Active; 'I' for Inactive)
REMARK    1  A    between atoms: C_1  and  O_2
REMARK    2  A    between atoms: O_2  and  C_3
REMARK    3  A    between atoms: C_9  and  C_10
REMARK    4  A    between atoms: C_16  and  C_17
REMARK    5  A    between atoms: N_19  and  C_20
REMARK    6  A    between atoms: C_20  and  C_21
REMARK                            x       y       z     vdW  Elec       q    Type
REMARK                         _______ _______ _______ _____ _____    ______ ____
ROOT
ATOM      1  C   UNL     1       4.008   4.268  18.348  0.00  0.00    +0.000 A 
ATOM      2  C   UNL     1       3.733   3.103  19.083  0.00  0.00    +0.000 A 
ATOM      3  C   UNL     1       2.786   3.124  20.099  0.00  0.00    +0.000 A 
ATOM      4  N   UNL     1       2.089   4.201  20.496  0.00  0.00    +0.000 NA
ATOM      5  C   UNL     1       2.378   5.297  19.778  0.00  0.00    +0.000 A 
ATOM      6  N   UNL     1       1.826   6.523  19.997  0.00  0.00    +0.000 N 
ATOM      7  C   UNL     1       2.292   7.421  19.094  0.00  0.00    +0.000 A 
ATOM      8  C   UNL     1       3.164   6.768  18.256  0.00  0.00    +0.000 A 
ATOM      9  C   UNL     1       3.265   5.416  18.717  0.00  0.00    +0.000 A 
ATOM     10  H   UNL     1       1.143   6.697  20.723  0.00  0.00    +0.000 HD
ENDROOT
BRANCH   1  17
ATOM     11  C   UNL     1       6.398   4.569  17.540  0.00  0.00    +0.000 A 
ATOM     12  C   UNL     1       7.310   4.648  16.475  0.00  0.00    +0.000 A 
ATOM     13  C   UNL     1       6.891   4.480  15.165  0.00  0.00    +0.000 A 
ATOM     14  C   UNL     1       5.554   4.253  14.904  0.00  0.00    +0.000 A 
ATOM     15  F   UNL     1       5.139   4.064  13.648  0.00  0.00    +0.000 F 
ATOM     16  C   UNL     1       4.640   4.224  15.939  0.00  0.00    +0.000 A 
ATOM     17  C   UNL     1       5.026   4.347  17.285  0.00  0.00    +0.000 A 
BRANCH  11  19
ATOM     18  C   UNL     1       7.591   5.746  19.223  0.00  0.00    +0.000 C 
ATOM     19  O   UNL     1       6.807   4.621  18.849  0.00  0.00    +0.000 OA
ENDBRANCH  11  19
ENDBRANCH   1  17
BRANCH   7  20
ATOM     20  C   UNL     1       1.964   8.897  19.032  0.00  0.00    +0.000 C 
ATOM     21  C   UNL     1       0.891   9.337  18.002  0.00  0.00    +0.000 C 
ATOM     22  N   UNL     1       0.251  10.194  19.037  0.00  0.00    +0.000 NA
ATOM     23  C   UNL     1       0.886   9.334  20.068  0.00  0.00    +0.000 C 
BRANCH  22  24
ATOM     24  C   UNL     1       0.821  11.565  19.024  0.00  0.00    +0.000 C 
BRANCH  24  25
ATOM     25  C   UNL     1      -0.062  12.574  19.797  0.00  0.00    +0.000 C 
ATOM     26  C   UNL     1       0.336  12.701  21.275  0.00  0.00    +0.000 C 
ATOM     27  C   UNL     1      -0.613  13.623  22.033  0.00  0.00    +0.000 C 
ATOM     28  O   UNL     1      -1.954  13.147  21.919  0.00  0.00    +0.000 OA
ATOM     29  C   UNL     1      -2.404  13.128  20.567  0.00  0.00    +0.000 C 
ATOM     30  C   UNL     1      -1.551  12.196  19.709  0.00  0.00    +0.000 C 
ENDBRANCH  24  25
ENDBRANCH  22  24
ENDBRANCH   7  20
TORSDOF 5
ENDMDL
MODEL 5
REMARK VINA RESULT:      -8.1      1.255      1.606
REMARK  Name = 
REMARK  6 active torsions:
REMARK  status: ('A' for Active; 'I' for Inactive)
REMARK    1  A    between atoms: C_1  and  O_2
REMARK    2  A    between atoms: O_2  and  C_3
REMARK    3  A    between atoms: C_9  and  C_10
REMARK    4  A    between atoms: C_16  and  C_17
REMARK    5  A    between atoms: N_19  and  C_20
REMARK    6  A    between atoms: C_20  and  C_21
REMARK                            x       y       z     vdW  Elec       q    Type
REMARK                         _______ _______ _______ _____ _____    ______ ____
ROOT
ATOM      1  C   UNL     1       3.980   4.053  18.743  0.00  0.00    +0.000 A 
ATOM      2  C   UNL     1       3.747   2.767  19.256  0.00  0.00    +0.000 A 
ATOM      3  C   UNL     1       2.827   2.579  20.281  0.00  0.00    +0.000 A 
ATOM      4  N   UNL     1       2.122   3.547  20.886  0.00  0.00    +0.000 NA
ATOM      5  C   UNL     1       2.370   4.763  20.376  0.00  0.00    +0.000 A 
ATOM      6  N   UNL     1       1.802   5.915  20.830  0.00  0.00    +0.000 N 
ATOM      7  C   UNL     1       2.226   6.974  20.097  0.00  0.00    +0.000 A 
ATOM      8  C   UNL     1       3.087   6.507  19.134  0.00  0.00    +0.000 A 
ATOM      9  C   UNL     1       3.225   5.096  19.335  0.00  0.00    +0.000 A 
ATOM     10  H   UNL     1       1.135   5.936  21.591  0.00  0.00    +0.000 HD
ENDROOT
BRANCH   1  17
ATOM     11  C   UNL     1       6.259   4.855  17.957  0.00  0.00    +0.000 A 
ATOM     12  C   UNL     1       7.143   5.129  16.902  0.00  0.00    +0.000 A 
ATOM     13  C   UNL     1       6.780   4.884  15.587  0.00  0.00    +0.000 A 
ATOM     14  C   UNL     1       5.523   4.381  15.313  0.00  0.00    +0.000 A 
ATOM     15  F   UNL     1       5.167   4.115  14.053  0.00  0.00    +0.000 F 
ATOM     16  C   UNL     1       4.626   4.155  16.339  0.00  0.00    +0.000 A 
ATOM     17  C   UNL     1       4.967   4.350  17.690  0.00  0.00    +0.000 A 
BRANCH  11  19
ATOM     18  C   UNL     1       7.867   5.655  19.511  0.00  0.00    +0.000 C 
ATOM     19  O   UNL     1       6.637   4.986  19.271  0.00  0.00    +0.000 OA
ENDBRANCH  11  19
ENDBRANCH   1  17
BRANCH   7  20
ATOM     20  C   UNL     1       1.869   8.429  20.317  0.00  0.00    +0.000 C 
ATOM     21  C   UNL     1       1.103   9.145  19.174  0.00  0.00    +0.000 C 
ATOM     22  N   UNL     1       0.170   9.736  20.173  0.00  0.00    +0.000 NA
ATOM     23  C   UNL     1       0.533   8.626  21.091  0.00  0.00    +0.000 C 
BRANCH  22  24
ATOM     24  C   UNL     1       0.666  11.048  20.658  0.00  0.00    +0.000 C 
BRANCH  24  25
ATOM     25  C   UNL     1      -0.158  12.231  20.096  0.00  0.00    +0.000 C 
ATOM     26  C   UNL     1       0.603  13.030  19.027  0.00  0.00    +0.000 C 
ATOM     27  C   UNL     1      -0.193  14.247  18.567  0.00  0.00    +0.000 C 
ATOM     28  O   UNL     1      -0.504  15.081  19.684  0.00  0.00    +0.000 OA
ATOM     29  C   UNL     1      -1.313  14.410  20.646  0.00  0.00    +0.000 C 
ATOM     30  C   UNL     1      -0.600  13.187  21.218  0.00  0.00    +0.000 C 
ENDBRANCH  24  25
ENDBRANCH  22  24
ENDBRANCH   7  20
TORSDOF 5
ENDMDL
MODEL 6
REMARK VINA RESULT:      -8.1      1.540      1.863
REMARK  Name = 
REMARK  6 active torsions:
REMARK  status: ('A' for Active; 'I' for Inactive)
REMARK    1  A    between atoms: C_1  and  O_2
REMARK    2  A    between atoms: O_2  and  C_3
REMARK    3  A    between atoms: C_9  and  C_10
REMARK    4  A    between atoms: C_16  and  C_17
REMARK    5  A    between atoms: N_19  and  C_20
REMARK    6  A    between atoms: C_20  and  C_21
REMARK                            x       y       z     vdW  Elec       q    Type
REMARK                         _______ _______ _______ _____ _____    ______ ____
ROOT
ATOM      1  C   UNL     1       4.171   4.081  17.820  0.00  0.00    +0.000 A 
ATOM      2  C   UNL     1       3.874   2.866  18.459  0.00  0.00    +0.000 A 
ATOM      3  C   UNL     1       2.929   2.824  19.477  0.00  0.00    +0.000 A 
ATOM      4  N   UNL     1       2.255   3.879  19.962  0.00  0.00    +0.000 NA
ATOM      5  C   UNL     1       2.565   5.023  19.334  0.00  0.00    +0.000 A 
ATOM      6  N   UNL     1       2.039   6.239  19.653  0.00  0.00    +0.000 N 
ATOM      7  C   UNL     1       2.521   7.197  18.824  0.00  0.00    +0.000 A 
ATOM      8  C   UNL     1       3.378   6.596  17.933  0.00  0.00    +0.000 A 
ATOM      9  C   UNL     1       3.452   5.209  18.283  0.00  0.00    +0.000 A 
ATOM     10  H   UNL     1       1.360   6.367  20.393  0.00  0.00    +0.000 HD
ENDROOT
BRANCH   1  17
ATOM     11  C   UNL     1       6.547   4.512  17.029  0.00  0.00    +0.000 A 
ATOM     12  C   UNL     1       7.458   4.651  15.970  0.00  0.00    +0.000 A 
ATOM     13  C   UNL     1       7.055   4.479  14.656  0.00  0.00    +0.000 A 
ATOM     14  C   UNL     1       5.732   4.188  14.384  0.00  0.00    +0.000 A 
ATOM     15  F   UNL     1       5.333   3.994  13.124  0.00  0.00    +0.000 F 
ATOM     16  C   UNL     1       4.816   4.099  15.414  0.00  0.00    +0.000 A 
ATOM     17  C   UNL     1       5.189   4.225  16.764  0.00  0.00    +0.000 A 
BRANCH  11  19
ATOM     18  C   UNL     1       7.310   5.849  18.837  0.00  0.00    +0.000 C 
ATOM     19  O   UNL     1       6.946   4.569  18.341  0.00  0.00    +0.000 OA
ENDBRANCH  11  19
ENDBRANCH   1  17
BRANCH   7  20
ATOM     20  C   UNL     1       2.223   8.680  18.882  0.00  0.00    +0.000 C 
ATOM     21  C   UNL     1       1.238   9.242  17.825  0.00  0.00    +0.000 C 
ATOM     22  N   UNL     1       0.536  10.011  18.889  0.00  0.00    +0.000 NA
ATOM     23  C   UNL     1       1.079   9.040  19.874  0.00  0.00    +0.000 C 
BRANCH  22  24
ATOM     24  C   UNL     1       1.128  11.362  19.051  0.00  0.00    +0.000 C 
BRANCH  24  25
ATOM     25  C   UNL     1       0.056  12.478  19.038  0.00  0.00    +0.000 C 
ATOM     26  C   UNL     1       0.658  13.880  18.865  0.00  0.00    +0.000 C 
ATOM     27  C   UNL     1      -0.410  14.964  18.959  0.00  0.00    +0.000 C 
ATOM     28  O   UNL     1      -1.098  14.868  20.207  0.00  0.00    +0.000 OA
ATOM     29  C   UNL     1      -1.773  13.622  20.354  0.00  0.00    +0.000 C 
ATOM     30  C   UNL     1      -0.794  12.450  20.321  0.00  0.00    +0.000 C 
ENDBRANCH  24  25
ENDBRANCH  22  24
ENDBRANCH   7  20
TORSDOF 5
ENDMDL
MODEL 7
REMARK VINA RESULT:      -7.9      0.998      1.184
REMARK  Name = 
REMARK  6 active torsions:
REMARK  status: ('A' for Active; 'I' for Inactive)
REMARK    1  A    between atoms: C_1  and  O_2
REMARK    2  A    between atoms: O_2  and  C_3
REMARK    3  A    between atoms: C_9  and  C_10
REMARK    4  A    between atoms: C_16  and  C_17
REMARK    5  A    between atoms: N_19  and  C_20
REMARK    6  A    between atoms: C_20  and  C_21
REMARK                            x       y       z     vdW  Elec       q    Type
REMARK                         _______ _______ _______ _____ _____    ______ ____
ROOT
ATOM      1  C   UNL     1       4.022   4.292  19.028  0.00  0.00    +0.000 A 
ATOM      2  C   UNL     1       4.012   3.005  19.590  0.00  0.00    +0.000 A 
ATOM      3  C   UNL     1       3.172   2.715  20.659  0.00  0.00    +0.000 A 
ATOM      4  N   UNL     1       2.348   3.586  21.264  0.00  0.00    +0.000 NA
ATOM      5  C   UNL     1       2.384   4.805  20.706  0.00  0.00    +0.000 A 
ATOM      6  N   UNL     1       1.661   5.871  21.149  0.00  0.00    +0.000 N 
ATOM      7  C   UNL     1       1.887   6.955  20.365  0.00  0.00    +0.000 A 
ATOM      8  C   UNL     1       2.773   6.591  19.380  0.00  0.00    +0.000 A 
ATOM      9  C   UNL     1       3.137   5.227  19.619  0.00  0.00    +0.000 A 
ATOM     10  H   UNL     1       1.029   5.818  21.937  0.00  0.00    +0.000 HD
ENDROOT
BRANCH   1  17
ATOM     11  C   UNL     1       6.108   5.420  18.118  0.00  0.00    +0.000 A 
ATOM     12  C   UNL     1       6.897   5.787  17.016  0.00  0.00    +0.000 A 
ATOM     13  C   UNL     1       6.536   5.424  15.728  0.00  0.00    +0.000 A 
ATOM     14  C   UNL     1       5.371   4.709  15.527  0.00  0.00    +0.000 A 
ATOM     15  F   UNL     1       5.022   4.331  14.294  0.00  0.00    +0.000 F 
ATOM     16  C   UNL     1       4.561   4.387  16.597  0.00  0.00    +0.000 A 
ATOM     17  C   UNL     1       4.909   4.698  17.924  0.00  0.00    +0.000 A 
BRANCH  11  19
ATOM     18  C   UNL     1       7.901   5.643  19.659  0.00  0.00    +0.000 C 
ATOM     19  O   UNL     1       6.503   5.673  19.408  0.00  0.00    +0.000 OA
ENDBRANCH  11  19
ENDBRANCH   1  17
BRANCH   7  20
ATOM     20  C   UNL     1       1.316   8.344  20.555  0.00  0.00    +0.000 C 
ATOM     21  C   UNL     1      -0.103   8.443  21.172  0.00  0.00    +0.000 C 
ATOM     22  N   UNL     1       0.367   9.530  22.075  0.00  0.00    +0.000 NA
ATOM     23  C   UNL     1       1.747   9.011  21.894  0.00  0.00    +0.000 C 
BRANCH  22  24
ATOM     24  C   UNL     1       0.184  10.863  21.448  0.00  0.00    +0.000 C 
BRANCH  24  25
ATOM     25  C   UNL     1      -0.481  11.876  22.410  0.00  0.00    +0.000 C 
ATOM     26  C   UNL     1      -1.999  11.672  22.532  0.00  0.00    +0.000 C 
ATOM     27  C   UNL     1      -2.640  12.746  23.404  0.00  0.00    +0.000 C 
ATOM     28  O   UNL     1      -2.355  14.041  22.875  0.00  0.00    +0.000 OA
ATOM     29  C   UNL     1      -0.957  14.318  22.857  0.00  0.00    +0.000 C 
ATOM     30  C   UNL     1      -0.204  13.326  21.972  0.00  0.00    +0.000 C 
ENDBRANCH  24  25
ENDBRANCH  22  24
ENDBRANCH   7  20
TORSDOF 5
ENDMDL
MODEL 8
REMARK VINA RESULT:      -7.7      1.329      1.720
REMARK  Name = 
REMARK  6 active torsions:
REMARK  status: ('A' for Active; 'I' for Inactive)
REMARK    1  A    between atoms: C_1  and  O_2
REMARK    2  A    between atoms: O_2  and  C_3
REMARK    3  A    between atoms: C_9  and  C_10
REMARK    4  A    between atoms: C_16  and  C_17
REMARK    5  A    between atoms: N_19  and  C_20
REMARK    6  A    between atoms: C_20  and  C_21
REMARK                            x       y       z     vdW  Elec       q    Type
REMARK                         _______ _______ _______ _____ _____    ______ ____
ROOT
ATOM      1  C   UNL     1       4.271   4.141  19.131  0.00  0.00    +0.000 A 
ATOM      2  C   UNL     1       4.413   2.854  19.674  0.00  0.00    +0.000 A 
ATOM      3  C   UNL     1       3.553   2.419  20.676  0.00  0.00    +0.000 A 
ATOM      4  N   UNL     1       2.569   3.145  21.231  0.00  0.00    +0.000 NA
ATOM      5  C   UNL     1       2.463   4.369  20.693  0.00  0.00    +0.000 A 
ATOM      6  N   UNL     1       1.561   5.307  21.096  0.00  0.00    +0.000 N 
ATOM      7  C   UNL     1       1.678   6.430  20.345  0.00  0.00    +0.000 A 
ATOM      8  C   UNL     1       2.674   6.223  19.422  0.00  0.00    +0.000 A 
ATOM      9  C   UNL     1       3.219   4.922  19.668  0.00  0.00    +0.000 A 
ATOM     10  H   UNL     1       0.890   5.143  21.836  0.00  0.00    +0.000 HD
ENDROOT
BRANCH   1  17
ATOM     11  C   UNL     1       6.375   5.362  18.398  0.00  0.00    +0.000 A 
ATOM     12  C   UNL     1       7.169   5.882  17.363  0.00  0.00    +0.000 A 
ATOM     13  C   UNL     1       6.799   5.730  16.036  0.00  0.00    +0.000 A 
ATOM     14  C   UNL     1       5.622   5.075  15.731  0.00  0.00    +0.000 A 
ATOM     15  F   UNL     1       5.264   4.898  14.456  0.00  0.00    +0.000 F 
ATOM     16  C   UNL     1       4.807   4.603  16.742  0.00  0.00    +0.000 A 
ATOM     17  C   UNL     1       5.164   4.699  18.099  0.00  0.00    +0.000 A 
BRANCH  11  19
ATOM     18  C   UNL     1       8.166   5.589  19.940  0.00  0.00    +0.000 C 
ATOM     19  O   UNL     1       6.777   5.404  19.710  0.00  0.00    +0.000 OA
ENDBRANCH  11  19
ENDBRANCH   1  17
BRANCH   7  20
ATOM     20  C   UNL     1       0.896   7.716  20.510  0.00  0.00    +0.000 C 
ATOM     21  C   UNL     1       1.351   8.674  21.641  0.00  0.00    +0.000 C 
ATOM     22  N   UNL     1       1.242   9.827  20.705  0.00  0.00    +0.000 NA
ATOM     23  C   UNL     1       1.394   8.864  19.585  0.00  0.00    +0.000 C 
BRANCH  22  24
ATOM     24  C   UNL     1      -0.116  10.425  20.749  0.00  0.00    +0.000 C 
BRANCH  24  25
ATOM     25  C   UNL     1      -0.074  11.962  20.930  0.00  0.00    +0.000 C 
ATOM     26  C   UNL     1       1.340  12.541  20.773  0.00  0.00    +0.000 C 
ATOM     27  C   UNL     1       1.366  14.039  21.058  0.00  0.00    +0.000 C 
ATOM     28  O   UNL     1       0.867  14.297  22.370  0.00  0.00    +0.000 OA
ATOM     29  C   UNL     1      -0.488  13.882  22.521  0.00  0.00    +0.000 C 
ATOM     30  C   UNL     1      -0.637  12.377  22.301  0.00  0.00    +0.000 C 
ENDBRANCH  24  25
ENDBRANCH  22  24
ENDBRANCH   7  20
TORSDOF 5
ENDMDL
MODEL 9
REMARK VINA RESULT:      -7.7      1.482      1.759
REMARK  Name = 
REMARK  6 active torsions:
REMARK  status: ('A' for Active; 'I' for Inactive)
REMARK    1  A    between atoms: C_1  and  O_2
REMARK    2  A    between atoms: O_2  and  C_3
REMARK    3  A    between atoms: C_9  and  C_10
REMARK    4  A    between atoms: C_16  and  C_17
REMARK    5  A    between atoms: N_19  and  C_20
REMARK    6  A    between atoms: C_20  and  C_21
REMARK                            x       y       z     vdW  Elec       q    Type
REMARK                         _______ _______ _______ _____ _____    ______ ____
ROOT
ATOM      1  C   UNL     1       4.121   4.447  18.585  0.00  0.00    +0.000 A 
ATOM      2  C   UNL     1       3.916   3.331  19.412  0.00  0.00    +0.000 A 
ATOM      3  C   UNL     1       3.009   3.396  20.463  0.00  0.00    +0.000 A 
ATOM      4  N   UNL     1       2.293   4.477  20.812  0.00  0.00    +0.000 NA
ATOM      5  C   UNL     1       2.515   5.526  20.006  0.00  0.00    +0.000 A 
ATOM      6  N   UNL     1       1.931   6.747  20.159  0.00  0.00    +0.000 N 
ATOM      7  C   UNL     1       2.328   7.590  19.175  0.00  0.00    +0.000 A 
ATOM      8  C   UNL     1       3.188   6.906  18.350  0.00  0.00    +0.000 A 
ATOM      9  C   UNL     1       3.353   5.595  18.902  0.00  0.00    +0.000 A 
ATOM     10  H   UNL     1       1.271   6.951  20.900  0.00  0.00    +0.000 HD
ENDROOT
BRANCH   1  17
ATOM     11  C   UNL     1       6.479   4.673  17.666  0.00  0.00    +0.000 A 
ATOM     12  C   UNL     1       7.344   4.709  16.561  0.00  0.00    +0.000 A 
ATOM     13  C   UNL     1       6.863   4.526  15.274  0.00  0.00    +0.000 A 
ATOM     14  C   UNL     1       5.511   4.327  15.076  0.00  0.00    +0.000 A 
ATOM     15  F   UNL     1       5.036   4.125  13.844  0.00  0.00    +0.000 F 
ATOM     16  C   UNL     1       4.643   4.341  16.151  0.00  0.00    +0.000 A 
ATOM     17  C   UNL     1       5.091   4.481  17.477  0.00  0.00    +0.000 A 
BRANCH  11  19
ATOM     18  C   UNL     1       7.827   5.814  19.252  0.00  0.00    +0.000 C 
ATOM     19  O   UNL     1       6.947   4.740  18.955  0.00  0.00    +0.000 OA
ENDBRANCH  11  19
ENDBRANCH   1  17
BRANCH   7  20
ATOM     20  C   UNL     1       1.947   9.048  19.022  0.00  0.00    +0.000 C 
ATOM     21  C   UNL     1       0.830   9.379  18.000  0.00  0.00    +0.000 C 
ATOM     22  N   UNL     1       0.192  10.285  18.994  0.00  0.00    +0.000 NA
ATOM     23  C   UNL     1       0.888   9.521  20.060  0.00  0.00    +0.000 C 
BRANCH  22  24
ATOM     24  C   UNL     1       0.713  11.669  18.867  0.00  0.00    +0.000 C 
BRANCH  24  25
ATOM     25  C   UNL     1       0.682  12.433  20.212  0.00  0.00    +0.000 C 
ATOM     26  C   UNL     1      -0.705  13.004  20.541  0.00  0.00    +0.000 C 
ATOM     27  C   UNL     1      -0.680  13.836  21.818  0.00  0.00    +0.000 C 
ATOM     28  O   UNL     1       0.275  14.890  21.698  0.00  0.00    +0.000 OA
ATOM     29  C   UNL     1       1.599  14.398  21.512  0.00  0.00    +0.000 C 
ATOM     30  C   UNL     1       1.713  13.577  20.228  0.00  0.00    +0.000 C 
ENDBRANCH  24  25
ENDBRANCH  22  24
ENDBRANCH   7  20
TORSDOF 5
ENDMDL
