MODEL 1
REMARK VINA RESULT:      -6.9      0.000      0.000
REMARK  Name = 
REMARK  3 active torsions:
REMARK  status: ('A' for Active; 'I' for Inactive)
REMARK    1  A    between atoms: C_2  and  C_3
REMARK    2  A    between atoms: C_3  and  C_4
REMARK    3  A    between atoms: N_9  and  C_10
REMARK                            x       y       z     vdW  Elec       q    Type
REMARK                         _______ _______ _______ _____ _____    ______ ____
ROOT
ATOM      1  O   UNL     1       4.034   3.738  16.579  0.00  0.00    +0.000 OA
ATOM      2  C   UNL     1       3.470   4.217  17.561  0.00  0.00    +0.000 C 
ATOM      3  N   UNL     1       4.049   5.073  18.484  0.00  0.00    +0.000 N 
ATOM      4  H   UNL     1       3.542   5.269  19.343  0.00  0.00    +0.000 HD
ENDROOT
BRANCH   3   5
ATOM      5  C   UNL     1       5.318   5.688  18.376  0.00  0.00    +0.000 A 
ATOM      6  C   UNL     1       6.417   5.323  19.157  0.00  0.00    +0.000 A 
ATOM      7  C   UNL     1       7.658   5.943  18.972  0.00  0.00    +0.000 A 
ATOM      8  C   UNL     1       7.811   6.940  18.010  0.00  0.00    +0.000 A 
ATOM      9  C   UNL     1       6.723   7.317  17.226  0.00  0.00    +0.000 A 
ATOM     10  C   UNL     1       5.493   6.685  17.410  0.00  0.00    +0.000 A 
ATOM     11  F   UNL     1       4.453   7.060  16.645  0.00  0.00    +0.000 F 
ENDBRANCH   3   5
BRANCH   2  12
ATOM     12  C   UNL     1       2.015   3.891  17.842  0.00  0.00    +0.000 C 
BRANCH  12  13
ATOM     13  C   UNL     1       1.872   3.514  19.268  0.00  0.00    +0.000 A 
ATOM     14  C   UNL     1       0.871   3.685  20.204  0.00  0.00    +0.000 A 
ATOM     15  C   UNL     1       1.337   3.090  21.400  0.00  0.00    +0.000 A 
ATOM     16  C   UNL     1       2.586   2.590  21.118  0.00  0.00    +0.000 A 
ATOM     17  O   UNL     1       2.922   2.845  19.827  0.00  0.00    +0.000 OA
ENDBRANCH  12  13
ENDBRANCH   2  12
TORSDOF 3
ENDMDL
MODEL 2
REMARK VINA RESULT:      -6.9      1.096      1.096
REMARK  Name = 
REMARK  3 active torsions:
REMARK  status: ('A' for Active; 'I' for Inactive)
REMARK    1  A    between atoms: C_2  and  C_3
REMARK    2  A    between atoms: C_3  and  C_4
REMARK    3  A    between atoms: N_9  and  C_10
REMARK                            x       y       z     vdW  Elec       q    Type
REMARK                         _______ _______ _______ _____ _____    ______ ____
ROOT
ATOM      1  O   UNL     1       2.857   6.640  18.626  0.00  0.00    +0.000 OA
ATOM      2  C   UNL     1       3.097   5.492  18.259  0.00  0.00    +0.000 C 
ATOM      3  N   UNL     1       4.346   4.999  17.917  0.00  0.00    +0.000 N 
ATOM      4  H   UNL     1       4.398   4.089  17.468  0.00  0.00    +0.000 HD
ENDROOT
BRANCH   3   5
ATOM      5  C   UNL     1       5.584   5.659  18.094  0.00  0.00    +0.000 A 
ATOM      6  C   UNL     1       6.488   5.338  19.110  0.00  0.00    +0.000 A 
ATOM      7  C   UNL     1       7.716   6.002  19.205  0.00  0.00    +0.000 A 
ATOM      8  C   UNL     1       8.051   6.999  18.290  0.00  0.00    +0.000 A 
ATOM      9  C   UNL     1       7.159   7.332  17.273  0.00  0.00    +0.000 A 
ATOM     10  C   UNL     1       5.941   6.657  17.180  0.00  0.00    +0.000 A 
ATOM     11  F   UNL     1       5.092   6.990  16.193  0.00  0.00    +0.000 F 
ENDBRANCH   3   5
BRANCH   2  12
ATOM     12  C   UNL     1       1.977   4.473  18.157  0.00  0.00    +0.000 C 
BRANCH  12  13
ATOM     13  C   UNL     1       1.855   3.761  19.451  0.00  0.00    +0.000 A 
ATOM     14  C   UNL     1       0.782   3.386  20.236  0.00  0.00    +0.000 A 
ATOM     15  C   UNL     1       1.324   2.721  21.361  0.00  0.00    +0.000 A 
ATOM     16  C   UNL     1       2.688   2.727  21.190  0.00  0.00    +0.000 A 
ATOM     17  O   UNL     1       3.021   3.359  20.035  0.00  0.00    +0.000 OA
ENDBRANCH  12  13
ENDBRANCH   2  12
TORSDOF 3
ENDMDL
MODEL 3
REMARK VINA RESULT:      -6.8      1.543      1.949
REMARK  Name = 
REMARK  3 active torsions:
REMARK  status: ('A' for Active; 'I' for Inactive)
REMARK    1  A    between atoms: C_2  and  C_3
REMARK    2  A    between atoms: C_3  and  C_4
REMARK    3  A    between atoms: N_9  and  C_10
REMARK                            x       y       z     vdW  Elec       q    Type
REMARK                         _______ _______ _______ _____ _____    ______ ____
ROOT
ATOM      1  O   UNL     1       2.712   6.787  18.297  0.00  0.00    +0.000 OA
ATOM      2  C   UNL     1       2.937   5.609  18.024  0.00  0.00    +0.000 C 
ATOM      3  N   UNL     1       4.179   5.074  17.725  0.00  0.00    +0.000 N 
ATOM      4  H   UNL     1       4.219   4.130  17.350  0.00  0.00    +0.000 HD
ENDROOT
BRANCH   3   5
ATOM      5  C   UNL     1       5.426   5.729  17.851  0.00  0.00    +0.000 A 
ATOM      6  C   UNL     1       5.815   6.802  17.044  0.00  0.00    +0.000 A 
ATOM      7  C   UNL     1       7.046   7.435  17.247  0.00  0.00    +0.000 A 
ATOM      8  C   UNL     1       7.906   6.998  18.254  0.00  0.00    +0.000 A 
ATOM      9  C   UNL     1       7.533   5.928  19.064  0.00  0.00    +0.000 A 
ATOM     10  C   UNL     1       6.298   5.310  18.861  0.00  0.00    +0.000 A 
ATOM     11  F   UNL     1       5.954   4.279  19.652  0.00  0.00    +0.000 F 
ENDBRANCH   3   5
BRANCH   2  12
ATOM     12  C   UNL     1       1.803   4.600  18.002  0.00  0.00    +0.000 C 
BRANCH  12  13
ATOM     13  C   UNL     1       1.777   3.877  19.296  0.00  0.00    +0.000 A 
ATOM     14  C   UNL     1       0.777   3.576  20.200  0.00  0.00    +0.000 A 
ATOM     15  C   UNL     1       1.392   2.850  21.247  0.00  0.00    +0.000 A 
ATOM     16  C   UNL     1       2.722   2.749  20.915  0.00  0.00    +0.000 A 
ATOM     17  O   UNL     1       2.967   3.373  19.733  0.00  0.00    +0.000 OA
ENDBRANCH  12  13
ENDBRANCH   2  12
TORSDOF 3
ENDMDL
MODEL 4
REMARK VINA RESULT:      -6.8      2.448      5.782
REMARK  Name = 
REMARK  3 active torsions:
REMARK  status: ('A' for Active; 'I' for Inactive)
REMARK    1  A    between atoms: C_2  and  C_3
REMARK    2  A    between atoms: C_3  and  C_4
REMARK    3  A    between atoms: N_9  and  C_10
REMARK                            x       y       z     vdW  Elec       q    Type
REMARK                         _______ _______ _______ _____ _____    ______ ____
ROOT
ATOM      1  O   UNL     1       5.137   5.606  19.355  0.00  0.00    +0.000 OA
ATOM      2  C   UNL     1       5.552   4.555  18.869  0.00  0.00    +0.000 C 
ATOM      3  N   UNL     1       4.931   3.320  18.970  0.00  0.00    +0.000 N 
ATOM      4  H   UNL     1       5.448   2.496  18.677  0.00  0.00    +0.000 HD
ENDROOT
BRANCH   3   5
ATOM      5  C   UNL     1       3.638   3.072  19.487  0.00  0.00    +0.000 A 
ATOM      6  C   UNL     1       3.382   2.856  20.843  0.00  0.00    +0.000 A 
ATOM      7  C   UNL     1       2.073   2.656  21.297  0.00  0.00    +0.000 A 
ATOM      8  C   UNL     1       1.007   2.663  20.398  0.00  0.00    +0.000 A 
ATOM      9  C   UNL     1       1.248   2.875  19.043  0.00  0.00    +0.000 A 
ATOM     10  C   UNL     1       2.555   3.083  18.602  0.00  0.00    +0.000 A 
ATOM     11  F   UNL     1       2.770   3.286  17.290  0.00  0.00    +0.000 F 
ENDBRANCH   3   5
BRANCH   2  12
ATOM     12  C   UNL     1       6.842   4.539  18.072  0.00  0.00    +0.000 C 
BRANCH  12  13
ATOM     13  C   UNL     1       6.519   4.652  16.630  0.00  0.00    +0.000 A 
ATOM     14  C   UNL     1       5.339   4.767  15.923  0.00  0.00    +0.000 A 
ATOM     15  C   UNL     1       5.698   4.845  14.556  0.00  0.00    +0.000 A 
ATOM     16  C   UNL     1       7.070   4.778  14.516  0.00  0.00    +0.000 A 
ATOM     17  O   UNL     1       7.579   4.658  15.770  0.00  0.00    +0.000 OA
ENDBRANCH  12  13
ENDBRANCH   2  12
TORSDOF 3
ENDMDL
MODEL 5
REMARK VINA RESULT:      -6.8      2.604      5.873
REMARK  Name = 
REMARK  3 active torsions:
REMARK  status: ('A' for Active; 'I' for Inactive)
REMARK    1  A    between atoms: C_2  and  C_3
REMARK    2  A    between atoms: C_3  and  C_4
REMARK    3  A    between atoms: N_9  and  C_10
REMARK                            x       y       z     vdW  Elec       q    Type
REMARK                         _______ _______ _______ _____ _____    ______ ____
ROOT
ATOM      1  O   UNL     1       5.968   4.110  18.858  0.00  0.00    +0.000 OA
ATOM      2  C   UNL     1       5.263   4.876  18.203  0.00  0.00    +0.000 C 
ATOM      3  N   UNL     1       3.879   4.928  18.239  0.00  0.00    +0.000 N 
ATOM      4  H   UNL     1       3.400   5.480  17.533  0.00  0.00    +0.000 HD
ENDROOT
BRANCH   3   5
ATOM      5  C   UNL     1       3.039   4.247  19.149  0.00  0.00    +0.000 A 
ATOM      6  C   UNL     1       2.694   4.755  20.405  0.00  0.00    +0.000 A 
ATOM      7  C   UNL     1       1.824   4.050  21.242  0.00  0.00    +0.000 A 
ATOM      8  C   UNL     1       1.293   2.826  20.838  0.00  0.00    +0.000 A 
ATOM      9  C   UNL     1       1.629   2.306  19.591  0.00  0.00    +0.000 A 
ATOM     10  C   UNL     1       2.490   3.021  18.758  0.00  0.00    +0.000 A 
ATOM     11  F   UNL     1       2.804   2.505  17.557  0.00  0.00    +0.000 F 
ENDBRANCH   3   5
BRANCH   2  12
ATOM     12  C   UNL     1       5.899   5.882  17.261  0.00  0.00    +0.000 C 
BRANCH  12  13
ATOM     13  C   UNL     1       6.122   5.236  15.945  0.00  0.00    +0.000 A 
ATOM     14  C   UNL     1       5.401   4.331  15.192  0.00  0.00    +0.000 A 
ATOM     15  C   UNL     1       6.148   4.108  14.012  0.00  0.00    +0.000 A 
ATOM     16  C   UNL     1       7.271   4.894  14.115  0.00  0.00    +0.000 A 
ATOM     17  O   UNL     1       7.267   5.581  15.287  0.00  0.00    +0.000 OA
ENDBRANCH  12  13
ENDBRANCH   2  12
TORSDOF 3
ENDMDL
MODEL 6
REMARK VINA RESULT:      -6.7      2.199      5.559
REMARK  Name = 
REMARK  3 active torsions:
REMARK  status: ('A' for Active; 'I' for Inactive)
REMARK    1  A    between atoms: C_2  and  C_3
REMARK    2  A    between atoms: C_3  and  C_4
REMARK    3  A    between atoms: N_9  and  C_10
REMARK                            x       y       z     vdW  Elec       q    Type
REMARK                         _______ _______ _______ _____ _____    ______ ____
ROOT
ATOM      1  O   UNL     1       3.810   3.953  16.445  0.00  0.00    +0.000 OA
ATOM      2  C   UNL     1       4.748   4.125  17.222  0.00  0.00    +0.000 C 
ATOM      3  N   UNL     1       4.642   4.247  18.598  0.00  0.00    +0.000 N 
ATOM      4  H   UNL     1       5.460   4.555  19.119  0.00  0.00    +0.000 HD
ENDROOT
BRANCH   3   5
ATOM      5  C   UNL     1       3.481   4.023  19.373  0.00  0.00    +0.000 A 
ATOM      6  C   UNL     1       2.650   5.051  19.826  0.00  0.00    +0.000 A 
ATOM      7  C   UNL     1       1.491   4.760  20.554  0.00  0.00    +0.000 A 
ATOM      8  C   UNL     1       1.154   3.438  20.844  0.00  0.00    +0.000 A 
ATOM      9  C   UNL     1       1.974   2.403  20.401  0.00  0.00    +0.000 A 
ATOM     10  C   UNL     1       3.122   2.703  19.666  0.00  0.00    +0.000 A 
ATOM     11  F   UNL     1       3.902   1.692  19.246  0.00  0.00    +0.000 F 
ENDBRANCH   3   5
BRANCH   2  12
ATOM     12  C   UNL     1       6.169   4.211  16.697  0.00  0.00    +0.000 C 
BRANCH  12  13
ATOM     13  C   UNL     1       6.918   5.212  17.495  0.00  0.00    +0.000 A 
ATOM     14  C   UNL     1       7.243   6.539  17.298  0.00  0.00    +0.000 A 
ATOM     15  C   UNL     1       7.973   6.945  18.440  0.00  0.00    +0.000 A 
ATOM     16  C   UNL     1       8.041   5.846  19.262  0.00  0.00    +0.000 A 
ATOM     17  O   UNL     1       7.406   4.786  18.697  0.00  0.00    +0.000 OA
ENDBRANCH  12  13
ENDBRANCH   2  12
TORSDOF 3
ENDMDL
MODEL 7
REMARK VINA RESULT:      -6.7      1.925      5.614
REMARK  Name = 
REMARK  3 active torsions:
REMARK  status: ('A' for Active; 'I' for Inactive)
REMARK    1  A    between atoms: C_2  and  C_3
REMARK    2  A    between atoms: C_3  and  C_4
REMARK    3  A    between atoms: N_9  and  C_10
REMARK                            x       y       z     vdW  Elec       q    Type
REMARK                         _______ _______ _______ _____ _____    ______ ____
ROOT
ATOM      1  O   UNL     1       4.505   3.665  16.940  0.00  0.00    +0.000 OA
ATOM      2  C   UNL     1       4.256   4.853  17.138  0.00  0.00    +0.000 C 
ATOM      3  N   UNL     1       3.331   5.341  18.046  0.00  0.00    +0.000 N 
ATOM      4  H   UNL     1       3.089   6.328  18.003  0.00  0.00    +0.000 HD
ENDROOT
BRANCH   3   5
ATOM      5  C   UNL     1       2.639   4.591  19.024  0.00  0.00    +0.000 A 
ATOM      6  C   UNL     1       3.035   4.522  20.362  0.00  0.00    +0.000 A 
ATOM      7  C   UNL     1       2.283   3.794  21.290  0.00  0.00    +0.000 A 
ATOM      8  C   UNL     1       1.129   3.121  20.890  0.00  0.00    +0.000 A 
ATOM      9  C   UNL     1       0.724   3.178  19.558  0.00  0.00    +0.000 A 
ATOM     10  C   UNL     1       1.475   3.915  18.643  0.00  0.00    +0.000 A 
ATOM     11  F   UNL     1       1.069   3.960  17.362  0.00  0.00    +0.000 F 
ENDBRANCH   3   5
BRANCH   2  12
ATOM     12  C   UNL     1       4.995   5.927  16.363  0.00  0.00    +0.000 C 
BRANCH  12  13
ATOM     13  C   UNL     1       6.174   6.363  17.148  0.00  0.00    +0.000 A 
ATOM     14  C   UNL     1       6.917   5.781  18.156  0.00  0.00    +0.000 A 
ATOM     15  C   UNL     1       7.933   6.708  18.490  0.00  0.00    +0.000 A 
ATOM     16  C   UNL     1       7.750   7.791  17.664  0.00  0.00    +0.000 A 
ATOM     17  O   UNL     1       6.682   7.594  16.847  0.00  0.00    +0.000 OA
ENDBRANCH  12  13
ENDBRANCH   2  12
TORSDOF 3
ENDMDL
MODEL 8
REMARK VINA RESULT:      -6.6      2.586      5.990
REMARK  Name = 
REMARK  3 active torsions:
REMARK  status: ('A' for Active; 'I' for Inactive)
REMARK    1  A    between atoms: C_2  and  C_3
REMARK    2  A    between atoms: C_3  and  C_4
REMARK    3  A    between atoms: N_9  and  C_10
REMARK                            x       y       z     vdW  Elec       q    Type
REMARK                         _______ _______ _______ _____ _____    ______ ____
ROOT
ATOM      1  O   UNL     1       5.328   4.083  17.974  0.00  0.00    +0.000 OA
ATOM      2  C   UNL     1       4.711   4.985  17.411  0.00  0.00    +0.000 C 
ATOM      3  N   UNL     1       3.348   5.211  17.506  0.00  0.00    +0.000 N 
ATOM      4  H   UNL     1       2.925   5.878  16.865  0.00  0.00    +0.000 HD
ENDROOT
BRANCH   3   5
ATOM      5  C   UNL     1       2.452   4.569  18.391  0.00  0.00    +0.000 A 
ATOM      6  C   UNL     1       1.808   3.365  18.095  0.00  0.00    +0.000 A 
ATOM      7  C   UNL     1       0.964   2.759  19.032  0.00  0.00    +0.000 A 
ATOM      8  C   UNL     1       0.748   3.354  20.274  0.00  0.00    +0.000 A 
ATOM      9  C   UNL     1       1.381   4.557  20.583  0.00  0.00    +0.000 A 
ATOM     10  C   UNL     1       2.229   5.147  19.646  0.00  0.00    +0.000 A 
ATOM     11  F   UNL     1       2.832   6.307  19.961  0.00  0.00    +0.000 F 
ENDBRANCH   3   5
BRANCH   2  12
ATOM     12  C   UNL     1       5.446   5.977  16.528  0.00  0.00    +0.000 C 
BRANCH  12  13
ATOM     13  C   UNL     1       5.953   5.270  15.327  0.00  0.00    +0.000 A 
ATOM     14  C   UNL     1       5.426   4.299  14.499  0.00  0.00    +0.000 A 
ATOM     15  C   UNL     1       6.406   4.041  13.512  0.00  0.00    +0.000 A 
ATOM     16  C   UNL     1       7.463   4.873  13.795  0.00  0.00    +0.000 A 
ATOM     17  O   UNL     1       7.200   5.622  14.898  0.00  0.00    +0.000 OA
ENDBRANCH  12  13
ENDBRANCH   2  12
TORSDOF 3
ENDMDL
MODEL 9
REMARK VINA RESULT:      -6.6      1.142      1.658
REMARK  Name = 
REMARK  3 active torsions:
REMARK  status: ('A' for Active; 'I' for Inactive)
REMARK    1  A    between atoms: C_2  and  C_3
REMARK    2  A    between atoms: C_3  and  C_4
REMARK    3  A    between atoms: N_9  and  C_10
REMARK                            x       y       z     vdW  Elec       q    Type
REMARK                         _______ _______ _______ _____ _____    ______ ____
ROOT
ATOM      1  O   UNL     1       4.234   3.508  16.709  0.00  0.00    +0.000 OA
ATOM      2  C   UNL     1       3.585   4.154  17.529  0.00  0.00    +0.000 C 
ATOM      3  N   UNL     1       4.068   5.205  18.292  0.00  0.00    +0.000 N 
ATOM      4  H   UNL     1       3.491   5.551  19.055  0.00  0.00    +0.000 HD
ENDROOT
BRANCH   3   5
ATOM      5  C   UNL     1       5.325   5.837  18.148  0.00  0.00    +0.000 A 
ATOM      6  C   UNL     1       5.561   6.882  17.251  0.00  0.00    +0.000 A 
ATOM      7  C   UNL     1       6.818   7.493  17.186  0.00  0.00    +0.000 A 
ATOM      8  C   UNL     1       7.855   7.062  18.013  0.00  0.00    +0.000 A 
ATOM      9  C   UNL     1       7.635   6.019  18.910  0.00  0.00    +0.000 A 
ATOM     10  C   UNL     1       6.375   5.423  18.975  0.00  0.00    +0.000 A 
ATOM     11  F   UNL     1       6.180   4.419  19.847  0.00  0.00    +0.000 F 
ENDBRANCH   3   5
BRANCH   2  12
ATOM     12  C   UNL     1       2.121   3.834  17.769  0.00  0.00    +0.000 C 
BRANCH  12  13
ATOM     13  C   UNL     1       1.937   3.454  19.190  0.00  0.00    +0.000 A 
ATOM     14  C   UNL     1       0.849   3.440  20.040  0.00  0.00    +0.000 A 
ATOM     15  C   UNL     1       1.322   2.961  21.285  0.00  0.00    +0.000 A 
ATOM     16  C   UNL     1       2.663   2.710  21.115  0.00  0.00    +0.000 A 
ATOM     17  O   UNL     1       3.048   3.008  19.847  0.00  0.00    +0.000 OA
ENDBRANCH  12  13
ENDBRANCH   2  12
TORSDOF 3
ENDMDL
