MODEL 1
REMARK VINA RESULT:      -7.7      0.000      0.000
REMARK  Name = 
REMARK  6 active torsions:
REMARK  status: ('A' for Active; 'I' for Inactive)
REMARK    1  A    between atoms: C_1  and  C_2
REMARK    2  A    between atoms: C_4  and  N_5
REMARK    3  A    between atoms: C_8  and  N_9
REMARK    4  A    between atoms: N_9  and  C_10
REMARK    5  A    between atoms: N_9  and  C_11
REMARK    6  A    between atoms: C_22  and  C_23
REMARK                            x       y       z     vdW  Elec       q    Type
REMARK                         _______ _______ _______ _____ _____    ______ ____
ROOT
ATOM      1  C   UNL     1       7.048   7.491  16.966  0.00  0.00    +0.000 C 
ATOM      2  C   UNL     1       5.944   6.740  17.661  0.00  0.00    +0.000 A 
ATOM      3  C   UNL     1       4.671   7.443  17.831  0.00  0.00    +0.000 A 
ATOM      4  C   UNL     1       3.618   6.854  18.441  0.00  0.00    +0.000 A 
ATOM      5  N   UNL     1       3.796   5.526  18.909  0.00  0.00    +0.000 N 
ATOM      6  C   UNL     1       5.003   4.830  18.788  0.00  0.00    +0.000 A 
ATOM      7  N   UNL     1       4.938   3.638  19.344  0.00  0.00    +0.000 NA
ATOM      8  C   UNL     1       3.658   3.520  19.813  0.00  0.00    +0.000 A 
ATOM      9  C   UNL     1       3.065   2.440  20.487  0.00  0.00    +0.000 A 
ATOM     10  C   UNL     1       1.722   2.529  20.865  0.00  0.00    +0.000 A 
ATOM     11  C   UNL     1       0.976   3.666  20.564  0.00  0.00    +0.000 A 
ATOM     12  C   UNL     1       1.551   4.751  19.892  0.00  0.00    +0.000 A 
ATOM     13  C   UNL     1       2.907   4.661  19.540  0.00  0.00    +0.000 A 
ATOM     14  C   UNL     1       6.093   5.477  18.126  0.00  0.00    +0.000 A 
ENDROOT
BRANCH   4  15
ATOM     15  N   UNL     1       2.400   7.505  18.664  0.00  0.00    +0.000 N 
ATOM     16  C   UNL     1       1.790   8.409  17.682  0.00  0.00    +0.000 C 
ATOM     17  C   UNL     1       1.290   9.604  18.486  0.00  0.00    +0.000 C 
ATOM     18  C   UNL     1       0.903   8.990  19.836  0.00  0.00    +0.000 C 
ATOM     19  C   UNL     1       2.058   7.974  20.025  0.00  0.00    +0.000 C 
BRANCH  18  20
ATOM     20  N   UNL     1       0.775   9.973  20.931  0.00  0.00    +0.000 NA
ATOM     21  C   UNL     1       0.777   9.315  22.242  0.00  0.00    +0.000 C 
ATOM     22  C   UNL     1      -0.428  10.801  20.807  0.00  0.00    +0.000 C 
ENDBRANCH  18  20
ENDBRANCH   4  15
BRANCH  14  23
ATOM     23  C   UNL     1       7.384   4.700  17.933  0.00  0.00    +0.000 C 
ATOM     24  N   UNL     1       8.455   4.054  17.774  0.00  0.00    +0.000 NA
ENDBRANCH  14  23
TORSDOF 3
ENDMDL
MODEL 2
REMARK VINA RESULT:      -7.5      2.078      6.010
REMARK  Name = 
REMARK  6 active torsions:
REMARK  status: ('A' for Active; 'I' for Inactive)
REMARK    1  A    between atoms: C_1  and  C_2
REMARK    2  A    between atoms: C_4  and  N_5
REMARK    3  A    between atoms: C_8  and  N_9
REMARK    4  A    between atoms: N_9  and  C_10
REMARK    5  A    between atoms: N_9  and  C_11
REMARK    6  A    between atoms: C_22  and  C_23
REMARK                            x       y       z     vdW  Elec       q    Type
REMARK                         _______ _______ _______ _____ _____    ______ ____
ROOT
ATOM      1  C   UNL     1       2.817   9.393  17.469  0.00  0.00    +0.000 C 
ATOM      2  C   UNL     1       2.938   8.033  18.101  0.00  0.00    +0.000 A 
ATOM      3  C   UNL     1       3.918   7.116  17.514  0.00  0.00    +0.000 A 
ATOM      4  C   UNL     1       4.102   5.872  18.010  0.00  0.00    +0.000 A 
ATOM      5  N   UNL     1       3.310   5.491  19.124  0.00  0.00    +0.000 N 
ATOM      6  C   UNL     1       2.346   6.328  19.696  0.00  0.00    +0.000 A 
ATOM      7  N   UNL     1       1.704   5.733  20.681  0.00  0.00    +0.000 NA
ATOM      8  C   UNL     1       2.270   4.492  20.791  0.00  0.00    +0.000 A 
ATOM      9  C   UNL     1       1.954   3.459  21.690  0.00  0.00    +0.000 A 
ATOM     10  C   UNL     1       2.680   2.266  21.636  0.00  0.00    +0.000 A 
ATOM     11  C   UNL     1       3.713   2.107  20.716  0.00  0.00    +0.000 A 
ATOM     12  C   UNL     1       4.042   3.125  19.814  0.00  0.00    +0.000 A 
ATOM     13  C   UNL     1       3.289   4.310  19.860  0.00  0.00    +0.000 A 
ATOM     14  C   UNL     1       2.185   7.641  19.156  0.00  0.00    +0.000 A 
ENDROOT
BRANCH   4  15
ATOM     15  N   UNL     1       4.994   4.950  17.452  0.00  0.00    +0.000 N 
ATOM     16  C   UNL     1       6.421   4.913  17.798  0.00  0.00    +0.000 C 
ATOM     17  C   UNL     1       7.154   4.724  16.475  0.00  0.00    +0.000 C 
ATOM     18  C   UNL     1       6.181   3.882  15.643  0.00  0.00    +0.000 C 
ATOM     19  C   UNL     1       4.832   4.534  16.041  0.00  0.00    +0.000 C 
BRANCH  18  20
ATOM     20  N   UNL     1       6.457   3.898  14.192  0.00  0.00    +0.000 NA
ATOM     21  C   UNL     1       7.283   5.052  13.819  0.00  0.00    +0.000 C 
ATOM     22  C   UNL     1       5.234   3.896  13.386  0.00  0.00    +0.000 C 
ENDBRANCH  18  20
ENDBRANCH   4  15
BRANCH  14  23
ATOM     23  C   UNL     1       1.188   8.577  19.818  0.00  0.00    +0.000 C 
ATOM     24  N   UNL     1       0.359   9.353  20.367  0.00  0.00    +0.000 NA
ENDBRANCH  14  23
TORSDOF 3
ENDMDL
MODEL 3
REMARK VINA RESULT:      -6.0      2.545      6.259
REMARK  Name = 
REMARK  6 active torsions:
REMARK  status: ('A' for Active; 'I' for Inactive)
REMARK    1  A    between atoms: C_1  and  C_2
REMARK    2  A    between atoms: C_4  and  N_5
REMARK    3  A    between atoms: C_8  and  N_9
REMARK    4  A    between atoms: N_9  and  C_10
REMARK    5  A    between atoms: N_9  and  C_11
REMARK    6  A    between atoms: C_22  and  C_23
REMARK                            x       y       z     vdW  Elec       q    Type
REMARK                         _______ _______ _______ _____ _____    ______ ____
ROOT
ATOM      1  C   UNL     1       3.316   9.396  17.654  0.00  0.00    +0.000 C 
ATOM      2  C   UNL     1       3.273   7.914  17.912  0.00  0.00    +0.000 A 
ATOM      3  C   UNL     1       4.196   7.081  17.137  0.00  0.00    +0.000 A 
ATOM      4  C   UNL     1       4.235   5.740  17.295  0.00  0.00    +0.000 A 
ATOM      5  N   UNL     1       3.346   5.169  18.244  0.00  0.00    +0.000 N 
ATOM      6  C   UNL     1       2.434   5.927  18.985  0.00  0.00    +0.000 A 
ATOM      7  N   UNL     1       1.684   5.170  19.759  0.00  0.00    +0.000 NA
ATOM      8  C   UNL     1       2.124   3.890  19.558  0.00  0.00    +0.000 A 
ATOM      9  C   UNL     1       1.662   2.700  20.144  0.00  0.00    +0.000 A 
ATOM     10  C   UNL     1       2.275   1.491  19.803  0.00  0.00    +0.000 A 
ATOM     11  C   UNL     1       3.341   1.466  18.907  0.00  0.00    +0.000 A 
ATOM     12  C   UNL     1       3.814   2.643  18.313  0.00  0.00    +0.000 A 
ATOM     13  C   UNL     1       3.174   3.848  18.645  0.00  0.00    +0.000 A 
ATOM     14  C   UNL     1       2.427   7.345  18.803  0.00  0.00    +0.000 A 
ENDROOT
BRANCH   4  15
ATOM     15  N   UNL     1       5.067   4.903  16.544  0.00  0.00    +0.000 N 
ATOM     16  C   UNL     1       6.483   4.692  16.867  0.00  0.00    +0.000 C 
ATOM     17  C   UNL     1       7.218   4.749  15.533  0.00  0.00    +0.000 C 
ATOM     18  C   UNL     1       6.199   4.182  14.538  0.00  0.00    +0.000 C 
ATOM     19  C   UNL     1       4.894   4.822  15.076  0.00  0.00    +0.000 C 
BRANCH  18  20
ATOM     20  N   UNL     1       6.493   4.499  13.126  0.00  0.00    +0.000 NA
ATOM     21  C   UNL     1       6.360   3.312  12.274  0.00  0.00    +0.000 C 
ATOM     22  C   UNL     1       7.827   5.078  12.945  0.00  0.00    +0.000 C 
ENDBRANCH  18  20
ENDBRANCH   4  15
BRANCH  14  23
ATOM     23  C   UNL     1       1.485   8.178  19.655  0.00  0.00    +0.000 C 
ATOM     24  N   UNL     1       0.702   8.869  20.362  0.00  0.00    +0.000 NA
ENDBRANCH  14  23
TORSDOF 3
ENDMDL
MODEL 4
REMARK VINA RESULT:      -5.9      7.398     10.254
REMARK  Name = 
REMARK  6 active torsions:
REMARK  status: ('A' for Active; 'I' for Inactive)
REMARK    1  A    between atoms: C_1  and  C_2
REMARK    2  A    between atoms: C_4  and  N_5
REMARK    3  A    between atoms: C_8  and  N_9
REMARK    4  A    between atoms: N_9  and  C_10
REMARK    5  A    between atoms: N_9  and  C_11
REMARK    6  A    between atoms: C_22  and  C_23
REMARK                            x       y       z     vdW  Elec       q    Type
REMARK                         _______ _______ _______ _____ _____    ______ ____
ROOT
ATOM      1  C   UNL     1      -2.716  13.847  23.819  0.00  0.00    +0.000 C 
ATOM      2  C   UNL     1      -2.770  13.325  22.409  0.00  0.00    +0.000 A 
ATOM      3  C   UNL     1      -1.494  13.200  21.700  0.00  0.00    +0.000 A 
ATOM      4  C   UNL     1      -1.437  12.742  20.431  0.00  0.00    +0.000 A 
ATOM      5  N   UNL     1      -2.663  12.383  19.811  0.00  0.00    +0.000 N 
ATOM      6  C   UNL     1      -3.903  12.511  20.445  0.00  0.00    +0.000 A 
ATOM      7  N   UNL     1      -4.896  12.166  19.651  0.00  0.00    +0.000 NA
ATOM      8  C   UNL     1      -4.309  11.769  18.480  0.00  0.00    +0.000 A 
ATOM      9  C   UNL     1      -4.921  11.302  17.306  0.00  0.00    +0.000 A 
ATOM     10  C   UNL     1      -4.119  10.930  16.222  0.00  0.00    +0.000 A 
ATOM     11  C   UNL     1      -2.731  11.006  16.311  0.00  0.00    +0.000 A 
ATOM     12  C   UNL     1      -2.105  11.468  17.474  0.00  0.00    +0.000 A 
ATOM     13  C   UNL     1      -2.922  11.863  18.546  0.00  0.00    +0.000 A 
ATOM     14  C   UNL     1      -3.927  12.988  21.792  0.00  0.00    +0.000 A 
ENDROOT
BRANCH   4  15
ATOM     15  N   UNL     1      -0.246  12.649  19.702  0.00  0.00    +0.000 N 
ATOM     16  C   UNL     1       0.938  11.939  20.200  0.00  0.00    +0.000 C 
ATOM     17  C   UNL     1       2.122  12.841  19.871  0.00  0.00    +0.000 C 
ATOM     18  C   UNL     1       1.694  13.533  18.572  0.00  0.00    +0.000 C 
ATOM     19  C   UNL     1       0.195  13.791  18.870  0.00  0.00    +0.000 C 
BRANCH  18  20
ATOM     20  N   UNL     1       2.468  14.751  18.254  0.00  0.00    +0.000 NA
ATOM     21  C   UNL     1       3.891  14.575  18.563  0.00  0.00    +0.000 C 
ATOM     22  C   UNL     1       1.964  15.937  18.952  0.00  0.00    +0.000 C 
ENDBRANCH  18  20
ENDBRANCH   4  15
BRANCH  14  23
ATOM     23  C   UNL     1      -5.266  13.064  22.507  0.00  0.00    +0.000 C 
ATOM     24  N   UNL     1      -6.377  13.129  23.099  0.00  0.00    +0.000 NA
ENDBRANCH  14  23
TORSDOF 3
ENDMDL
MODEL 5
REMARK VINA RESULT:      -5.9      3.563      9.064
REMARK  Name = 
REMARK  6 active torsions:
REMARK  status: ('A' for Active; 'I' for Inactive)
REMARK    1  A    between atoms: C_1  and  C_2
REMARK    2  A    between atoms: C_4  and  N_5
REMARK    3  A    between atoms: C_8  and  N_9
REMARK    4  A    between atoms: N_9  and  C_10
REMARK    5  A    between atoms: N_9  and  C_11
REMARK    6  A    between atoms: C_22  and  C_23
REMARK                            x       y       z     vdW  Elec       q    Type
REMARK                         _______ _______ _______ _____ _____    ______ ____
ROOT
ATOM      1  C   UNL     1      -3.450  10.036  15.593  0.00  0.00    +0.000 C 
ATOM      2  C   UNL     1      -2.944  10.563  16.908  0.00  0.00    +0.000 A 
ATOM      3  C   UNL     1      -1.583  10.183  17.294  0.00  0.00    +0.000 A 
ATOM      4  C   UNL     1      -1.037  10.604  18.456  0.00  0.00    +0.000 A 
ATOM      5  N   UNL     1      -1.835  11.434  19.287  0.00  0.00    +0.000 N 
ATOM      6  C   UNL     1      -3.146  11.798  18.966  0.00  0.00    +0.000 A 
ATOM      7  N   UNL     1      -3.698  12.525  19.916  0.00  0.00    +0.000 NA
ATOM      8  C   UNL     1      -2.730  12.679  20.871  0.00  0.00    +0.000 A 
ATOM      9  C   UNL     1      -2.800  13.373  22.090  0.00  0.00    +0.000 A 
ATOM     10  C   UNL     1      -1.672  13.414  22.915  0.00  0.00    +0.000 A 
ATOM     11  C   UNL     1      -0.489  12.790  22.527  0.00  0.00    +0.000 A 
ATOM     12  C   UNL     1      -0.401  12.094  21.316  0.00  0.00    +0.000 A 
ATOM     13  C   UNL     1      -1.548  12.038  20.508  0.00  0.00    +0.000 A 
ATOM     14  C   UNL     1      -3.689  11.346  17.724  0.00  0.00    +0.000 A 
ENDROOT
BRANCH   4  15
ATOM     15  N   UNL     1       0.240  10.228  18.883  0.00  0.00    +0.000 N 
ATOM     16  C   UNL     1       1.455  10.512  18.108  0.00  0.00    +0.000 C 
ATOM     17  C   UNL     1       2.284   9.235  18.169  0.00  0.00    +0.000 C 
ATOM     18  C   UNL     1       1.944   8.652  19.545  0.00  0.00    +0.000 C 
ATOM     19  C   UNL     1       0.425   8.952  19.611  0.00  0.00    +0.000 C 
BRANCH  18  20
ATOM     20  N   UNL     1       2.286   7.223  19.696  0.00  0.00    +0.000 NA
ATOM     21  C   UNL     1       2.291   6.535  18.401  0.00  0.00    +0.000 C 
ATOM     22  C   UNL     1       1.384   6.522  20.614  0.00  0.00    +0.000 C 
ENDBRANCH  18  20
ENDBRANCH   4  15
BRANCH  14  23
ATOM     23  C   UNL     1      -5.089  11.795  17.341  0.00  0.00    +0.000 C 
ATOM     24  N   UNL     1      -6.251  12.168  17.023  0.00  0.00    +0.000 NA
ENDBRANCH  14  23
TORSDOF 3
ENDMDL
MODEL 6
REMARK VINA RESULT:      -5.8      6.940      9.286
REMARK  Name = 
REMARK  6 active torsions:
REMARK  status: ('A' for Active; 'I' for Inactive)
REMARK    1  A    between atoms: C_1  and  C_2
REMARK    2  A    between atoms: C_4  and  N_5
REMARK    3  A    between atoms: C_8  and  N_9
REMARK    4  A    between atoms: N_9  and  C_10
REMARK    5  A    between atoms: N_9  and  C_11
REMARK    6  A    between atoms: C_22  and  C_23
REMARK                            x       y       z     vdW  Elec       q    Type
REMARK                         _______ _______ _______ _____ _____    ______ ____
ROOT
ATOM      1  C   UNL     1       3.371  14.178  19.382  0.00  0.00    +0.000 C 
ATOM      2  C   UNL     1       2.092  13.923  20.133  0.00  0.00    +0.000 A 
ATOM      3  C   UNL     1       1.175  12.935  19.561  0.00  0.00    +0.000 A 
ATOM      4  C   UNL     1       0.002  12.634  20.160  0.00  0.00    +0.000 A 
ATOM      5  N   UNL     1      -0.306  13.314  21.368  0.00  0.00    +0.000 N 
ATOM      6  C   UNL     1       0.532  14.281  21.932  0.00  0.00    +0.000 A 
ATOM      7  N   UNL     1       0.007  14.807  23.021  0.00  0.00    +0.000 NA
ATOM      8  C   UNL     1      -1.182  14.157  23.206  0.00  0.00    +0.000 A 
ATOM      9  C   UNL     1      -2.132  14.337  24.225  0.00  0.00    +0.000 A 
ATOM     10  C   UNL     1      -3.283  13.544  24.230  0.00  0.00    +0.000 A 
ATOM     11  C   UNL     1      -3.479  12.576  23.248  0.00  0.00    +0.000 A 
ATOM     12  C   UNL     1      -2.543  12.383  22.225  0.00  0.00    +0.000 A 
ATOM     13  C   UNL     1      -1.403  13.203  22.217  0.00  0.00    +0.000 A 
ATOM     14  C   UNL     1       1.771  14.566  21.280  0.00  0.00    +0.000 A 
ENDROOT
BRANCH   4  15
ATOM     15  N   UNL     1      -0.923  11.732  19.625  0.00  0.00    +0.000 N 
ATOM     16  C   UNL     1      -0.591  10.331  19.334  0.00  0.00    +0.000 C 
ATOM     17  C   UNL     1      -1.212  10.041  17.973  0.00  0.00    +0.000 C 
ATOM     18  C   UNL     1      -2.466  10.921  17.956  0.00  0.00    +0.000 C 
ATOM     19  C   UNL     1      -1.921  12.202  18.637  0.00  0.00    +0.000 C 
BRANCH  18  20
ATOM     20  N   UNL     1      -3.029  11.144  16.609  0.00  0.00    +0.000 NA
ATOM     21  C   UNL     1      -4.464  11.445  16.673  0.00  0.00    +0.000 C 
ATOM     22  C   UNL     1      -2.813  10.006  15.712  0.00  0.00    +0.000 C 
ENDBRANCH  18  20
ENDBRANCH   4  15
BRANCH  14  23
ATOM     23  C   UNL     1       2.714  15.567  21.927  0.00  0.00    +0.000 C 
ATOM     24  N   UNL     1       3.496  16.399  22.463  0.00  0.00    +0.000 NA
ENDBRANCH  14  23
TORSDOF 3
ENDMDL
MODEL 7
REMARK VINA RESULT:      -5.8      7.709     11.444
REMARK  Name = 
REMARK  6 active torsions:
REMARK  status: ('A' for Active; 'I' for Inactive)
REMARK    1  A    between atoms: C_1  and  C_2
REMARK    2  A    between atoms: C_4  and  N_5
REMARK    3  A    between atoms: C_8  and  N_9
REMARK    4  A    between atoms: N_9  and  C_10
REMARK    5  A    between atoms: N_9  and  C_11
REMARK    6  A    between atoms: C_22  and  C_23
REMARK                            x       y       z     vdW  Elec       q    Type
REMARK                         _______ _______ _______ _____ _____    ______ ____
ROOT
ATOM      1  C   UNL     1      -4.061  13.145  25.003  0.00  0.00    +0.000 C 
ATOM      2  C   UNL     1      -4.308  12.928  23.534  0.00  0.00    +0.000 A 
ATOM      3  C   UNL     1      -3.131  12.706  22.692  0.00  0.00    +0.000 A 
ATOM      4  C   UNL     1      -3.246  12.500  21.361  0.00  0.00    +0.000 A 
ATOM      5  N   UNL     1      -4.556  12.506  20.813  0.00  0.00    +0.000 N 
ATOM      6  C   UNL     1      -5.702  12.739  21.579  0.00  0.00    +0.000 A 
ATOM      7  N   UNL     1      -6.792  12.747  20.839  0.00  0.00    +0.000 NA
ATOM      8  C   UNL     1      -6.372  12.482  19.564  0.00  0.00    +0.000 A 
ATOM      9  C   UNL     1      -7.138  12.376  18.391  0.00  0.00    +0.000 A 
ATOM     10  C   UNL     1      -6.497  12.078  17.185  0.00  0.00    +0.000 A 
ATOM     11  C   UNL     1      -5.120  11.873  17.148  0.00  0.00    +0.000 A 
ATOM     12  C   UNL     1      -4.341  11.975  18.307  0.00  0.00    +0.000 A 
ATOM     13  C   UNL     1      -4.993  12.299  19.508  0.00  0.00    +0.000 A 
ATOM     14  C   UNL     1      -5.546  12.940  22.986  0.00  0.00    +0.000 A 
ENDROOT
BRANCH   4  15
ATOM     15  N   UNL     1      -2.147  12.330  20.514  0.00  0.00    +0.000 N 
ATOM     16  C   UNL     1      -1.182  11.234  20.672  0.00  0.00    +0.000 C 
ATOM     17  C   UNL     1       0.189  11.869  20.477  0.00  0.00    +0.000 C 
ATOM     18  C   UNL     1      -0.076  12.991  19.467  0.00  0.00    +0.000 C 
ATOM     19  C   UNL     1      -1.440  13.516  19.981  0.00  0.00    +0.000 C 
BRANCH  18  20
ATOM     20  N   UNL     1       0.986  14.016  19.411  0.00  0.00    +0.000 NA
ATOM     21  C   UNL     1       1.914  13.885  20.540  0.00  0.00    +0.000 C 
ATOM     22  C   UNL     1       0.452  15.380  19.380  0.00  0.00    +0.000 C 
ENDBRANCH  18  20
ENDBRANCH   4  15
BRANCH  14  23
ATOM     23  C   UNL     1      -6.794  13.126  23.832  0.00  0.00    +0.000 C 
ATOM     24  N   UNL     1      -7.830  13.280  24.534  0.00  0.00    +0.000 NA
ENDBRANCH  14  23
TORSDOF 3
ENDMDL
MODEL 8
REMARK VINA RESULT:      -5.7      6.849      9.130
REMARK  Name = 
REMARK  6 active torsions:
REMARK  status: ('A' for Active; 'I' for Inactive)
REMARK    1  A    between atoms: C_1  and  C_2
REMARK    2  A    between atoms: C_4  and  N_5
REMARK    3  A    between atoms: C_8  and  N_9
REMARK    4  A    between atoms: N_9  and  C_10
REMARK    5  A    between atoms: N_9  and  C_11
REMARK    6  A    between atoms: C_22  and  C_23
REMARK                            x       y       z     vdW  Elec       q    Type
REMARK                         _______ _______ _______ _____ _____    ______ ____
ROOT
ATOM      1  C   UNL     1       2.891  14.448  18.025  0.00  0.00    +0.000 C 
ATOM      2  C   UNL     1       1.810  14.085  19.006  0.00  0.00    +0.000 A 
ATOM      3  C   UNL     1       0.936  12.966  18.643  0.00  0.00    +0.000 A 
ATOM      4  C   UNL     1      -0.064  12.563  19.457  0.00  0.00    +0.000 A 
ATOM      5  N   UNL     1      -0.235  13.266  20.678  0.00  0.00    +0.000 N 
ATOM      6  C   UNL     1       0.562  14.354  21.048  0.00  0.00    +0.000 A 
ATOM      7  N   UNL     1       0.178  14.873  22.197  0.00  0.00    +0.000 NA
ATOM      8  C   UNL     1      -0.869  14.099  22.619  0.00  0.00    +0.000 A 
ATOM      9  C   UNL     1      -1.636  14.220  23.788  0.00  0.00    +0.000 A 
ATOM     10  C   UNL     1      -2.659  13.299  24.029  0.00  0.00    +0.000 A 
ATOM     11  C   UNL     1      -2.904  12.262  23.131  0.00  0.00    +0.000 A 
ATOM     12  C   UNL     1      -2.149  12.126  21.961  0.00  0.00    +0.000 A 
ATOM     13  C   UNL     1      -1.141  13.073  21.717  0.00  0.00    +0.000 A 
ATOM     14  C   UNL     1       1.620  14.747  20.171  0.00  0.00    +0.000 A 
ENDROOT
BRANCH   4  15
ATOM     15  N   UNL     1      -0.949  11.530  19.129  0.00  0.00    +0.000 N 
ATOM     16  C   UNL     1      -0.496  10.201  18.701  0.00  0.00    +0.000 C 
ATOM     17  C   UNL     1      -1.393   9.825  17.527  0.00  0.00    +0.000 C 
ATOM     18  C   UNL     1      -2.727  10.499  17.865  0.00  0.00    +0.000 C 
ATOM     19  C   UNL     1      -2.224  11.845  18.446  0.00  0.00    +0.000 C 
BRANCH  18  20
ATOM     20  N   UNL     1      -3.641  10.639  16.713  0.00  0.00    +0.000 NA
ATOM     21  C   UNL     1      -2.899  10.862  15.468  0.00  0.00    +0.000 C 
ATOM     22  C   UNL     1      -4.616  11.718  16.897  0.00  0.00    +0.000 C 
ENDBRANCH  18  20
ENDBRANCH   4  15
BRANCH  14  23
ATOM     23  C   UNL     1       2.529  15.886  20.602  0.00  0.00    +0.000 C 
ATOM     24  N   UNL     1       3.284  16.831  20.958  0.00  0.00    +0.000 NA
ENDBRANCH  14  23
TORSDOF 3
ENDMDL
MODEL 9
REMARK VINA RESULT:      -5.7      7.543     10.236
REMARK  Name = 
REMARK  6 active torsions:
REMARK  status: ('A' for Active; 'I' for Inactive)
REMARK    1  A    between atoms: C_1  and  C_2
REMARK    2  A    between atoms: C_4  and  N_5
REMARK    3  A    between atoms: C_8  and  N_9
REMARK    4  A    between atoms: N_9  and  C_10
REMARK    5  A    between atoms: N_9  and  C_11
REMARK    6  A    between atoms: C_22  and  C_23
REMARK                            x       y       z     vdW  Elec       q    Type
REMARK                         _______ _______ _______ _____ _____    ______ ____
ROOT
ATOM      1  C   UNL     1      -6.278  11.493  17.866  0.00  0.00    +0.000 C 
ATOM      2  C   UNL     1      -4.912  11.788  18.424  0.00  0.00    +0.000 A 
ATOM      3  C   UNL     1      -4.859  12.399  19.754  0.00  0.00    +0.000 A 
ATOM      4  C   UNL     1      -3.681  12.703  20.342  0.00  0.00    +0.000 A 
ATOM      5  N   UNL     1      -2.496  12.405  19.619  0.00  0.00    +0.000 N 
ATOM      6  C   UNL     1      -2.506  11.845  18.337  0.00  0.00    +0.000 A 
ATOM      7  N   UNL     1      -1.288  11.712  17.853  0.00  0.00    +0.000 NA
ATOM      8  C   UNL     1      -0.449  12.156  18.839  0.00  0.00    +0.000 A 
ATOM      9  C   UNL     1       0.954  12.224  18.835  0.00  0.00    +0.000 A 
ATOM     10  C   UNL     1       1.615  12.702  19.970  0.00  0.00    +0.000 A 
ATOM     11  C   UNL     1       0.895  13.090  21.097  0.00  0.00    +0.000 A 
ATOM     12  C   UNL     1      -0.504  13.029  21.119  0.00  0.00    +0.000 A 
ATOM     13  C   UNL     1      -1.158  12.571  19.964  0.00  0.00    +0.000 A 
ATOM     14  C   UNL     1      -3.768  11.524  17.749  0.00  0.00    +0.000 A 
ENDROOT
BRANCH   4  15
ATOM     15  N   UNL     1      -3.586  13.327  21.590  0.00  0.00    +0.000 N 
ATOM     16  C   UNL     1      -3.801  12.614  22.855  0.00  0.00    +0.000 C 
ATOM     17  C   UNL     1      -4.653  13.546  23.708  0.00  0.00    +0.000 C 
ATOM     18  C   UNL     1      -4.199  14.944  23.273  0.00  0.00    +0.000 C 
ATOM     19  C   UNL     1      -4.041  14.727  21.747  0.00  0.00    +0.000 C 
BRANCH  18  20
ATOM     20  N   UNL     1      -5.139  16.024  23.638  0.00  0.00    +0.000 NA
ATOM     21  C   UNL     1      -4.684  16.746  24.831  0.00  0.00    +0.000 C 
ATOM     22  C   UNL     1      -6.502  15.534  23.858  0.00  0.00    +0.000 C 
ENDBRANCH  18  20
ENDBRANCH   4  15
BRANCH  14  23
ATOM     23  C   UNL     1      -3.780  10.855  16.386  0.00  0.00    +0.000 C 
ATOM     24  N   UNL     1      -3.790  10.299  15.254  0.00  0.00    +0.000 NA
ENDBRANCH  14  23
TORSDOF 3
ENDMDL
