MODEL 1
REMARK VINA RESULT:      -8.2      0.000      0.000
REMARK  Name = 
REMARK  9 active torsions:
REMARK  status: ('A' for Active; 'I' for Inactive)
REMARK    1  A    between atoms: C_1  and  O_2
REMARK    2  A    between atoms: O_2  and  C_3
REMARK    3  A    between atoms: C_6  and  C_7
REMARK    4  A    between atoms: C_11  and  O_12
REMARK    5  A    between atoms: O_12  and  C_13
REMARK    6  A    between atoms: C_13  and  C_14
REMARK    7  A    between atoms: C_14  and  O_15
REMARK    8  A    between atoms: C_14  and  C_16
REMARK    9  A    between atoms: C_16  and  N_17
REMARK                            x       y       z     vdW  Elec       q    Type
REMARK                         _______ _______ _______ _____ _____    ______ ____
ROOT
ATOM      1  O   UNL     1       2.359   5.646  20.497  0.00  0.00    +0.000 OA
ENDROOT
BRANCH   1   6
ATOM      2  C   UNL     1       0.965   9.097  20.367  0.00  0.00    +0.000 A 
ATOM      3  C   UNL     1       1.371   9.393  19.051  0.00  0.00    +0.000 A 
ATOM      4  C   UNL     1       2.060   8.460  18.272  0.00  0.00    +0.000 A 
ATOM      5  C   UNL     1       2.360   7.214  18.807  0.00  0.00    +0.000 A 
ATOM      6  C   UNL     1       1.977   6.893  20.110  0.00  0.00    +0.000 A 
ATOM      7  C   UNL     1       1.283   7.825  20.882  0.00  0.00    +0.000 A 
BRANCH   2  11
ATOM      8  C   UNL     1      -1.147  11.984  22.576  0.00  0.00    +0.000 A 
ATOM      9  N   UNL     1      -1.021  12.181  21.261  0.00  0.00    +0.000 NA
ATOM     10  C   UNL     1      -0.358  11.219  20.591  0.00  0.00    +0.000 A 
ATOM     11  C   UNL     1       0.221  10.095  21.158  0.00  0.00    +0.000 A 
ATOM     12  C   UNL     1       0.031  10.021  22.525  0.00  0.00    +0.000 A 
ATOM     13  N   UNL     1      -0.654  10.933  23.257  0.00  0.00    +0.000 NA
BRANCH   8  15
ATOM     14  C   UNL     1      -1.021  14.190  23.285  0.00  0.00    +0.000 C 
ATOM     15  O   UNL     1      -1.784  12.993  23.260  0.00  0.00    +0.000 OA
ENDBRANCH   8  15
ENDBRANCH   2  11
ENDBRANCH   1   6
BRANCH   1  16
ATOM     16  C   UNL     1       1.349   4.638  20.608  0.00  0.00    +0.000 C 
BRANCH  16  17
ATOM     17  C   UNL     1       2.085   3.313  20.801  0.00  0.00    +0.000 C 
BRANCH  17  18
ATOM     18  O   UNL     1       1.336   2.489  21.712  0.00  0.00    +0.000 OA
ATOM     19  H   UNL     1       1.748   1.605  21.684  0.00  0.00    +0.000 HD
ENDBRANCH  17  18
BRANCH  17  20
ATOM     20  C   UNL     1       2.300   2.524  19.479  0.00  0.00    +0.000 C 
BRANCH  20  21
ATOM     21  N   UNL     1       3.463   2.885  18.687  0.00  0.00    +0.000 NA
ATOM     22  C   UNL     1       4.684   3.152  19.423  0.00  0.00    +0.000 C 
ATOM     23  C   UNL     1       5.306   4.544  19.242  0.00  0.00    +0.000 C 
ATOM     24  C   UNL     1       5.099   5.117  17.851  0.00  0.00    +0.000 A 
ATOM     25  C   UNL     1       5.915   6.185  17.476  0.00  0.00    +0.000 A 
ATOM     26  C   UNL     1       6.486   6.150  16.218  0.00  0.00    +0.000 A 
ATOM     27  C   UNL     1       6.153   5.113  15.343  0.00  0.00    +0.000 A 
ATOM     28  C   UNL     1       5.108   4.225  15.650  0.00  0.00    +0.000 A 
ATOM     29  C   UNL     1       4.513   4.270  16.908  0.00  0.00    +0.000 A 
ATOM     30  C   UNL     1       3.315   3.448  17.351  0.00  0.00    +0.000 C 
ENDBRANCH  20  21
ENDBRANCH  17  20
ENDBRANCH  16  17
ENDBRANCH   1  16
TORSDOF 8
ENDMDL
MODEL 2
REMARK VINA RESULT:      -7.8      1.110      1.393
REMARK  Name = 
REMARK  9 active torsions:
REMARK  status: ('A' for Active; 'I' for Inactive)
REMARK    1  A    between atoms: C_1  and  O_2
REMARK    2  A    between atoms: O_2  and  C_3
REMARK    3  A    between atoms: C_6  and  C_7
REMARK    4  A    between atoms: C_11  and  O_12
REMARK    5  A    between atoms: O_12  and  C_13
REMARK    6  A    between atoms: C_13  and  C_14
REMARK    7  A    between atoms: C_14  and  O_15
REMARK    8  A    between atoms: C_14  and  C_16
REMARK    9  A    between atoms: C_16  and  N_17
REMARK                            x       y       z     vdW  Elec       q    Type
REMARK                         _______ _______ _______ _____ _____    ______ ____
ROOT
ATOM      1  O   UNL     1       2.215   5.943  20.484  0.00  0.00    +0.000 OA
ENDROOT
BRANCH   1   6
ATOM      2  C   UNL     1       1.299   9.398  19.442  0.00  0.00    +0.000 A 
ATOM      3  C   UNL     1       1.857   9.337  18.149  0.00  0.00    +0.000 A 
ATOM      4  C   UNL     1       2.485   8.181  17.679  0.00  0.00    +0.000 A 
ATOM      5  C   UNL     1       2.572   7.069  18.504  0.00  0.00    +0.000 A 
ATOM      6  C   UNL     1       2.035   7.099  19.792  0.00  0.00    +0.000 A 
ATOM      7  C   UNL     1       1.402   8.253  20.256  0.00  0.00    +0.000 A 
BRANCH   2  11
ATOM      8  C   UNL     1      -0.610  12.883  20.816  0.00  0.00    +0.000 A 
ATOM      9  N   UNL     1       0.293  12.314  21.619  0.00  0.00    +0.000 NA
ATOM     10  C   UNL     1       0.896  11.215  21.128  0.00  0.00    +0.000 A 
ATOM     11  C   UNL     1       0.624  10.626  19.903  0.00  0.00    +0.000 A 
ATOM     12  C   UNL     1      -0.339  11.304  19.180  0.00  0.00    +0.000 A 
ATOM     13  N   UNL     1      -0.960  12.433  19.597  0.00  0.00    +0.000 NA
BRANCH   8  15
ATOM     14  C   UNL     1      -0.533  15.181  21.123  0.00  0.00    +0.000 C 
ATOM     15  O   UNL     1      -1.253  13.978  21.343  0.00  0.00    +0.000 OA
ENDBRANCH   8  15
ENDBRANCH   2  11
ENDBRANCH   1   6
BRANCH   1  16
ATOM     16  C   UNL     1       1.155   4.981  20.474  0.00  0.00    +0.000 C 
BRANCH  16  17
ATOM     17  C   UNL     1       1.821   3.607  20.540  0.00  0.00    +0.000 C 
BRANCH  17  18
ATOM     18  O   UNL     1       1.022   2.738  21.362  0.00  0.00    +0.000 OA
ATOM     19  H   UNL     1       0.120   2.766  20.992  0.00  0.00    +0.000 HD
ENDBRANCH  17  18
BRANCH  17  20
ATOM     20  C   UNL     1       2.009   2.941  19.148  0.00  0.00    +0.000 C 
BRANCH  20  21
ATOM     21  N   UNL     1       3.313   3.089  18.526  0.00  0.00    +0.000 NA
ATOM     22  C   UNL     1       4.438   3.261  19.425  0.00  0.00    +0.000 C 
ATOM     23  C   UNL     1       5.263   4.545  19.257  0.00  0.00    +0.000 C 
ATOM     24  C   UNL     1       5.341   5.024  17.818  0.00  0.00    +0.000 A 
ATOM     25  C   UNL     1       6.339   5.947  17.509  0.00  0.00    +0.000 A 
ATOM     26  C   UNL     1       7.078   5.738  16.360  0.00  0.00    +0.000 A 
ATOM     27  C   UNL     1       6.740   4.683  15.510  0.00  0.00    +0.000 A 
ATOM     28  C   UNL     1       5.551   3.960  15.705  0.00  0.00    +0.000 A 
ATOM     29  C   UNL     1       4.789   4.181  16.850  0.00  0.00    +0.000 A 
ATOM     30  C   UNL     1       3.440   3.553  17.151  0.00  0.00    +0.000 C 
ENDBRANCH  20  21
ENDBRANCH  17  20
ENDBRANCH  16  17
ENDBRANCH   1  16
TORSDOF 8
ENDMDL
MODEL 3
REMARK VINA RESULT:      -7.7      2.570      4.468
REMARK  Name = 
REMARK  9 active torsions:
REMARK  status: ('A' for Active; 'I' for Inactive)
REMARK    1  A    between atoms: C_1  and  O_2
REMARK    2  A    between atoms: O_2  and  C_3
REMARK    3  A    between atoms: C_6  and  C_7
REMARK    4  A    between atoms: C_11  and  O_12
REMARK    5  A    between atoms: O_12  and  C_13
REMARK    6  A    between atoms: C_13  and  C_14
REMARK    7  A    between atoms: C_14  and  O_15
REMARK    8  A    between atoms: C_14  and  C_16
REMARK    9  A    between atoms: C_16  and  N_17
REMARK                            x       y       z     vdW  Elec       q    Type
REMARK                         _______ _______ _______ _____ _____    ______ ____
ROOT
ATOM      1  O   UNL     1       3.043   6.933  17.543  0.00  0.00    +0.000 OA
ENDROOT
BRANCH   1   6
ATOM      2  C   UNL     1       1.330   9.756  19.263  0.00  0.00    +0.000 A 
ATOM      3  C   UNL     1       1.127   9.104  20.495  0.00  0.00    +0.000 A 
ATOM      4  C   UNL     1       1.566   7.795  20.710  0.00  0.00    +0.000 A 
ATOM      5  C   UNL     1       2.209   7.115  19.685  0.00  0.00    +0.000 A 
ATOM      6  C   UNL     1       2.419   7.731  18.450  0.00  0.00    +0.000 A 
ATOM      7  C   UNL     1       1.987   9.041  18.242  0.00  0.00    +0.000 A 
BRANCH   2  11
ATOM      8  C   UNL     1      -0.012  13.698  18.680  0.00  0.00    +0.000 A 
ATOM      9  N   UNL     1      -0.829  12.706  18.316  0.00  0.00    +0.000 NA
ATOM     10  C   UNL     1      -0.368  11.461  18.544  0.00  0.00    +0.000 A 
ATOM     11  C   UNL     1       0.874  11.146  19.073  0.00  0.00    +0.000 A 
ATOM     12  C   UNL     1       1.624  12.263  19.390  0.00  0.00    +0.000 A 
ATOM     13  N   UNL     1       1.210  13.541  19.222  0.00  0.00    +0.000 NA
BRANCH   8  15
ATOM     14  C   UNL     1       0.250  15.963  19.107  0.00  0.00    +0.000 C 
ATOM     15  O   UNL     1      -0.471  14.964  18.402  0.00  0.00    +0.000 OA
ENDBRANCH   8  15
ENDBRANCH   2  11
ENDBRANCH   1   6
BRANCH   1  16
ATOM     16  C   UNL     1       4.446   7.125  17.331  0.00  0.00    +0.000 C 
BRANCH  16  17
ATOM     17  C   UNL     1       4.891   6.018  16.375  0.00  0.00    +0.000 C 
BRANCH  17  18
ATOM     18  O   UNL     1       5.799   6.572  15.407  0.00  0.00    +0.000 OA
ATOM     19  H   UNL     1       5.532   6.208  14.542  0.00  0.00    +0.000 HD
ENDBRANCH  17  18
BRANCH  17  20
ATOM     20  C   UNL     1       5.590   4.827  17.088  0.00  0.00    +0.000 C 
BRANCH  20  21
ATOM     21  N   UNL     1       4.738   3.944  17.867  0.00  0.00    +0.000 NA
ATOM     22  C   UNL     1       3.617   3.348  17.165  0.00  0.00    +0.000 C 
ATOM     23  C   UNL     1       2.219   3.641  17.727  0.00  0.00    +0.000 C 
ATOM     24  C   UNL     1       2.198   3.784  19.239  0.00  0.00    +0.000 A 
ATOM     25  C   UNL     1       0.958   3.690  19.869  0.00  0.00    +0.000 A 
ATOM     26  C   UNL     1       0.870   2.911  21.008  0.00  0.00    +0.000 A 
ATOM     27  C   UNL     1       2.029   2.337  21.536  0.00  0.00    +0.000 A 
ATOM     28  C   UNL     1       3.295   2.697  21.043  0.00  0.00    +0.000 A 
ATOM     29  C   UNL     1       3.390   3.500  19.909  0.00  0.00    +0.000 A 
ATOM     30  C   UNL     1       4.677   4.050  19.319  0.00  0.00    +0.000 C 
ENDBRANCH  20  21
ENDBRANCH  17  20
ENDBRANCH  16  17
ENDBRANCH   1  16
TORSDOF 8
ENDMDL
MODEL 4
REMARK VINA RESULT:      -7.6      5.643      7.558
REMARK  Name = 
REMARK  9 active torsions:
REMARK  status: ('A' for Active; 'I' for Inactive)
REMARK    1  A    between atoms: C_1  and  O_2
REMARK    2  A    between atoms: O_2  and  C_3
REMARK    3  A    between atoms: C_6  and  C_7
REMARK    4  A    between atoms: C_11  and  O_12
REMARK    5  A    between atoms: O_12  and  C_13
REMARK    6  A    between atoms: C_13  and  C_14
REMARK    7  A    between atoms: C_14  and  O_15
REMARK    8  A    between atoms: C_14  and  C_16
REMARK    9  A    between atoms: C_16  and  N_17
REMARK                            x       y       z     vdW  Elec       q    Type
REMARK                         _______ _______ _______ _____ _____    ______ ____
ROOT
ATOM      1  O   UNL     1       6.381   6.360  15.866  0.00  0.00    +0.000 OA
ENDROOT
BRANCH   1   6
ATOM      2  C   UNL     1       8.258   8.448  18.312  0.00  0.00    +0.000 A 
ATOM      3  C   UNL     1       8.523   7.422  19.241  0.00  0.00    +0.000 A 
ATOM      4  C   UNL     1       8.095   6.111  19.021  0.00  0.00    +0.000 A 
ATOM      5  C   UNL     1       7.384   5.809  17.868  0.00  0.00    +0.000 A 
ATOM      6  C   UNL     1       7.100   6.805  16.932  0.00  0.00    +0.000 A 
ATOM      7  C   UNL     1       7.535   8.112  17.151  0.00  0.00    +0.000 A 
BRANCH   2  11
ATOM      8  C   UNL     1       9.627  12.370  18.962  0.00  0.00    +0.000 A 
ATOM      9  N   UNL     1       8.946  12.131  17.838  0.00  0.00    +0.000 NA
ATOM     10  C   UNL     1       8.506  10.867  17.684  0.00  0.00    +0.000 A 
ATOM     11  C   UNL     1       8.740   9.820  18.561  0.00  0.00    +0.000 A 
ATOM     12  C   UNL     1       9.468  10.200  19.673  0.00  0.00    +0.000 A 
ATOM     13  N   UNL     1       9.911  11.458  19.910  0.00  0.00    +0.000 NA
BRANCH   8  15
ATOM     14  C   UNL     1       9.647  14.505  18.055  0.00  0.00    +0.000 C 
ATOM     15  O   UNL     1      10.111  13.651  19.090  0.00  0.00    +0.000 OA
ENDBRANCH   8  15
ENDBRANCH   2  11
ENDBRANCH   1   6
BRANCH   1  16
ATOM     16  C   UNL     1       6.938   5.309  15.071  0.00  0.00    +0.000 C 
BRANCH  16  17
ATOM     17  C   UNL     1       5.837   4.260  14.914  0.00  0.00    +0.000 C 
BRANCH  17  18
ATOM     18  O   UNL     1       6.195   3.361  13.849  0.00  0.00    +0.000 OA
ATOM     19  H   UNL     1       7.072   3.000  14.080  0.00  0.00    +0.000 HD
ENDBRANCH  17  18
BRANCH  17  20
ATOM     20  C   UNL     1       5.584   3.428  16.203  0.00  0.00    +0.000 C 
BRANCH  20  21
ATOM     21  N   UNL     1       4.296   3.606  16.849  0.00  0.00    +0.000 NA
ATOM     22  C   UNL     1       3.896   4.973  17.123  0.00  0.00    +0.000 C 
ATOM     23  C   UNL     1       3.619   5.328  18.591  0.00  0.00    +0.000 C 
ATOM     24  C   UNL     1       3.029   4.175  19.385  0.00  0.00    +0.000 A 
ATOM     25  C   UNL     1       2.415   4.487  20.598  0.00  0.00    +0.000 A 
ATOM     26  C   UNL     1       1.194   3.902  20.872  0.00  0.00    +0.000 A 
ATOM     27  C   UNL     1       0.672   2.957  19.985  0.00  0.00    +0.000 A 
ATOM     28  C   UNL     1       1.456   2.456  18.932  0.00  0.00    +0.000 A 
ATOM     29  C   UNL     1       2.698   3.026  18.664  0.00  0.00    +0.000 A 
ATOM     30  C   UNL     1       3.694   2.532  17.630  0.00  0.00    +0.000 C 
ENDBRANCH  20  21
ENDBRANCH  17  20
ENDBRANCH  16  17
ENDBRANCH   1  16
TORSDOF 8
ENDMDL
MODEL 5
REMARK VINA RESULT:      -7.6      3.270      9.331
REMARK  Name = 
REMARK  9 active torsions:
REMARK  status: ('A' for Active; 'I' for Inactive)
REMARK    1  A    between atoms: C_1  and  O_2
REMARK    2  A    between atoms: O_2  and  C_3
REMARK    3  A    between atoms: C_6  and  C_7
REMARK    4  A    between atoms: C_11  and  O_12
REMARK    5  A    between atoms: O_12  and  C_13
REMARK    6  A    between atoms: C_13  and  C_14
REMARK    7  A    between atoms: C_14  and  O_15
REMARK    8  A    between atoms: C_14  and  C_16
REMARK    9  A    between atoms: C_16  and  N_17
REMARK                            x       y       z     vdW  Elec       q    Type
REMARK                         _______ _______ _______ _____ _____    ______ ____
ROOT
ATOM      1  O   UNL     1       1.623   8.421  19.982  0.00  0.00    +0.000 OA
ENDROOT
BRANCH   1   6
ATOM      2  C   UNL     1       3.846   5.837  18.484  0.00  0.00    +0.000 A 
ATOM      3  C   UNL     1       3.476   4.780  19.339  0.00  0.00    +0.000 A 
ATOM      4  C   UNL     1       2.519   4.954  20.342  0.00  0.00    +0.000 A 
ATOM      5  C   UNL     1       1.925   6.197  20.509  0.00  0.00    +0.000 A 
ATOM      6  C   UNL     1       2.276   7.266  19.683  0.00  0.00    +0.000 A 
ATOM      7  C   UNL     1       3.226   7.086  18.677  0.00  0.00    +0.000 A 
BRANCH   2  11
ATOM      8  C   UNL     1       6.713   5.269  15.461  0.00  0.00    +0.000 A 
ATOM      9  N   UNL     1       6.934   6.243  16.348  0.00  0.00    +0.000 NA
ATOM     10  C   UNL     1       6.001   6.373  17.312  0.00  0.00    +0.000 A 
ATOM     11  C   UNL     1       4.845   5.618  17.420  0.00  0.00    +0.000 A 
ATOM     12  C   UNL     1       4.732   4.657  16.432  0.00  0.00    +0.000 A 
ATOM     13  N   UNL     1       5.647   4.448  15.455  0.00  0.00    +0.000 NA
BRANCH   8  15
ATOM     14  C   UNL     1       7.093   4.644  13.260  0.00  0.00    +0.000 C 
ATOM     15  O   UNL     1       7.646   5.174  14.455  0.00  0.00    +0.000 OA
ENDBRANCH   8  15
ENDBRANCH   2  11
ENDBRANCH   1   6
BRANCH   1  16
ATOM     16  C   UNL     1       0.811   8.449  21.160  0.00  0.00    +0.000 C 
BRANCH  16  17
ATOM     17  C   UNL     1       0.158   9.831  21.198  0.00  0.00    +0.000 C 
BRANCH  17  18
ATOM     18  O   UNL     1       0.352  10.404  22.503  0.00  0.00    +0.000 OA
ATOM     19  H   UNL     1      -0.535  10.473  22.905  0.00  0.00    +0.000 HD
ENDBRANCH  17  18
BRANCH  17  20
ATOM     20  C   UNL     1       0.725  10.814  20.135  0.00  0.00    +0.000 C 
BRANCH  20  21
ATOM     21  N   UNL     1      -0.200  11.268  19.110  0.00  0.00    +0.000 NA
ATOM     22  C   UNL     1      -0.847  12.544  19.348  0.00  0.00    +0.000 C 
ATOM     23  C   UNL     1      -2.382  12.540  19.395  0.00  0.00    +0.000 C 
ATOM     24  C   UNL     1      -3.007  11.516  18.463  0.00  0.00    +0.000 A 
ATOM     25  C   UNL     1      -4.360  11.674  18.162  0.00  0.00    +0.000 A 
ATOM     26  C   UNL     1      -4.747  11.538  16.843  0.00  0.00    +0.000 A 
ATOM     27  C   UNL     1      -3.803  11.154  15.887  0.00  0.00    +0.000 A 
ATOM     28  C   UNL     1      -2.525  10.720  16.278  0.00  0.00    +0.000 A 
ATOM     29  C   UNL     1      -2.136  10.834  17.610  0.00  0.00    +0.000 A 
ATOM     30  C   UNL     1      -0.833  10.323  18.199  0.00  0.00    +0.000 C 
ENDBRANCH  20  21
ENDBRANCH  17  20
ENDBRANCH  16  17
ENDBRANCH   1  16
TORSDOF 8
ENDMDL
MODEL 6
REMARK VINA RESULT:      -7.5      2.092      4.227
REMARK  Name = 
REMARK  9 active torsions:
REMARK  status: ('A' for Active; 'I' for Inactive)
REMARK    1  A    between atoms: C_1  and  O_2
REMARK    2  A    between atoms: O_2  and  C_3
REMARK    3  A    between atoms: C_6  and  C_7
REMARK    4  A    between atoms: C_11  and  O_12
REMARK    5  A    between atoms: O_12  and  C_13
REMARK    6  A    between atoms: C_13  and  C_14
REMARK    7  A    between atoms: C_14  and  O_15
REMARK    8  A    between atoms: C_14  and  C_16
REMARK    9  A    between atoms: C_16  and  N_17
REMARK                            x       y       z     vdW  Elec       q    Type
REMARK                         _______ _______ _______ _____ _____    ______ ____
ROOT
ATOM      1  O   UNL     1       3.051   7.634  17.250  0.00  0.00    +0.000 OA
ENDROOT
BRANCH   1   6
ATOM      2  C   UNL     1       0.941   9.576  19.625  0.00  0.00    +0.000 A 
ATOM      3  C   UNL     1       1.037   8.680  20.708  0.00  0.00    +0.000 A 
ATOM      4  C   UNL     1       1.789   7.505  20.618  0.00  0.00    +0.000 A 
ATOM      5  C   UNL     1       2.450   7.207  19.434  0.00  0.00    +0.000 A 
ATOM      6  C   UNL     1       2.368   8.071  18.342  0.00  0.00    +0.000 A 
ATOM      7  C   UNL     1       1.622   9.247  18.437  0.00  0.00    +0.000 A 
BRANCH   2  11
ATOM      8  C   UNL     1      -1.303  13.105  20.059  0.00  0.00    +0.000 A 
ATOM      9  N   UNL     1      -0.780  12.565  21.162  0.00  0.00    +0.000 NA
ATOM     10  C   UNL     1      -0.049  11.450  20.973  0.00  0.00    +0.000 A 
ATOM     11  C   UNL     1       0.156  10.818  19.756  0.00  0.00    +0.000 A 
ATOM     12  C   UNL     1      -0.452  11.471  18.700  0.00  0.00    +0.000 A 
ATOM     13  N   UNL     1      -1.171  12.613  18.813  0.00  0.00    +0.000 NA
BRANCH   8  15
ATOM     14  C   UNL     1      -1.310  15.376  20.531  0.00  0.00    +0.000 C 
ATOM     15  O   UNL     1      -2.085  14.217  20.267  0.00  0.00    +0.000 OA
ENDBRANCH   8  15
ENDBRANCH   2  11
ENDBRANCH   1   6
BRANCH   1  16
ATOM     16  C   UNL     1       4.423   7.265  17.420  0.00  0.00    +0.000 C 
BRANCH  16  17
ATOM     17  C   UNL     1       4.711   6.190  16.372  0.00  0.00    +0.000 C 
BRANCH  17  18
ATOM     18  O   UNL     1       5.550   6.749  15.345  0.00  0.00    +0.000 OA
ATOM     19  H   UNL     1       5.564   6.097  14.619  0.00  0.00    +0.000 HD
ENDBRANCH  17  18
BRANCH  17  20
ATOM     20  C   UNL     1       5.410   4.929  16.953  0.00  0.00    +0.000 C 
BRANCH  20  21
ATOM     21  N   UNL     1       4.584   4.035  17.746  0.00  0.00    +0.000 NA
ATOM     22  C   UNL     1       3.372   3.549  17.114  0.00  0.00    +0.000 C 
ATOM     23  C   UNL     1       2.050   3.870  17.826  0.00  0.00    +0.000 C 
ATOM     24  C   UNL     1       2.176   3.901  19.340  0.00  0.00    +0.000 A 
ATOM     25  C   UNL     1       0.995   3.822  20.077  0.00  0.00    +0.000 A 
ATOM     26  C   UNL     1       0.967   2.967  21.162  0.00  0.00    +0.000 A 
ATOM     27  C   UNL     1       2.135   2.298  21.537  0.00  0.00    +0.000 A 
ATOM     28  C   UNL     1       3.369   2.630  20.951  0.00  0.00    +0.000 A 
ATOM     29  C   UNL     1       3.406   3.508  19.872  0.00  0.00    +0.000 A 
ATOM     30  C   UNL     1       4.662   4.035  19.202  0.00  0.00    +0.000 C 
ENDBRANCH  20  21
ENDBRANCH  17  20
ENDBRANCH  16  17
ENDBRANCH   1  16
TORSDOF 8
ENDMDL
MODEL 7
REMARK VINA RESULT:      -7.5      1.180      1.581
REMARK  Name = 
REMARK  9 active torsions:
REMARK  status: ('A' for Active; 'I' for Inactive)
REMARK    1  A    between atoms: C_1  and  O_2
REMARK    2  A    between atoms: O_2  and  C_3
REMARK    3  A    between atoms: C_6  and  C_7
REMARK    4  A    between atoms: C_11  and  O_12
REMARK    5  A    between atoms: O_12  and  C_13
REMARK    6  A    between atoms: C_13  and  C_14
REMARK    7  A    between atoms: C_14  and  O_15
REMARK    8  A    between atoms: C_14  and  C_16
REMARK    9  A    between atoms: C_16  and  N_17
REMARK                            x       y       z     vdW  Elec       q    Type
REMARK                         _______ _______ _______ _____ _____    ______ ____
ROOT
ATOM      1  O   UNL     1       2.710   6.338  19.793  0.00  0.00    +0.000 OA
ENDROOT
BRANCH   1   6
ATOM      2  C   UNL     1       0.812   9.530  20.077  0.00  0.00    +0.000 A 
ATOM      3  C   UNL     1       1.081  10.001  18.776  0.00  0.00    +0.000 A 
ATOM      4  C   UNL     1       1.846   9.258  17.874  0.00  0.00    +0.000 A 
ATOM      5  C   UNL     1       2.364   8.031  18.267  0.00  0.00    +0.000 A 
ATOM      6  C   UNL     1       2.122   7.540  19.551  0.00  0.00    +0.000 A 
ATOM      7  C   UNL     1       1.351   8.282  20.447  0.00  0.00    +0.000 A 
BRANCH   2  11
ATOM      8  C   UNL     1      -1.548  11.756  22.750  0.00  0.00    +0.000 A 
ATOM      9  N   UNL     1      -0.839  10.740  23.249  0.00  0.00    +0.000 NA
ATOM     10  C   UNL     1      -0.080  10.071  22.361  0.00  0.00    +0.000 A 
ATOM     11  C   UNL     1      -0.016  10.327  21.000  0.00  0.00    +0.000 A 
ATOM     12  C   UNL     1      -0.808  11.393  20.615  0.00  0.00    +0.000 A 
ATOM     13  N   UNL     1      -1.568  12.131  21.458  0.00  0.00    +0.000 NA
BRANCH   8  15
ATOM     14  C   UNL     1      -3.539  12.908  23.054  0.00  0.00    +0.000 C 
ATOM     15  O   UNL     1      -2.355  12.405  23.655  0.00  0.00    +0.000 OA
ENDBRANCH   8  15
ENDBRANCH   2  11
ENDBRANCH   1   6
BRANCH   1  16
ATOM     16  C   UNL     1       2.018   5.409  20.633  0.00  0.00    +0.000 C 
BRANCH  16  17
ATOM     17  C   UNL     1       1.981   4.085  19.870  0.00  0.00    +0.000 C 
BRANCH  17  18
ATOM     18  O   UNL     1       1.725   4.354  18.480  0.00  0.00    +0.000 OA
ATOM     19  H   UNL     1       2.179   3.650  17.978  0.00  0.00    +0.000 HD
ENDBRANCH  17  18
BRANCH  17  20
ATOM     20  C   UNL     1       3.297   3.266  19.984  0.00  0.00    +0.000 C 
BRANCH  20  21
ATOM     21  N   UNL     1       4.304   3.508  18.965  0.00  0.00    +0.000 NA
ATOM     22  C   UNL     1       5.225   4.600  19.217  0.00  0.00    +0.000 C 
ATOM     23  C   UNL     1       5.259   5.725  18.173  0.00  0.00    +0.000 C 
ATOM     24  C   UNL     1       5.004   5.238  16.757  0.00  0.00    +0.000 A 
ATOM     25  C   UNL     1       5.365   6.093  15.716  0.00  0.00    +0.000 A 
ATOM     26  C   UNL     1       6.045   5.550  14.642  0.00  0.00    +0.000 A 
ATOM     27  C   UNL     1       6.255   4.170  14.590  0.00  0.00    +0.000 A 
ATOM     28  C   UNL     1       5.621   3.315  15.507  0.00  0.00    +0.000 A 
ATOM     29  C   UNL     1       4.915   3.855  16.580  0.00  0.00    +0.000 A 
ATOM     30  C   UNL     1       4.101   3.068  17.590  0.00  0.00    +0.000 C 
ENDBRANCH  20  21
ENDBRANCH  17  20
ENDBRANCH  16  17
ENDBRANCH   1  16
TORSDOF 8
ENDMDL
MODEL 8
REMARK VINA RESULT:      -7.3      2.827      4.794
REMARK  Name = 
REMARK  9 active torsions:
REMARK  status: ('A' for Active; 'I' for Inactive)
REMARK    1  A    between atoms: C_1  and  O_2
REMARK    2  A    between atoms: O_2  and  C_3
REMARK    3  A    between atoms: C_6  and  C_7
REMARK    4  A    between atoms: C_11  and  O_12
REMARK    5  A    between atoms: O_12  and  C_13
REMARK    6  A    between atoms: C_13  and  C_14
REMARK    7  A    between atoms: C_14  and  O_15
REMARK    8  A    between atoms: C_14  and  C_16
REMARK    9  A    between atoms: C_16  and  N_17
REMARK                            x       y       z     vdW  Elec       q    Type
REMARK                         _______ _______ _______ _____ _____    ______ ____
ROOT
ATOM      1  O   UNL     1       5.743   4.243  19.401  0.00  0.00    +0.000 OA
ENDROOT
BRANCH   1   6
ATOM      2  C   UNL     1       2.715   6.293  18.702  0.00  0.00    +0.000 A 
ATOM      3  C   UNL     1       1.978   5.286  18.046  0.00  0.00    +0.000 A 
ATOM      4  C   UNL     1       2.492   3.998  17.878  0.00  0.00    +0.000 A 
ATOM      5  C   UNL     1       3.760   3.701  18.358  0.00  0.00    +0.000 A 
ATOM      6  C   UNL     1       4.517   4.678  19.006  0.00  0.00    +0.000 A 
ATOM      7  C   UNL     1       3.998   5.962  19.179  0.00  0.00    +0.000 A 
BRANCH   2  11
ATOM      8  C   UNL     1       1.040  10.107  19.267  0.00  0.00    +0.000 A 
ATOM      9  N   UNL     1       1.046   9.273  20.310  0.00  0.00    +0.000 NA
ATOM     10  C   UNL     1       1.613   8.072  20.090  0.00  0.00    +0.000 A 
ATOM     11  C   UNL     1       2.138   7.638  18.882  0.00  0.00    +0.000 A 
ATOM     12  C   UNL     1       2.055   8.591  17.884  0.00  0.00    +0.000 A 
ATOM     13  N   UNL     1       1.530   9.829  18.045  0.00  0.00    +0.000 NA
BRANCH   8  15
ATOM     14  C   UNL     1       0.943  12.346  18.667  0.00  0.00    +0.000 C 
ATOM     15  O   UNL     1       0.418  11.314  19.488  0.00  0.00    +0.000 OA
ENDBRANCH   8  15
ENDBRANCH   2  11
ENDBRANCH   1   6
BRANCH   1  16
ATOM     16  C   UNL     1       6.771   5.218  19.603  0.00  0.00    +0.000 C 
BRANCH  16  17
ATOM     17  C   UNL     1       7.625   5.209  18.335  0.00  0.00    +0.000 C 
BRANCH  17  18
ATOM     18  O   UNL     1       7.325   4.025  17.576  0.00  0.00    +0.000 OA
ATOM     19  H   UNL     1       8.178   3.579  17.416  0.00  0.00    +0.000 HD
ENDBRANCH  17  18
BRANCH  17  20
ATOM     20  C   UNL     1       7.400   6.451  17.427  0.00  0.00    +0.000 C 
BRANCH  20  21
ATOM     21  N   UNL     1       7.015   6.190  16.051  0.00  0.00    +0.000 NA
ATOM     22  C   UNL     1       5.591   6.161  15.776  0.00  0.00    +0.000 C 
ATOM     23  C   UNL     1       5.032   4.859  15.184  0.00  0.00    +0.000 C 
ATOM     24  C   UNL     1       6.012   4.146  14.269  0.00  0.00    +0.000 A 
ATOM     25  C   UNL     1       5.492   3.174  13.414  0.00  0.00    +0.000 A 
ATOM     26  C   UNL     1       5.913   3.182  12.098  0.00  0.00    +0.000 A 
ATOM     27  C   UNL     1       6.903   4.083  11.700  0.00  0.00    +0.000 A 
ATOM     28  C   UNL     1       7.607   4.838  12.652  0.00  0.00    +0.000 A 
ATOM     29  C   UNL     1       7.202   4.819  13.985  0.00  0.00    +0.000 A 
ATOM     30  C   UNL     1       7.918   5.500  15.137  0.00  0.00    +0.000 C 
ENDBRANCH  20  21
ENDBRANCH  17  20
ENDBRANCH  16  17
ENDBRANCH   1  16
TORSDOF 8
ENDMDL
MODEL 9
REMARK VINA RESULT:      -7.3      7.089      8.631
REMARK  Name = 
REMARK  9 active torsions:
REMARK  status: ('A' for Active; 'I' for Inactive)
REMARK    1  A    between atoms: C_1  and  O_2
REMARK    2  A    between atoms: O_2  and  C_3
REMARK    3  A    between atoms: C_6  and  C_7
REMARK    4  A    between atoms: C_11  and  O_12
REMARK    5  A    between atoms: O_12  and  C_13
REMARK    6  A    between atoms: C_13  and  C_14
REMARK    7  A    between atoms: C_14  and  O_15
REMARK    8  A    between atoms: C_14  and  C_16
REMARK    9  A    between atoms: C_16  and  N_17
REMARK                            x       y       z     vdW  Elec       q    Type
REMARK                         _______ _______ _______ _____ _____    ______ ____
ROOT
ATOM      1  O   UNL     1       8.165   9.411  17.645  0.00  0.00    +0.000 OA
ENDROOT
BRANCH   1   6
ATOM      2  C   UNL     1       9.432  12.736  18.741  0.00  0.00    +0.000 A 
ATOM      3  C   UNL     1       9.926  12.323  19.995  0.00  0.00    +0.000 A 
ATOM      4  C   UNL     1       9.836  10.993  20.413  0.00  0.00    +0.000 A 
ATOM      5  C   UNL     1       9.239  10.056  19.580  0.00  0.00    +0.000 A 
ATOM      6  C   UNL     1       8.735  10.435  18.335  0.00  0.00    +0.000 A 
ATOM      7  C   UNL     1       8.833  11.762  17.918  0.00  0.00    +0.000 A 
BRANCH   2  11
ATOM      8  C   UNL     1       9.858  16.743  17.542  0.00  0.00    +0.000 A 
ATOM      9  N   UNL     1      10.932  15.955  17.457  0.00  0.00    +0.000 NA
ATOM     10  C   UNL     1      10.743  14.674  17.829  0.00  0.00    +0.000 A 
ATOM     11  C   UNL     1       9.560  14.144  18.318  0.00  0.00    +0.000 A 
ATOM     12  C   UNL     1       8.534  15.069  18.370  0.00  0.00    +0.000 A 
ATOM     13  N   UNL     1       8.644  16.361  17.980  0.00  0.00    +0.000 NA
BRANCH   8  15
ATOM     14  C   UNL     1      11.437  18.430  17.325  0.00  0.00    +0.000 C 
ATOM     15  O   UNL     1      10.071  18.059  17.205  0.00  0.00    +0.000 OA
ENDBRANCH   8  15
ENDBRANCH   2  11
ENDBRANCH   1   6
BRANCH   1  16
ATOM     16  C   UNL     1       8.269   8.092  18.191  0.00  0.00    +0.000 C 
BRANCH  16  17
ATOM     17  C   UNL     1       7.101   7.294  17.612  0.00  0.00    +0.000 C 
BRANCH  17  18
ATOM     18  O   UNL     1       7.529   6.648  16.401  0.00  0.00    +0.000 OA
ATOM     19  H   UNL     1       6.934   5.885  16.273  0.00  0.00    +0.000 HD
ENDBRANCH  17  18
BRANCH  17  20
ATOM     20  C   UNL     1       6.546   6.214  18.583  0.00  0.00    +0.000 C 
BRANCH  20  21
ATOM     21  N   UNL     1       5.334   5.528  18.169  0.00  0.00    +0.000 NA
ATOM     22  C   UNL     1       4.125   6.328  18.128  0.00  0.00    +0.000 C 
ATOM     23  C   UNL     1       2.960   5.857  19.011  0.00  0.00    +0.000 C 
ATOM     24  C   UNL     1       2.885   4.347  19.151  0.00  0.00    +0.000 A 
ATOM     25  C   UNL     1       1.685   3.810  19.616  0.00  0.00    +0.000 A 
ATOM     26  C   UNL     1       1.174   2.708  18.958  0.00  0.00    +0.000 A 
ATOM     27  C   UNL     1       1.915   2.117  17.932  0.00  0.00    +0.000 A 
ATOM     28  C   UNL     1       3.244   2.506  17.695  0.00  0.00    +0.000 A 
ATOM     29  C   UNL     1       3.773   3.603  18.370  0.00  0.00    +0.000 A 
ATOM     30  C   UNL     1       5.212   4.081  18.293  0.00  0.00    +0.000 C 
ENDBRANCH  20  21
ENDBRANCH  17  20
ENDBRANCH  16  17
ENDBRANCH   1  16
TORSDOF 8
ENDMDL
