MODEL 1
REMARK VINA RESULT:      -7.6      0.000      0.000
REMARK  Name = 
REMARK  4 active torsions:
REMARK  status: ('A' for Active; 'I' for Inactive)
REMARK    1  A    between atoms: C_1  and  C_2
REMARK    2  A    between atoms: C_5  and  N_6
REMARK    3  A    between atoms: C_11  and  C_12
REMARK    4  A    between atoms: C_19  and  O_20
REMARK                            x       y       z     vdW  Elec       q    Type
REMARK                         _______ _______ _______ _____ _____    ______ ____
ROOT
ATOM      1  N   UNL     1       6.169   5.657  17.099  0.00  0.00    +0.000 N 
ATOM      2  C   UNL     1       6.769   4.549  16.493  0.00  0.00    +0.000 C 
ATOM      3  O   UNL     1       7.976   4.336  16.392  0.00  0.00    +0.000 OA
ATOM      4  C   UNL     1       5.765   3.597  15.884  0.00  0.00    +0.000 C 
ATOM      5  S   UNL     1       4.129   4.175  16.332  0.00  0.00    +0.000 S 
ATOM      6  C   UNL     1       4.744   5.811  16.859  0.00  0.00    +0.000 C 
ENDROOT
BRANCH   6   7
ATOM      7  C   UNL     1       3.913   6.334  18.024  0.00  0.00    +0.000 A 
ATOM      8  C   UNL     1       3.736   5.611  19.199  0.00  0.00    +0.000 A 
ATOM      9  C   UNL     1       2.847   6.093  20.156  0.00  0.00    +0.000 A 
ATOM     10  C   UNL     1       2.150   7.290  19.928  0.00  0.00    +0.000 A 
ATOM     11  C   UNL     1       1.201   7.769  20.852  0.00  0.00    +0.000 A 
ATOM     12  C   UNL     1       0.503   8.946  20.602  0.00  0.00    +0.000 A 
ATOM     13  C   UNL     1       0.759   9.665  19.437  0.00  0.00    +0.000 A 
ATOM     14  C   UNL     1       1.703   9.185  18.527  0.00  0.00    +0.000 A 
ATOM     15  C   UNL     1       2.408   7.991  18.736  0.00  0.00    +0.000 A 
ATOM     16  N   UNL     1       3.279   7.519  17.814  0.00  0.00    +0.000 NA
BRANCH  14  17
ATOM     17  O   UNL     1       1.941   9.901  17.374  0.00  0.00    +0.000 OA
ATOM     18  H   UNL     1       2.873  10.162  17.350  0.00  0.00    +0.000 HD
ENDBRANCH  14  17
ENDBRANCH   6   7
BRANCH   1  23
ATOM     19  C   UNL     1       9.364  10.008  19.070  0.00  0.00    +0.000 C 
ATOM     20  C   UNL     1       8.525   8.865  18.582  0.00  0.00    +0.000 A 
ATOM     21  C   UNL     1       8.601   7.602  19.178  0.00  0.00    +0.000 A 
ATOM     22  C   UNL     1       7.842   6.533  18.687  0.00  0.00    +0.000 A 
ATOM     23  C   UNL     1       6.961   6.721  17.616  0.00  0.00    +0.000 A 
ATOM     24  C   UNL     1       6.875   7.992  17.035  0.00  0.00    +0.000 A 
ATOM     25  C   UNL     1       7.662   9.049  17.500  0.00  0.00    +0.000 A 
ENDBRANCH   1  23
TORSDOF 3
ENDMDL
MODEL 2
REMARK VINA RESULT:      -7.2      1.905      2.680
REMARK  Name = 
REMARK  4 active torsions:
REMARK  status: ('A' for Active; 'I' for Inactive)
REMARK    1  A    between atoms: C_1  and  C_2
REMARK    2  A    between atoms: C_5  and  N_6
REMARK    3  A    between atoms: C_11  and  C_12
REMARK    4  A    between atoms: C_19  and  O_20
REMARK                            x       y       z     vdW  Elec       q    Type
REMARK                         _______ _______ _______ _____ _____    ______ ____
ROOT
ATOM      1  N   UNL     1       3.649   4.446  18.034  0.00  0.00    +0.000 N 
ATOM      2  C   UNL     1       3.744   3.065  17.838  0.00  0.00    +0.000 C 
ATOM      3  O   UNL     1       4.767   2.433  17.583  0.00  0.00    +0.000 OA
ATOM      4  C   UNL     1       2.405   2.368  17.914  0.00  0.00    +0.000 C 
ATOM      5  S   UNL     1       1.187   3.583  18.414  0.00  0.00    +0.000 S 
ATOM      6  C   UNL     1       2.299   4.987  18.060  0.00  0.00    +0.000 C 
ENDROOT
BRANCH   6   7
ATOM      7  C   UNL     1       2.043   6.122  19.043  0.00  0.00    +0.000 A 
ATOM      8  C   UNL     1       1.802   5.898  20.395  0.00  0.00    +0.000 A 
ATOM      9  C   UNL     1       1.435   6.975  21.199  0.00  0.00    +0.000 A 
ATOM     10  C   UNL     1       1.314   8.257  20.643  0.00  0.00    +0.000 A 
ATOM     11  C   UNL     1       0.886   9.352  21.419  0.00  0.00    +0.000 A 
ATOM     12  C   UNL     1       0.752  10.613  20.848  0.00  0.00    +0.000 A 
ATOM     13  C   UNL     1       1.060  10.797  19.503  0.00  0.00    +0.000 A 
ATOM     14  C   UNL     1       1.487   9.708  18.740  0.00  0.00    +0.000 A 
ATOM     15  C   UNL     1       1.611   8.419  19.277  0.00  0.00    +0.000 A 
ATOM     16  N   UNL     1       1.975   7.369  18.505  0.00  0.00    +0.000 NA
BRANCH  14  17
ATOM     17  O   UNL     1       1.781   9.902  17.408  0.00  0.00    +0.000 OA
ATOM     18  H   UNL     1       1.991  10.836  17.263  0.00  0.00    +0.000 HD
ENDBRANCH  14  17
ENDBRANCH   6   7
BRANCH   1  23
ATOM     19  C   UNL     1       8.262   7.834  17.521  0.00  0.00    +0.000 C 
ATOM     20  C   UNL     1       7.060   6.944  17.628  0.00  0.00    +0.000 A 
ATOM     21  C   UNL     1       6.058   6.957  16.652  0.00  0.00    +0.000 A 
ATOM     22  C   UNL     1       4.921   6.151  16.784  0.00  0.00    +0.000 A 
ATOM     23  C   UNL     1       4.788   5.284  17.875  0.00  0.00    +0.000 A 
ATOM     24  C   UNL     1       5.803   5.262  18.840  0.00  0.00    +0.000 A 
ATOM     25  C   UNL     1       6.919   6.096  18.728  0.00  0.00    +0.000 A 
ENDBRANCH   1  23
TORSDOF 3
ENDMDL
MODEL 3
REMARK VINA RESULT:      -7.0      2.052      2.889
REMARK  Name = 
REMARK  4 active torsions:
REMARK  status: ('A' for Active; 'I' for Inactive)
REMARK    1  A    between atoms: C_1  and  C_2
REMARK    2  A    between atoms: C_5  and  N_6
REMARK    3  A    between atoms: C_11  and  C_12
REMARK    4  A    between atoms: C_19  and  O_20
REMARK                            x       y       z     vdW  Elec       q    Type
REMARK                         _______ _______ _______ _____ _____    ______ ____
ROOT
ATOM      1  N   UNL     1       3.509   4.376  18.776  0.00  0.00    +0.000 N 
ATOM      2  C   UNL     1       3.614   2.983  18.846  0.00  0.00    +0.000 C 
ATOM      3  O   UNL     1       4.639   2.321  18.700  0.00  0.00    +0.000 OA
ATOM      4  C   UNL     1       2.283   2.305  19.075  0.00  0.00    +0.000 C 
ATOM      5  S   UNL     1       1.062   3.586  19.353  0.00  0.00    +0.000 S 
ATOM      6  C   UNL     1       2.155   4.903  18.720  0.00  0.00    +0.000 C 
ENDROOT
BRANCH   6   7
ATOM      7  C   UNL     1       1.902   6.203  19.472  0.00  0.00    +0.000 A 
ATOM      8  C   UNL     1       1.550   6.230  20.818  0.00  0.00    +0.000 A 
ATOM      9  C   UNL     1       1.196   7.448  21.394  0.00  0.00    +0.000 A 
ATOM     10  C   UNL     1       1.201   8.619  20.622  0.00  0.00    +0.000 A 
ATOM     11  C   UNL     1       0.790   9.853  21.163  0.00  0.00    +0.000 A 
ATOM     12  C   UNL     1       0.780  11.001  20.378  0.00  0.00    +0.000 A 
ATOM     13  C   UNL     1       1.197  10.932  19.052  0.00  0.00    +0.000 A 
ATOM     14  C   UNL     1       1.606   9.706  18.522  0.00  0.00    +0.000 A 
ATOM     15  C   UNL     1       1.607   8.525  19.278  0.00  0.00    +0.000 A 
ATOM     16  N   UNL     1       1.956   7.340  18.727  0.00  0.00    +0.000 NA
BRANCH  14  17
ATOM     17  O   UNL     1       2.009   9.650  17.206  0.00  0.00    +0.000 OA
ATOM     18  H   UNL     1       1.594   8.886  16.779  0.00  0.00    +0.000 HD
ENDBRANCH  14  17
ENDBRANCH   6   7
BRANCH   1  23
ATOM     19  C   UNL     1       8.040   7.587  17.300  0.00  0.00    +0.000 C 
ATOM     20  C   UNL     1       6.860   6.759  17.711  0.00  0.00    +0.000 A 
ATOM     21  C   UNL     1       6.860   6.043  18.912  0.00  0.00    +0.000 A 
ATOM     22  C   UNL     1       5.768   5.240  19.266  0.00  0.00    +0.000 A 
ATOM     23  C   UNL     1       4.638   5.176  18.441  0.00  0.00    +0.000 A 
ATOM     24  C   UNL     1       4.637   5.909  17.249  0.00  0.00    +0.000 A 
ATOM     25  C   UNL     1       5.743   6.678  16.878  0.00  0.00    +0.000 A 
ENDBRANCH   1  23
TORSDOF 3
ENDMDL
MODEL 4
REMARK VINA RESULT:      -6.9      2.924      4.005
REMARK  Name = 
REMARK  4 active torsions:
REMARK  status: ('A' for Active; 'I' for Inactive)
REMARK    1  A    between atoms: C_1  and  C_2
REMARK    2  A    between atoms: C_5  and  N_6
REMARK    3  A    between atoms: C_11  and  C_12
REMARK    4  A    between atoms: C_19  and  O_20
REMARK                            x       y       z     vdW  Elec       q    Type
REMARK                         _______ _______ _______ _____ _____    ______ ____
ROOT
ATOM      1  N   UNL     1       3.743   4.174  19.139  0.00  0.00    +0.000 N 
ATOM      2  C   UNL     1       4.056   3.206  20.099  0.00  0.00    +0.000 C 
ATOM      3  O   UNL     1       5.083   2.533  20.148  0.00  0.00    +0.000 OA
ATOM      4  C   UNL     1       2.948   2.997  21.106  0.00  0.00    +0.000 C 
ATOM      5  S   UNL     1       1.684   4.226  20.785  0.00  0.00    +0.000 S 
ATOM      6  C   UNL     1       2.366   4.642  19.143  0.00  0.00    +0.000 C 
ENDROOT
BRANCH   6   7
ATOM      7  C   UNL     1       2.152   6.119  18.844  0.00  0.00    +0.000 A 
ATOM      8  C   UNL     1       2.568   6.708  17.653  0.00  0.00    +0.000 A 
ATOM      9  C   UNL     1       2.465   8.090  17.516  0.00  0.00    +0.000 A 
ATOM     10  C   UNL     1       1.947   8.864  18.566  0.00  0.00    +0.000 A 
ATOM     11  C   UNL     1       1.888  10.268  18.477  0.00  0.00    +0.000 A 
ATOM     12  C   UNL     1       1.391  11.022  19.535  0.00  0.00    +0.000 A 
ATOM     13  C   UNL     1       0.933  10.382  20.683  0.00  0.00    +0.000 A 
ATOM     14  C   UNL     1       0.992   8.989  20.763  0.00  0.00    +0.000 A 
ATOM     15  C   UNL     1       1.508   8.199  19.726  0.00  0.00    +0.000 A 
ATOM     16  N   UNL     1       1.605   6.855  19.849  0.00  0.00    +0.000 NA
BRANCH  14  17
ATOM     17  O   UNL     1       0.543   8.368  21.908  0.00  0.00    +0.000 OA
ATOM     18  H   UNL     1       1.218   8.448  22.598  0.00  0.00    +0.000 HD
ENDBRANCH  14  17
ENDBRANCH   6   7
BRANCH   1  23
ATOM     19  C   UNL     1       7.226   5.038  14.651  0.00  0.00    +0.000 C 
ATOM     20  C   UNL     1       6.319   4.840  15.829  0.00  0.00    +0.000 A 
ATOM     21  C   UNL     1       6.571   5.467  17.053  0.00  0.00    +0.000 A 
ATOM     22  C   UNL     1       5.738   5.241  18.156  0.00  0.00    +0.000 A 
ATOM     23  C   UNL     1       4.613   4.417  18.039  0.00  0.00    +0.000 A 
ATOM     24  C   UNL     1       4.356   3.807  16.806  0.00  0.00    +0.000 A 
ATOM     25  C   UNL     1       5.209   4.000  15.717  0.00  0.00    +0.000 A 
ENDBRANCH   1  23
TORSDOF 3
ENDMDL
MODEL 5
REMARK VINA RESULT:      -6.9      2.820      3.907
REMARK  Name = 
REMARK  4 active torsions:
REMARK  status: ('A' for Active; 'I' for Inactive)
REMARK    1  A    between atoms: C_1  and  C_2
REMARK    2  A    between atoms: C_5  and  N_6
REMARK    3  A    between atoms: C_11  and  C_12
REMARK    4  A    between atoms: C_19  and  O_20
REMARK                            x       y       z     vdW  Elec       q    Type
REMARK                         _______ _______ _______ _____ _____    ______ ____
ROOT
ATOM      1  N   UNL     1       3.645   3.722  19.818  0.00  0.00    +0.000 N 
ATOM      2  C   UNL     1       3.991   2.544  20.489  0.00  0.00    +0.000 C 
ATOM      3  O   UNL     1       5.018   1.889  20.331  0.00  0.00    +0.000 OA
ATOM      4  C   UNL     1       2.918   2.077  21.445  0.00  0.00    +0.000 C 
ATOM      5  S   UNL     1       1.644   3.336  21.490  0.00  0.00    +0.000 S 
ATOM      6  C   UNL     1       2.269   4.162  19.987  0.00  0.00    +0.000 C 
ENDROOT
BRANCH   6   7
ATOM      7  C   UNL     1       2.045   5.665  20.081  0.00  0.00    +0.000 A 
ATOM      8  C   UNL     1       1.409   6.259  21.167  0.00  0.00    +0.000 A 
ATOM      9  C   UNL     1       1.115   7.619  21.111  0.00  0.00    +0.000 A 
ATOM     10  C   UNL     1       1.461   8.367  19.975  0.00  0.00    +0.000 A 
ATOM     11  C   UNL     1       1.122   9.729  19.867  0.00  0.00    +0.000 A 
ATOM     12  C   UNL     1       1.453  10.452  18.725  0.00  0.00    +0.000 A 
ATOM     13  C   UNL     1       2.141   9.826  17.689  0.00  0.00    +0.000 A 
ATOM     14  C   UNL     1       2.476   8.475  17.804  0.00  0.00    +0.000 A 
ATOM     15  C   UNL     1       2.138   7.711  18.930  0.00  0.00    +0.000 A 
ATOM     16  N   UNL     1       2.427   6.390  18.995  0.00  0.00    +0.000 NA
BRANCH  14  17
ATOM     17  O   UNL     1       3.150   7.865  16.768  0.00  0.00    +0.000 OA
ATOM     18  H   UNL     1       4.023   8.276  16.673  0.00  0.00    +0.000 HD
ENDBRANCH  14  17
ENDBRANCH   6   7
BRANCH   1  23
ATOM     19  C   UNL     1       6.979   5.726  15.589  0.00  0.00    +0.000 C 
ATOM     20  C   UNL     1       6.109   5.229  16.704  0.00  0.00    +0.000 A 
ATOM     21  C   UNL     1       6.365   5.577  18.034  0.00  0.00    +0.000 A 
ATOM     22  C   UNL     1       5.569   5.073  19.070  0.00  0.00    +0.000 A 
ATOM     23  C   UNL     1       4.477   4.244  18.788  0.00  0.00    +0.000 A 
ATOM     24  C   UNL     1       4.216   3.913  17.453  0.00  0.00    +0.000 A 
ATOM     25  C   UNL     1       5.034   4.384  16.423  0.00  0.00    +0.000 A 
ENDBRANCH   1  23
TORSDOF 3
ENDMDL
MODEL 6
REMARK VINA RESULT:      -6.8      2.700      3.822
REMARK  Name = 
REMARK  4 active torsions:
REMARK  status: ('A' for Active; 'I' for Inactive)
REMARK    1  A    between atoms: C_1  and  C_2
REMARK    2  A    between atoms: C_5  and  N_6
REMARK    3  A    between atoms: C_11  and  C_12
REMARK    4  A    between atoms: C_19  and  O_20
REMARK                            x       y       z     vdW  Elec       q    Type
REMARK                         _______ _______ _______ _____ _____    ______ ____
ROOT
ATOM      1  N   UNL     1       3.659   3.793  19.801  0.00  0.00    +0.000 N 
ATOM      2  C   UNL     1       3.972   2.594  20.448  0.00  0.00    +0.000 C 
ATOM      3  O   UNL     1       5.009   1.946  20.323  0.00  0.00    +0.000 OA
ATOM      4  C   UNL     1       2.850   2.091  21.327  0.00  0.00    +0.000 C 
ATOM      5  S   UNL     1       1.571   3.346  21.345  0.00  0.00    +0.000 S 
ATOM      6  C   UNL     1       2.275   4.225  19.909  0.00  0.00    +0.000 C 
ENDROOT
BRANCH   6   7
ATOM      7  C   UNL     1       2.041   5.724  20.043  0.00  0.00    +0.000 A 
ATOM      8  C   UNL     1       1.416   6.285  21.151  0.00  0.00    +0.000 A 
ATOM      9  C   UNL     1       1.111   7.644  21.133  0.00  0.00    +0.000 A 
ATOM     10  C   UNL     1       1.435   8.422  20.011  0.00  0.00    +0.000 A 
ATOM     11  C   UNL     1       1.084   9.784  19.941  0.00  0.00    +0.000 A 
ATOM     12  C   UNL     1       1.394  10.537  18.814  0.00  0.00    +0.000 A 
ATOM     13  C   UNL     1       2.072   9.942  17.753  0.00  0.00    +0.000 A 
ATOM     14  C   UNL     1       2.420   8.592  17.830  0.00  0.00    +0.000 A 
ATOM     15  C   UNL     1       2.103   7.798  18.942  0.00  0.00    +0.000 A 
ATOM     16  N   UNL     1       2.402   6.478  18.970  0.00  0.00    +0.000 NA
BRANCH  14  17
ATOM     17  O   UNL     1       3.084   8.013  16.771  0.00  0.00    +0.000 OA
ATOM     18  H   UNL     1       2.904   7.061  16.766  0.00  0.00    +0.000 HD
ENDBRANCH  14  17
ENDBRANCH   6   7
BRANCH   1  23
ATOM     19  C   UNL     1       7.255   6.152  15.988  0.00  0.00    +0.000 C 
ATOM     20  C   UNL     1       6.318   5.512  16.969  0.00  0.00    +0.000 A 
ATOM     21  C   UNL     1       5.274   4.686  16.542  0.00  0.00    +0.000 A 
ATOM     22  C   UNL     1       4.381   4.127  17.465  0.00  0.00    +0.000 A 
ATOM     23  C   UNL     1       4.545   4.353  18.836  0.00  0.00    +0.000 A 
ATOM     24  C   UNL     1       5.603   5.166  19.259  0.00  0.00    +0.000 A 
ATOM     25  C   UNL     1       6.470   5.755  18.335  0.00  0.00    +0.000 A 
ENDBRANCH   1  23
TORSDOF 3
ENDMDL
MODEL 7
REMARK VINA RESULT:      -6.8      7.614      9.050
REMARK  Name = 
REMARK  4 active torsions:
REMARK  status: ('A' for Active; 'I' for Inactive)
REMARK    1  A    between atoms: C_1  and  C_2
REMARK    2  A    between atoms: C_5  and  N_6
REMARK    3  A    between atoms: C_11  and  C_12
REMARK    4  A    between atoms: C_19  and  O_20
REMARK                            x       y       z     vdW  Elec       q    Type
REMARK                         _______ _______ _______ _____ _____    ______ ____
ROOT
ATOM      1  N   UNL     1      -0.095  13.483  21.480  0.00  0.00    +0.000 N 
ATOM      2  C   UNL     1      -0.467  14.273  22.572  0.00  0.00    +0.000 C 
ATOM      3  O   UNL     1      -0.103  15.425  22.797  0.00  0.00    +0.000 OA
ATOM      4  C   UNL     1      -1.363  13.543  23.547  0.00  0.00    +0.000 C 
ATOM      5  S   UNL     1      -1.764  11.952  22.828  0.00  0.00    +0.000 S 
ATOM      6  C   UNL     1      -0.443  12.074  21.574  0.00  0.00    +0.000 C 
ENDROOT
BRANCH   6   7
ATOM      7  C   UNL     1      -0.880  11.396  20.282  0.00  0.00    +0.000 A 
ATOM      8  C   UNL     1      -0.052  10.526  19.579  0.00  0.00    +0.000 A 
ATOM      9  C   UNL     1      -0.471  10.061  18.335  0.00  0.00    +0.000 A 
ATOM     10  C   UNL     1      -1.707  10.468  17.812  0.00  0.00    +0.000 A 
ATOM     11  C   UNL     1      -2.127  10.061  16.531  0.00  0.00    +0.000 A 
ATOM     12  C   UNL     1      -3.347  10.490  16.018  0.00  0.00    +0.000 A 
ATOM     13  C   UNL     1      -4.166  11.314  16.784  0.00  0.00    +0.000 A 
ATOM     14  C   UNL     1      -3.744  11.712  18.055  0.00  0.00    +0.000 A 
ATOM     15  C   UNL     1      -2.511  11.317  18.594  0.00  0.00    +0.000 A 
ATOM     16  N   UNL     1      -2.101  11.759  19.806  0.00  0.00    +0.000 NA
BRANCH  14  17
ATOM     17  O   UNL     1      -4.560  12.534  18.801  0.00  0.00    +0.000 OA
ATOM     18  H   UNL     1      -5.076  11.994  19.418  0.00  0.00    +0.000 HD
ENDBRANCH  14  17
ENDBRANCH   6   7
BRANCH   1  23
ATOM     19  C   UNL     1       3.606  15.417  17.532  0.00  0.00    +0.000 C 
ATOM     20  C   UNL     1       2.660  14.916  18.582  0.00  0.00    +0.000 A 
ATOM     21  C   UNL     1       3.090  14.054  19.595  0.00  0.00    +0.000 A 
ATOM     22  C   UNL     1       2.187  13.561  20.546  0.00  0.00    +0.000 A 
ATOM     23  C   UNL     1       0.846  13.959  20.524  0.00  0.00    +0.000 A 
ATOM     24  C   UNL     1       0.424  14.837  19.518  0.00  0.00    +0.000 A 
ATOM     25  C   UNL     1       1.317  15.297  18.546  0.00  0.00    +0.000 A 
ENDBRANCH   1  23
TORSDOF 3
ENDMDL
MODEL 8
REMARK VINA RESULT:      -6.8      4.627      9.000
REMARK  Name = 
REMARK  4 active torsions:
REMARK  status: ('A' for Active; 'I' for Inactive)
REMARK    1  A    between atoms: C_1  and  C_2
REMARK    2  A    between atoms: C_5  and  N_6
REMARK    3  A    between atoms: C_11  and  C_12
REMARK    4  A    between atoms: C_19  and  O_20
REMARK                            x       y       z     vdW  Elec       q    Type
REMARK                         _______ _______ _______ _____ _____    ______ ____
ROOT
ATOM      1  N   UNL     1      -1.974  11.739  20.004  0.00  0.00    +0.000 N 
ATOM      2  C   UNL     1      -2.840  12.603  20.682  0.00  0.00    +0.000 C 
ATOM      3  O   UNL     1      -3.936  12.994  20.289  0.00  0.00    +0.000 OA
ATOM      4  C   UNL     1      -2.270  13.095  21.993  0.00  0.00    +0.000 C 
ATOM      5  S   UNL     1      -0.729  12.225  22.276  0.00  0.00    +0.000 S 
ATOM      6  C   UNL     1      -0.631  11.636  20.550  0.00  0.00    +0.000 C 
ENDROOT
BRANCH   6   7
ATOM      7  C   UNL     1       0.018  10.259  20.501  0.00  0.00    +0.000 A 
ATOM      8  C   UNL     1      -0.016   9.379  21.578  0.00  0.00    +0.000 A 
ATOM      9  C   UNL     1       0.722   8.200  21.505  0.00  0.00    +0.000 A 
ATOM     10  C   UNL     1       1.480   7.916  20.359  0.00  0.00    +0.000 A 
ATOM     11  C   UNL     1       2.283   6.762  20.282  0.00  0.00    +0.000 A 
ATOM     12  C   UNL     1       3.045   6.504  19.147  0.00  0.00    +0.000 A 
ATOM     13  C   UNL     1       3.000   7.387  18.072  0.00  0.00    +0.000 A 
ATOM     14  C   UNL     1       2.199   8.529  18.154  0.00  0.00    +0.000 A 
ATOM     15  C   UNL     1       1.436   8.831  19.290  0.00  0.00    +0.000 A 
ATOM     16  N   UNL     1       0.711   9.971  19.367  0.00  0.00    +0.000 NA
BRANCH  14  17
ATOM     17  O   UNL     1       2.169   9.399  17.086  0.00  0.00    +0.000 OA
ATOM     18  H   UNL     1       1.255   9.495  16.781  0.00  0.00    +0.000 HD
ENDBRANCH  14  17
ENDBRANCH   6   7
BRANCH   1  23
ATOM     19  C   UNL     1      -3.240   9.984  14.680  0.00  0.00    +0.000 C 
ATOM     20  C   UNL     1      -2.903  10.416  16.076  0.00  0.00    +0.000 A 
ATOM     21  C   UNL     1      -3.294   9.658  17.184  0.00  0.00    +0.000 A 
ATOM     22  C   UNL     1      -3.008  10.093  18.484  0.00  0.00    +0.000 A 
ATOM     23  C   UNL     1      -2.287  11.274  18.695  0.00  0.00    +0.000 A 
ATOM     24  C   UNL     1      -1.882  12.019  17.581  0.00  0.00    +0.000 A 
ATOM     25  C   UNL     1      -2.203  11.605  16.285  0.00  0.00    +0.000 A 
ENDBRANCH   1  23
TORSDOF 3
ENDMDL
MODEL 9
REMARK VINA RESULT:      -6.7      3.008      4.966
REMARK  Name = 
REMARK  4 active torsions:
REMARK  status: ('A' for Active; 'I' for Inactive)
REMARK    1  A    between atoms: C_1  and  C_2
REMARK    2  A    between atoms: C_5  and  N_6
REMARK    3  A    between atoms: C_11  and  C_12
REMARK    4  A    between atoms: C_19  and  O_20
REMARK                            x       y       z     vdW  Elec       q    Type
REMARK                         _______ _______ _______ _____ _____    ______ ____
ROOT
ATOM      1  N   UNL     1       3.826   5.095  17.728  0.00  0.00    +0.000 N 
ATOM      2  C   UNL     1       4.506   4.358  16.754  0.00  0.00    +0.000 C 
ATOM      3  O   UNL     1       4.513   3.135  16.638  0.00  0.00    +0.000 OA
ATOM      4  C   UNL     1       5.326   5.226  15.828  0.00  0.00    +0.000 C 
ATOM      5  S   UNL     1       4.971   6.936  16.229  0.00  0.00    +0.000 S 
ATOM      6  C   UNL     1       4.183   6.502  17.818  0.00  0.00    +0.000 C 
ENDROOT
BRANCH   6   7
ATOM      7  C   UNL     1       3.049   7.471  18.124  0.00  0.00    +0.000 A 
ATOM      8  C   UNL     1       2.595   8.405  17.198  0.00  0.00    +0.000 A 
ATOM      9  C   UNL     1       1.654   9.349  17.604  0.00  0.00    +0.000 A 
ATOM     10  C   UNL     1       1.180   9.347  18.924  0.00  0.00    +0.000 A 
ATOM     11  C   UNL     1       0.276  10.326  19.377  0.00  0.00    +0.000 A 
ATOM     12  C   UNL     1      -0.169  10.323  20.695  0.00  0.00    +0.000 A 
ATOM     13  C   UNL     1       0.272   9.332  21.568  0.00  0.00    +0.000 A 
ATOM     14  C   UNL     1       1.167   8.362  21.112  0.00  0.00    +0.000 A 
ATOM     15  C   UNL     1       1.653   8.349  19.797  0.00  0.00    +0.000 A 
ATOM     16  N   UNL     1       2.562   7.431  19.393  0.00  0.00    +0.000 NA
BRANCH  14  17
ATOM     17  O   UNL     1       1.602   7.392  21.988  0.00  0.00    +0.000 OA
ATOM     18  H   UNL     1       1.800   7.802  22.843  0.00  0.00    +0.000 HD
ENDBRANCH  14  17
ENDBRANCH   6   7
BRANCH   1  23
ATOM     19  C   UNL     1       1.015   2.389  21.948  0.00  0.00    +0.000 C 
ATOM     20  C   UNL     1       1.727   3.113  20.844  0.00  0.00    +0.000 A 
ATOM     21  C   UNL     1       1.057   3.496  19.677  0.00  0.00    +0.000 A 
ATOM     22  C   UNL     1       1.743   4.135  18.637  0.00  0.00    +0.000 A 
ATOM     23  C   UNL     1       3.102   4.440  18.765  0.00  0.00    +0.000 A 
ATOM     24  C   UNL     1       3.763   4.070  19.942  0.00  0.00    +0.000 A 
ATOM     25  C   UNL     1       3.088   3.397  20.964  0.00  0.00    +0.000 A 
ENDBRANCH   1  23
TORSDOF 3
ENDMDL
