MODEL 1
REMARK VINA RESULT:      -7.7      0.000      0.000
REMARK  Name = 
REMARK  5 active torsions:
REMARK  status: ('A' for Active; 'I' for Inactive)
REMARK    1  A    between atoms: N_4  and  C_5
REMARK    2  A    between atoms: C_5  and  C_6
REMARK    3  A    between atoms: C_6  and  O_7
REMARK    4  A    between atoms: C_6  and  C_8
REMARK    5  A    between atoms: C_8  and  N_9
REMARK                            x       y       z     vdW  Elec       q    Type
REMARK                         _______ _______ _______ _____ _____    ______ ____
ROOT
ATOM      1  C   UNL     1       4.281   5.320  19.192  0.00  0.00    +0.000 C 
ENDROOT
BRANCH   1   2
ATOM      2  O   UNL     1       3.385   6.032  20.054  0.00  0.00    +0.000 OA
ATOM      3  H   UNL     1       2.521   5.586  20.081  0.00  0.00    +0.000 HD
ENDBRANCH   1   2
BRANCH   1   4
ATOM      4  C   UNL     1       5.058   6.329  18.291  0.00  0.00    +0.000 C 
BRANCH   4   8
ATOM      5  O   UNL     1       7.880   5.313  20.482  0.00  0.00    +0.000 OA
ATOM      6  C   UNL     1       7.804   5.691  19.315  0.00  0.00    +0.000 C 
ATOM      7  C   UNL     1       7.110   4.903  18.206  0.00  0.00    +0.000 C 
ATOM      8  N   UNL     1       6.168   5.773  17.467  0.00  0.00    +0.000 NA
ATOM      9  C   UNL     1       6.967   6.854  16.834  0.00  0.00    +0.000 C 
ATOM     10  C   UNL     1       7.823   7.624  17.846  0.00  0.00    +0.000 C 
ATOM     11  O   UNL     1       8.101   8.814  17.707  0.00  0.00    +0.000 OA
ATOM     12  N   UNL     1       8.285   6.921  18.933  0.00  0.00    +0.000 N 
ATOM     13  H   UNL     1       8.741   7.466  19.649  0.00  0.00    +0.000 HD
ENDBRANCH   4   8
ENDBRANCH   1   4
BRANCH   1  14
ATOM     14  C   UNL     1       3.451   4.324  18.332  0.00  0.00    +0.000 C 
BRANCH  14  15
ATOM     15  N   UNL     1       3.668   2.875  18.587  0.00  0.00    +0.000 NA
ATOM     16  C   UNL     1       2.546   2.062  18.058  0.00  0.00    +0.000 C 
ATOM     17  C   UNL     1       1.262   2.255  18.866  0.00  0.00    +0.000 C 
ATOM     18  O   UNL     1       0.145   2.050  18.397  0.00  0.00    +0.000 OA
ATOM     19  N   UNL     1       1.417   2.614  20.181  0.00  0.00    +0.000 N 
ATOM     20  C   UNL     1       2.617   2.676  20.854  0.00  0.00    +0.000 C 
ATOM     21  O   UNL     1       2.637   2.785  22.075  0.00  0.00    +0.000 OA
ATOM     22  C   UNL     1       3.874   2.492  20.004  0.00  0.00    +0.000 C 
ATOM     23  H   UNL     1       0.581   2.694  20.740  0.00  0.00    +0.000 HD
ENDBRANCH  14  15
ENDBRANCH   1  14
TORSDOF 5
ENDMDL
MODEL 2
REMARK VINA RESULT:      -7.7      1.766      6.800
REMARK  Name = 
REMARK  5 active torsions:
REMARK  status: ('A' for Active; 'I' for Inactive)
REMARK    1  A    between atoms: N_4  and  C_5
REMARK    2  A    between atoms: C_5  and  C_6
REMARK    3  A    between atoms: C_6  and  O_7
REMARK    4  A    between atoms: C_6  and  C_8
REMARK    5  A    between atoms: C_8  and  N_9
REMARK                            x       y       z     vdW  Elec       q    Type
REMARK                         _______ _______ _______ _____ _____    ______ ____
ROOT
ATOM      1  C   UNL     1       4.782   4.550  18.146  0.00  0.00    +0.000 C 
ENDROOT
BRANCH   1   2
ATOM      2  O   UNL     1       4.149   5.381  17.166  0.00  0.00    +0.000 OA
ATOM      3  H   UNL     1       4.817   5.790  16.590  0.00  0.00    +0.000 HD
ENDBRANCH   1   2
BRANCH   1   4
ATOM      4  C   UNL     1       3.702   3.919  19.079  0.00  0.00    +0.000 C 
BRANCH   4   8
ATOM      5  O   UNL     1       2.224   3.043  22.372  0.00  0.00    +0.000 OA
ATOM      6  C   UNL     1       1.756   3.465  21.316  0.00  0.00    +0.000 C 
ATOM      7  C   UNL     1       2.069   4.841  20.733  0.00  0.00    +0.000 C 
ATOM      8  N   UNL     1       2.469   4.721  19.312  0.00  0.00    +0.000 NA
ATOM      9  C   UNL     1       1.309   4.161  18.572  0.00  0.00    +0.000 C 
ATOM     10  C   UNL     1       0.813   2.838  19.168  0.00  0.00    +0.000 C 
ATOM     11  O   UNL     1       0.301   1.955  18.482  0.00  0.00    +0.000 OA
ATOM     12  N   UNL     1       0.957   2.674  20.525  0.00  0.00    +0.000 N 
ATOM     13  H   UNL     1       0.741   1.755  20.883  0.00  0.00    +0.000 HD
ENDBRANCH   4   8
ENDBRANCH   1   4
BRANCH   1  14
ATOM     14  C   UNL     1       5.784   5.421  18.957  0.00  0.00    +0.000 C 
BRANCH  14  15
ATOM     15  N   UNL     1       7.231   5.139  18.759  0.00  0.00    +0.000 NA
ATOM     16  C   UNL     1       8.048   6.361  18.949  0.00  0.00    +0.000 C 
ATOM     17  C   UNL     1       7.846   7.372  17.818  0.00  0.00    +0.000 C 
ATOM     18  O   UNL     1       8.055   8.575  17.958  0.00  0.00    +0.000 OA
ATOM     19  N   UNL     1       7.475   6.859  16.602  0.00  0.00    +0.000 N 
ATOM     20  C   UNL     1       7.408   5.520  16.289  0.00  0.00    +0.000 C 
ATOM     21  O   UNL     1       7.287   5.162  15.121  0.00  0.00    +0.000 OA
ATOM     22  C   UNL     1       7.601   4.547  17.452  0.00  0.00    +0.000 C 
ATOM     23  H   UNL     1       7.389   7.507  15.834  0.00  0.00    +0.000 HD
ENDBRANCH  14  15
ENDBRANCH   1  14
TORSDOF 5
ENDMDL
MODEL 3
REMARK VINA RESULT:      -7.6      1.370      2.013
REMARK  Name = 
REMARK  5 active torsions:
REMARK  status: ('A' for Active; 'I' for Inactive)
REMARK    1  A    between atoms: N_4  and  C_5
REMARK    2  A    between atoms: C_5  and  C_6
REMARK    3  A    between atoms: C_6  and  O_7
REMARK    4  A    between atoms: C_6  and  C_8
REMARK    5  A    between atoms: C_8  and  N_9
REMARK                            x       y       z     vdW  Elec       q    Type
REMARK                         _______ _______ _______ _____ _____    ______ ____
ROOT
ATOM      1  C   UNL     1       4.268   5.177  19.508  0.00  0.00    +0.000 C 
ENDROOT
BRANCH   1   2
ATOM      2  O   UNL     1       3.279   6.050  20.068  0.00  0.00    +0.000 OA
ATOM      3  H   UNL     1       2.412   5.611  20.080  0.00  0.00    +0.000 HD
ENDBRANCH   1   2
BRANCH   1   4
ATOM      4  C   UNL     1       5.359   6.018  18.776  0.00  0.00    +0.000 C 
BRANCH   4   8
ATOM      5  O   UNL     1       7.708   8.490  17.306  0.00  0.00    +0.000 OA
ATOM      6  C   UNL     1       7.710   7.264  17.392  0.00  0.00    +0.000 C 
ATOM      7  C   UNL     1       7.811   6.501  18.712  0.00  0.00    +0.000 C 
ATOM      8  N   UNL     1       6.746   5.477  18.798  0.00  0.00    +0.000 NA
ATOM      9  C   UNL     1       6.970   4.512  17.690  0.00  0.00    +0.000 C 
ATOM     10  C   UNL     1       7.033   5.194  16.318  0.00  0.00    +0.000 C 
ATOM     11  O   UNL     1       6.662   4.639  15.286  0.00  0.00    +0.000 OA
ATOM     12  N   UNL     1       7.538   6.472  16.282  0.00  0.00    +0.000 N 
ATOM     13  H   UNL     1       7.460   6.952  15.397  0.00  0.00    +0.000 HD
ENDBRANCH   4   8
ENDBRANCH   1   4
BRANCH   1  14
ATOM     14  C   UNL     1       3.561   4.198  18.528  0.00  0.00    +0.000 C 
BRANCH  14  15
ATOM     15  N   UNL     1       3.691   2.745  18.820  0.00  0.00    +0.000 NA
ATOM     16  C   UNL     1       2.561   1.978  18.244  0.00  0.00    +0.000 C 
ATOM     17  C   UNL     1       1.245   2.250  18.975  0.00  0.00    +0.000 C 
ATOM     18  O   UNL     1       0.147   2.090  18.448  0.00  0.00    +0.000 OA
ATOM     19  N   UNL     1       1.346   2.627  20.290  0.00  0.00    +0.000 N 
ATOM     20  C   UNL     1       2.509   2.644  21.027  0.00  0.00    +0.000 C 
ATOM     21  O   UNL     1       2.467   2.778  22.246  0.00  0.00    +0.000 OA
ATOM     22  C   UNL     1       3.800   2.382  20.253  0.00  0.00    +0.000 C 
ATOM     23  H   UNL     1       0.485   2.760  20.800  0.00  0.00    +0.000 HD
ENDBRANCH  14  15
ENDBRANCH   1  14
TORSDOF 5
ENDMDL
MODEL 4
REMARK VINA RESULT:      -7.5      1.934      6.122
REMARK  Name = 
REMARK  5 active torsions:
REMARK  status: ('A' for Active; 'I' for Inactive)
REMARK    1  A    between atoms: N_4  and  C_5
REMARK    2  A    between atoms: C_5  and  C_6
REMARK    3  A    between atoms: C_6  and  O_7
REMARK    4  A    between atoms: C_6  and  C_8
REMARK    5  A    between atoms: C_8  and  N_9
REMARK                            x       y       z     vdW  Elec       q    Type
REMARK                         _______ _______ _______ _____ _____    ______ ____
ROOT
ATOM      1  C   UNL     1       2.909   6.188  18.020  0.00  0.00    +0.000 C 
ENDROOT
BRANCH   1   2
ATOM      2  O   UNL     1       2.599   7.569  18.245  0.00  0.00    +0.000 OA
ATOM      3  H   UNL     1       2.956   8.115  17.524  0.00  0.00    +0.000 HD
ENDBRANCH   1   2
BRANCH   1   4
ATOM      4  C   UNL     1       2.552   5.355  19.290  0.00  0.00    +0.000 C 
BRANCH   4   8
ATOM      5  O   UNL     1       2.542   2.953  22.123  0.00  0.00    +0.000 OA
ATOM      6  C   UNL     1       2.106   2.913  20.974  0.00  0.00    +0.000 C 
ATOM      7  C   UNL     1       0.977   3.804  20.459  0.00  0.00    +0.000 C 
ATOM      8  N   UNL     1       1.372   4.452  19.188  0.00  0.00    +0.000 NA
ATOM      9  C   UNL     1       1.598   3.373  18.192  0.00  0.00    +0.000 C 
ATOM     10  C   UNL     1       2.616   2.332  18.673  0.00  0.00    +0.000 C 
ATOM     11  O   UNL     1       3.352   1.721  17.900  0.00  0.00    +0.000 OA
ATOM     12  N   UNL     1       2.673   2.096  20.026  0.00  0.00    +0.000 N 
ATOM     13  H   UNL     1       3.427   1.503  20.338  0.00  0.00    +0.000 HD
ENDBRANCH   4   8
ENDBRANCH   1   4
BRANCH   1  14
ATOM     14  C   UNL     1       4.422   6.073  17.680  0.00  0.00    +0.000 C 
BRANCH  14  15
ATOM     15  N   UNL     1       4.965   4.701  17.487  0.00  0.00    +0.000 NA
ATOM     16  C   UNL     1       5.937   4.353  18.550  0.00  0.00    +0.000 C 
ATOM     17  C   UNL     1       7.241   5.143  18.422  0.00  0.00    +0.000 C 
ATOM     18  O   UNL     1       7.988   5.351  19.375  0.00  0.00    +0.000 OA
ATOM     19  N   UNL     1       7.577   5.564  17.160  0.00  0.00    +0.000 N 
ATOM     20  C   UNL     1       6.917   5.217  16.003  0.00  0.00    +0.000 C 
ATOM     21  O   UNL     1       7.419   5.455  14.909  0.00  0.00    +0.000 OA
ATOM     22  C   UNL     1       5.612   4.440  16.180  0.00  0.00    +0.000 C 
ATOM     23  H   UNL     1       8.459   6.041  17.052  0.00  0.00    +0.000 HD
ENDBRANCH  14  15
ENDBRANCH   1  14
TORSDOF 5
ENDMDL
MODEL 5
REMARK VINA RESULT:      -7.4      1.940      5.996
REMARK  Name = 
REMARK  5 active torsions:
REMARK  status: ('A' for Active; 'I' for Inactive)
REMARK    1  A    between atoms: N_4  and  C_5
REMARK    2  A    between atoms: C_5  and  C_6
REMARK    3  A    between atoms: C_6  and  O_7
REMARK    4  A    between atoms: C_6  and  C_8
REMARK    5  A    between atoms: C_8  and  N_9
REMARK                            x       y       z     vdW  Elec       q    Type
REMARK                         _______ _______ _______ _____ _____    ______ ____
ROOT
ATOM      1  C   UNL     1       2.983   6.076  18.436  0.00  0.00    +0.000 C 
ENDROOT
BRANCH   1   2
ATOM      2  O   UNL     1       2.402   7.378  18.573  0.00  0.00    +0.000 OA
ATOM      3  H   UNL     1       3.099   8.048  18.672  0.00  0.00    +0.000 HD
ENDBRANCH   1   2
BRANCH   1   4
ATOM      4  C   UNL     1       3.072   5.389  19.834  0.00  0.00    +0.000 C 
BRANCH   4   8
ATOM      5  O   UNL     1       4.907   2.194  20.299  0.00  0.00    +0.000 OA
ATOM      6  C   UNL     1       3.780   2.475  19.898  0.00  0.00    +0.000 C 
ATOM      7  C   UNL     1       2.695   3.101  20.771  0.00  0.00    +0.000 C 
ATOM      8  N   UNL     1       2.110   4.283  20.098  0.00  0.00    +0.000 NA
ATOM      9  C   UNL     1       1.472   3.807  18.843  0.00  0.00    +0.000 C 
ATOM     10  C   UNL     1       2.444   3.029  17.947  0.00  0.00    +0.000 C 
ATOM     11  O   UNL     1       2.356   3.028  16.721  0.00  0.00    +0.000 OA
ATOM     12  N   UNL     1       3.433   2.312  18.578  0.00  0.00    +0.000 N 
ATOM     13  H   UNL     1       4.136   1.907  17.977  0.00  0.00    +0.000 HD
ENDBRANCH   4   8
ENDBRANCH   1   4
BRANCH   1  14
ATOM     14  C   UNL     1       4.393   6.231  17.796  0.00  0.00    +0.000 C 
BRANCH  14  15
ATOM     15  N   UNL     1       5.320   5.075  17.928  0.00  0.00    +0.000 NA
ATOM     16  C   UNL     1       6.511   5.431  18.735  0.00  0.00    +0.000 C 
ATOM     17  C   UNL     1       7.440   6.398  17.998  0.00  0.00    +0.000 C 
ATOM     18  O   UNL     1       8.220   7.146  18.584  0.00  0.00    +0.000 OA
ATOM     19  N   UNL     1       7.409   6.348  16.628  0.00  0.00    +0.000 N 
ATOM     20  C   UNL     1       6.724   5.417  15.880  0.00  0.00    +0.000 C 
ATOM     21  O   UNL     1       6.935   5.313  14.676  0.00  0.00    +0.000 OA
ATOM     22  C   UNL     1       5.797   4.481  16.656  0.00  0.00    +0.000 C 
ATOM     23  H   UNL     1       8.053   6.943  16.129  0.00  0.00    +0.000 HD
ENDBRANCH  14  15
ENDBRANCH   1  14
TORSDOF 5
ENDMDL
MODEL 6
REMARK VINA RESULT:      -7.4      2.128      2.985
REMARK  Name = 
REMARK  5 active torsions:
REMARK  status: ('A' for Active; 'I' for Inactive)
REMARK    1  A    between atoms: N_4  and  C_5
REMARK    2  A    between atoms: C_5  and  C_6
REMARK    3  A    between atoms: C_6  and  O_7
REMARK    4  A    between atoms: C_6  and  C_8
REMARK    5  A    between atoms: C_8  and  N_9
REMARK                            x       y       z     vdW  Elec       q    Type
REMARK                         _______ _______ _______ _____ _____    ______ ____
ROOT
ATOM      1  C   UNL     1       3.339   6.619  18.603  0.00  0.00    +0.000 C 
ENDROOT
BRANCH   1   2
ATOM      2  O   UNL     1       2.161   7.123  17.961  0.00  0.00    +0.000 OA
ATOM      3  H   UNL     1       1.379   6.631  18.261  0.00  0.00    +0.000 HD
ENDBRANCH   1   2
BRANCH   1   4
ATOM      4  C   UNL     1       4.367   6.152  17.526  0.00  0.00    +0.000 C 
BRANCH   4   8
ATOM      5  O   UNL     1       7.688   7.772  17.154  0.00  0.00    +0.000 OA
ATOM      6  C   UNL     1       7.307   6.603  17.140  0.00  0.00    +0.000 C 
ATOM      7  C   UNL     1       6.713   5.885  18.350  0.00  0.00    +0.000 C 
ATOM      8  N   UNL     1       5.439   5.225  17.984  0.00  0.00    +0.000 NA
ATOM      9  C   UNL     1       5.751   4.205  16.950  0.00  0.00    +0.000 C 
ATOM     10  C   UNL     1       6.487   4.796  15.741  0.00  0.00    +0.000 C 
ATOM     11  O   UNL     1       6.360   4.345  14.604  0.00  0.00    +0.000 OA
ATOM     12  N   UNL     1       7.317   5.865  15.981  0.00  0.00    +0.000 N 
ATOM     13  H   UNL     1       7.697   6.319  15.163  0.00  0.00    +0.000 HD
ENDBRANCH   4   8
ENDBRANCH   1   4
BRANCH   1  14
ATOM     14  C   UNL     1       2.926   5.443  19.533  0.00  0.00    +0.000 C 
BRANCH  14  15
ATOM     15  N   UNL     1       1.728   4.659  19.133  0.00  0.00    +0.000 NA
ATOM     16  C   UNL     1       1.035   4.093  20.315  0.00  0.00    +0.000 C 
ATOM     17  C   UNL     1       1.841   2.972  20.975  0.00  0.00    +0.000 C 
ATOM     18  O   UNL     1       1.704   2.662  22.155  0.00  0.00    +0.000 OA
ATOM     19  N   UNL     1       2.696   2.275  20.159  0.00  0.00    +0.000 N 
ATOM     20  C   UNL     1       2.780   2.410  18.792  0.00  0.00    +0.000 C 
ATOM     21  O   UNL     1       3.407   1.592  18.126  0.00  0.00    +0.000 OA
ATOM     22  C   UNL     1       1.969   3.551  18.178  0.00  0.00    +0.000 C 
ATOM     23  H   UNL     1       3.196   1.500  20.569  0.00  0.00    +0.000 HD
ENDBRANCH  14  15
ENDBRANCH   1  14
TORSDOF 5
ENDMDL
MODEL 7
REMARK VINA RESULT:      -7.3      1.654      2.271
REMARK  Name = 
REMARK  5 active torsions:
REMARK  status: ('A' for Active; 'I' for Inactive)
REMARK    1  A    between atoms: N_4  and  C_5
REMARK    2  A    between atoms: C_5  and  C_6
REMARK    3  A    between atoms: C_6  and  O_7
REMARK    4  A    between atoms: C_6  and  C_8
REMARK    5  A    between atoms: C_8  and  N_9
REMARK                            x       y       z     vdW  Elec       q    Type
REMARK                         _______ _______ _______ _____ _____    ______ ____
ROOT
ATOM      1  C   UNL     1       4.442   3.992  17.339  0.00  0.00    +0.000 C 
ENDROOT
BRANCH   1   2
ATOM      2  O   UNL     1       5.119   2.957  16.617  0.00  0.00    +0.000 OA
ATOM      3  H   UNL     1       4.529   2.195  16.489  0.00  0.00    +0.000 HD
ENDBRANCH   1   2
BRANCH   1   4
ATOM      4  C   UNL     1       5.444   5.139  17.680  0.00  0.00    +0.000 C 
BRANCH   4   8
ATOM      5  O   UNL     1       7.926   5.322  20.437  0.00  0.00    +0.000 OA
ATOM      6  C   UNL     1       7.962   5.604  19.241  0.00  0.00    +0.000 C 
ATOM      7  C   UNL     1       7.840   4.576  18.119  0.00  0.00    +0.000 C 
ATOM      8  N   UNL     1       6.822   5.007  17.133  0.00  0.00    +0.000 NA
ATOM      9  C   UNL     1       7.295   6.284  16.539  0.00  0.00    +0.000 C 
ATOM     10  C   UNL     1       7.592   7.352  17.598  0.00  0.00    +0.000 C 
ATOM     11  O   UNL     1       7.449   8.554  17.382  0.00  0.00    +0.000 OA
ATOM     12  N   UNL     1       8.040   6.910  18.820  0.00  0.00    +0.000 N 
ATOM     13  H   UNL     1       8.113   7.611  19.542  0.00  0.00    +0.000 HD
ENDBRANCH   4   8
ENDBRANCH   1   4
BRANCH   1  14
ATOM     14  C   UNL     1       3.835   3.374  18.632  0.00  0.00    +0.000 C 
BRANCH  14  15
ATOM     15  N   UNL     1       2.355   3.421  18.767  0.00  0.00    +0.000 NA
ATOM     16  C   UNL     1       1.850   4.812  18.680  0.00  0.00    +0.000 C 
ATOM     17  C   UNL     1       2.227   5.641  19.910  0.00  0.00    +0.000 C 
ATOM     18  O   UNL     1       2.307   6.867  19.885  0.00  0.00    +0.000 OA
ATOM     19  N   UNL     1       2.414   4.947  21.078  0.00  0.00    +0.000 N 
ATOM     20  C   UNL     1       2.157   3.607  21.258  0.00  0.00    +0.000 C 
ATOM     21  O   UNL     1       2.139   3.126  22.387  0.00  0.00    +0.000 OA
ATOM     22  C   UNL     1       1.799   2.816  20.001  0.00  0.00    +0.000 C 
ATOM     23  H   UNL     1       2.612   5.485  21.908  0.00  0.00    +0.000 HD
ENDBRANCH  14  15
ENDBRANCH   1  14
TORSDOF 5
ENDMDL
MODEL 8
REMARK VINA RESULT:      -7.3      1.885      6.465
REMARK  Name = 
REMARK  5 active torsions:
REMARK  status: ('A' for Active; 'I' for Inactive)
REMARK    1  A    between atoms: N_4  and  C_5
REMARK    2  A    between atoms: C_5  and  C_6
REMARK    3  A    between atoms: C_6  and  O_7
REMARK    4  A    between atoms: C_6  and  C_8
REMARK    5  A    between atoms: C_8  and  N_9
REMARK                            x       y       z     vdW  Elec       q    Type
REMARK                         _______ _______ _______ _____ _____    ______ ____
ROOT
ATOM      1  C   UNL     1       4.555   4.931  17.464  0.00  0.00    +0.000 C 
ENDROOT
BRANCH   1   2
ATOM      2  O   UNL     1       4.499   5.983  16.493  0.00  0.00    +0.000 OA
ATOM      3  H   UNL     1       5.394   6.207  16.188  0.00  0.00    +0.000 HD
ENDBRANCH   1   2
BRANCH   1   4
ATOM      4  C   UNL     1       3.116   4.599  17.965  0.00  0.00    +0.000 C 
BRANCH   4   8
ATOM      5  O   UNL     1       0.858   3.675  20.766  0.00  0.00    +0.000 OA
ATOM      6  C   UNL     1       1.620   3.036  20.044  0.00  0.00    +0.000 C 
ATOM      7  C   UNL     1       1.418   2.855  18.540  0.00  0.00    +0.000 C 
ATOM      8  N   UNL     1       2.662   3.189  17.809  0.00  0.00    +0.000 NA
ATOM      9  C   UNL     1       3.707   2.230  18.252  0.00  0.00    +0.000 C 
ATOM     10  C   UNL     1       3.892   2.223  19.775  0.00  0.00    +0.000 C 
ATOM     11  O   UNL     1       4.974   1.984  20.308  0.00  0.00    +0.000 OA
ATOM     12  N   UNL     1       2.780   2.491  20.538  0.00  0.00    +0.000 N 
ATOM     13  H   UNL     1       2.943   2.603  21.528  0.00  0.00    +0.000 HD
ENDBRANCH   4   8
ENDBRANCH   1   4
BRANCH   1  14
ATOM     14  C   UNL     1       5.466   5.393  18.638  0.00  0.00    +0.000 C 
BRANCH  14  15
ATOM     15  N   UNL     1       6.892   4.974  18.586  0.00  0.00    +0.000 NA
ATOM     16  C   UNL     1       7.793   6.084  18.980  0.00  0.00    +0.000 C 
ATOM     17  C   UNL     1       7.834   7.196  17.930  0.00  0.00    +0.000 C 
ATOM     18  O   UNL     1       8.138   8.355  18.201  0.00  0.00    +0.000 OA
ATOM     19  N   UNL     1       7.570   6.822  16.636  0.00  0.00    +0.000 N 
ATOM     20  C   UNL     1       7.414   5.527  16.197  0.00  0.00    +0.000 C 
ATOM     21  O   UNL     1       7.406   5.277  14.996  0.00  0.00    +0.000 OA
ATOM     22  C   UNL     1       7.365   4.451  17.282  0.00  0.00    +0.000 C 
ATOM     23  H   UNL     1       7.644   7.535  15.926  0.00  0.00    +0.000 HD
ENDBRANCH  14  15
ENDBRANCH   1  14
TORSDOF 5
ENDMDL
MODEL 9
REMARK VINA RESULT:      -7.2      2.293      5.976
REMARK  Name = 
REMARK  5 active torsions:
REMARK  status: ('A' for Active; 'I' for Inactive)
REMARK    1  A    between atoms: N_4  and  C_5
REMARK    2  A    between atoms: C_5  and  C_6
REMARK    3  A    between atoms: C_6  and  O_7
REMARK    4  A    between atoms: C_6  and  C_8
REMARK    5  A    between atoms: C_8  and  N_9
REMARK                            x       y       z     vdW  Elec       q    Type
REMARK                         _______ _______ _______ _____ _____    ______ ____
ROOT
ATOM      1  C   UNL     1       2.919   5.930  17.962  0.00  0.00    +0.000 C 
ENDROOT
BRANCH   1   2
ATOM      2  O   UNL     1       3.212   7.321  18.146  0.00  0.00    +0.000 OA
ATOM      3  H   UNL     1       2.402   7.807  18.376  0.00  0.00    +0.000 HD
ENDBRANCH   1   2
BRANCH   1   4
ATOM      4  C   UNL     1       2.462   5.305  19.316  0.00  0.00    +0.000 C 
BRANCH   4   8
ATOM      5  O   UNL     1       2.551   2.930  22.170  0.00  0.00    +0.000 OA
ATOM      6  C   UNL     1       2.068   2.883  21.041  0.00  0.00    +0.000 C 
ATOM      7  C   UNL     1       0.925   3.777  20.564  0.00  0.00    +0.000 C 
ATOM      8  N   UNL     1       1.272   4.411  19.271  0.00  0.00    +0.000 NA
ATOM      9  C   UNL     1       1.448   3.321  18.277  0.00  0.00    +0.000 C 
ATOM     10  C   UNL     1       2.477   2.276  18.726  0.00  0.00    +0.000 C 
ATOM     11  O   UNL     1       3.176   1.652  17.929  0.00  0.00    +0.000 OA
ATOM     12  N   UNL     1       2.588   2.052  20.078  0.00  0.00    +0.000 N 
ATOM     13  H   UNL     1       3.350   1.456  20.364  0.00  0.00    +0.000 HD
ENDBRANCH   4   8
ENDBRANCH   1   4
BRANCH   1  14
ATOM     14  C   UNL     1       4.196   5.226  17.421  0.00  0.00    +0.000 C 
BRANCH  14  15
ATOM     15  N   UNL     1       5.251   6.101  16.842  0.00  0.00    +0.000 NA
ATOM     16  C   UNL     1       5.522   5.753  15.427  0.00  0.00    +0.000 C 
ATOM     17  C   UNL     1       6.231   4.404  15.289  0.00  0.00    +0.000 C 
ATOM     18  O   UNL     1       6.172   3.725  14.267  0.00  0.00    +0.000 OA
ATOM     19  N   UNL     1       6.999   4.008  16.354  0.00  0.00    +0.000 N 
ATOM     20  C   UNL     1       7.290   4.779  17.457  0.00  0.00    +0.000 C 
ATOM     21  O   UNL     1       8.162   4.428  18.246  0.00  0.00    +0.000 OA
ATOM     22  C   UNL     1       6.548   6.111  17.561  0.00  0.00    +0.000 C 
ATOM     23  H   UNL     1       7.514   3.146  16.257  0.00  0.00    +0.000 HD
ENDBRANCH  14  15
ENDBRANCH   1  14
TORSDOF 5
ENDMDL
