MODEL 1
REMARK VINA RESULT:      -6.7      0.000      0.000
REMARK  Name = 
REMARK  10 active torsions:
REMARK  status: ('A' for Active; 'I' for Inactive)
REMARK    1  A    between atoms: C_1  and  C_2
REMARK    2  A    between atoms: C_4  and  C_5
REMARK    3  A    between atoms: N_6  and  C_7
REMARK    4  A    between atoms: C_7  and  C_8
REMARK    5  A    between atoms: C_7  and  C_9
REMARK    6  A    between atoms: C_9  and  N_10
REMARK    7  A    between atoms: C_11  and  C_13
REMARK    8  A    between atoms: C_13  and  C_14
REMARK    9  A    between atoms: C_14  and  C_15
REMARK   10  A    between atoms: C_19  and  C_20
REMARK                            x       y       z     vdW  Elec       q    Type
REMARK                         _______ _______ _______ _____ _____    ______ ____
ROOT
ATOM      1  N   UNL     1       6.298   4.134  17.343  0.00  0.00    +0.000 N 
ATOM      2  C   UNL     1       6.539   4.726  18.567  0.00  0.00    +0.000 C 
ATOM      3  O   UNL     1       7.590   5.286  18.850  0.00  0.00    +0.000 OA
ATOM      4  H   UNL     1       5.351   3.843  17.131  0.00  0.00    +0.000 HD
ENDROOT
BRANCH   1   5
ATOM      5  C   UNL     1       7.238   4.323  16.246  0.00  0.00    +0.000 C 
BRANCH   5   6
ATOM      6  C   UNL     1       6.750   5.297  15.159  0.00  0.00    +0.000 C 
ATOM      7  C   UNL     1       5.358   5.834  15.508  0.00  0.00    +0.000 C 
BRANCH   6  13
ATOM      8  C   UNL     1       5.392   2.275  11.615  0.00  0.00    +0.000 C 
ATOM      9  C   UNL     1       6.160   3.351  12.287  0.00  0.00    +0.000 A 
ATOM     10  C   UNL     1       7.218   4.116  11.760  0.00  0.00    +0.000 A 
ATOM     11  C   UNL     1       7.604   4.965  12.775  0.00  0.00    +0.000 A 
ATOM     12  C   UNL     1       8.676   5.989  12.792  0.00  0.00    +0.000 C 
ATOM     13  N   UNL     1       6.764   4.685  13.829  0.00  0.00    +0.000 N 
ATOM     14  N   UNL     1       5.886   3.698  13.549  0.00  0.00    +0.000 NA
ENDBRANCH   6  13
ENDBRANCH   5   6
ENDBRANCH   1   5
BRANCH   2  15
ATOM     15  C   UNL     1       5.406   4.547  19.558  0.00  0.00    +0.000 C 
BRANCH  15  16
ATOM     16  C   UNL     1       4.208   5.410  19.161  0.00  0.00    +0.000 C 
BRANCH  16  17
ATOM     17  C   UNL     1       2.905   4.699  19.348  0.00  0.00    +0.000 A 
ATOM     18  S   UNL     1       1.981   4.895  20.785  0.00  0.00    +0.000 S 
ATOM     19  C   UNL     1       0.832   3.778  20.181  0.00  0.00    +0.000 A 
ATOM     20  N   UNL     1       1.073   3.290  18.986  0.00  0.00    +0.000 NA
ATOM     21  C   UNL     1       2.263   3.807  18.501  0.00  0.00    +0.000 A 
ATOM     22  C   UNL     1       2.740   3.363  17.165  0.00  0.00    +0.000 C 
ENDBRANCH  16  17
ENDBRANCH  15  16
ENDBRANCH   2  15
TORSDOF 6
ENDMDL
MODEL 2
REMARK VINA RESULT:      -6.5      3.624      5.498
REMARK  Name = 
REMARK  10 active torsions:
REMARK  status: ('A' for Active; 'I' for Inactive)
REMARK    1  A    between atoms: C_1  and  C_2
REMARK    2  A    between atoms: C_4  and  C_5
REMARK    3  A    between atoms: N_6  and  C_7
REMARK    4  A    between atoms: C_7  and  C_8
REMARK    5  A    between atoms: C_7  and  C_9
REMARK    6  A    between atoms: C_9  and  N_10
REMARK    7  A    between atoms: C_11  and  C_13
REMARK    8  A    between atoms: C_13  and  C_14
REMARK    9  A    between atoms: C_14  and  C_15
REMARK   10  A    between atoms: C_19  and  C_20
REMARK                            x       y       z     vdW  Elec       q    Type
REMARK                         _______ _______ _______ _____ _____    ______ ____
ROOT
ATOM      1  N   UNL     1       2.532   4.902  18.636  0.00  0.00    +0.000 N 
ATOM      2  C   UNL     1       1.686   4.824  19.725  0.00  0.00    +0.000 C 
ATOM      3  O   UNL     1       0.897   3.905  19.903  0.00  0.00    +0.000 OA
ATOM      4  H   UNL     1       3.265   5.600  18.650  0.00  0.00    +0.000 HD
ENDROOT
BRANCH   1   5
ATOM      5  C   UNL     1       2.658   3.767  17.731  0.00  0.00    +0.000 C 
BRANCH   5   6
ATOM      6  C   UNL     1       3.988   3.005  17.858  0.00  0.00    +0.000 C 
ATOM      7  C   UNL     1       4.012   2.182  19.150  0.00  0.00    +0.000 C 
BRANCH   6  13
ATOM      8  C   UNL     1       7.624   5.764  19.501  0.00  0.00    +0.000 C 
ATOM      9  C   UNL     1       6.730   5.110  18.515  0.00  0.00    +0.000 A 
ATOM     10  C   UNL     1       6.765   5.218  17.112  0.00  0.00    +0.000 A 
ATOM     11  C   UNL     1       5.724   4.440  16.653  0.00  0.00    +0.000 A 
ATOM     12  C   UNL     1       5.278   4.184  15.263  0.00  0.00    +0.000 C 
ATOM     13  N   UNL     1       5.143   3.901  17.779  0.00  0.00    +0.000 N 
ATOM     14  N   UNL     1       5.739   4.308  18.920  0.00  0.00    +0.000 NA
ENDBRANCH   6  13
ENDBRANCH   5   6
ENDBRANCH   1   5
BRANCH   2  15
ATOM     15  C   UNL     1       1.769   6.029  20.641  0.00  0.00    +0.000 C 
BRANCH  15  16
ATOM     16  C   UNL     1       2.248   7.257  19.867  0.00  0.00    +0.000 C 
BRANCH  16  17
ATOM     17  C   UNL     1       1.515   8.501  20.258  0.00  0.00    +0.000 A 
ATOM     18  S   UNL     1       1.156   8.845  21.903  0.00  0.00    +0.000 S 
ATOM     19  C   UNL     1       0.343  10.270  21.414  0.00  0.00    +0.000 A 
ATOM     20  N   UNL     1       0.339  10.519  20.124  0.00  0.00    +0.000 NA
ATOM     21  C   UNL     1       1.003   9.507  19.451  0.00  0.00    +0.000 A 
ATOM     22  C   UNL     1       1.093   9.578  17.969  0.00  0.00    +0.000 C 
ENDBRANCH  16  17
ENDBRANCH  15  16
ENDBRANCH   2  15
TORSDOF 6
ENDMDL
MODEL 3
REMARK VINA RESULT:      -6.5      3.942      5.743
REMARK  Name = 
REMARK  10 active torsions:
REMARK  status: ('A' for Active; 'I' for Inactive)
REMARK    1  A    between atoms: C_1  and  C_2
REMARK    2  A    between atoms: C_4  and  C_5
REMARK    3  A    between atoms: N_6  and  C_7
REMARK    4  A    between atoms: C_7  and  C_8
REMARK    5  A    between atoms: C_7  and  C_9
REMARK    6  A    between atoms: C_9  and  N_10
REMARK    7  A    between atoms: C_11  and  C_13
REMARK    8  A    between atoms: C_13  and  C_14
REMARK    9  A    between atoms: C_14  and  C_15
REMARK   10  A    between atoms: C_19  and  C_20
REMARK                            x       y       z     vdW  Elec       q    Type
REMARK                         _______ _______ _______ _____ _____    ______ ____
ROOT
ATOM      1  N   UNL     1       2.860   5.353  18.094  0.00  0.00    +0.000 N 
ATOM      2  C   UNL     1       2.225   5.658  19.281  0.00  0.00    +0.000 C 
ATOM      3  O   UNL     1       1.468   4.889  19.859  0.00  0.00    +0.000 OA
ATOM      4  H   UNL     1       3.594   5.972  17.772  0.00  0.00    +0.000 HD
ENDROOT
BRANCH   1   5
ATOM      5  C   UNL     1       2.803   3.997  17.567  0.00  0.00    +0.000 C 
BRANCH   5   6
ATOM      6  C   UNL     1       4.080   3.172  17.808  0.00  0.00    +0.000 C 
ATOM      7  C   UNL     1       4.013   2.470  19.169  0.00  0.00    +0.000 C 
BRANCH   6  13
ATOM      8  C   UNL     1       7.831   5.846  19.328  0.00  0.00    +0.000 C 
ATOM      9  C   UNL     1       6.927   5.161  18.373  0.00  0.00    +0.000 A 
ATOM     10  C   UNL     1       7.008   5.143  16.967  0.00  0.00    +0.000 A 
ATOM     11  C   UNL     1       5.934   4.389  16.543  0.00  0.00    +0.000 A 
ATOM     12  C   UNL     1       5.513   4.039  15.166  0.00  0.00    +0.000 C 
ATOM     13  N   UNL     1       5.289   3.988  17.691  0.00  0.00    +0.000 N 
ATOM     14  N   UNL     1       5.877   4.458  18.812  0.00  0.00    +0.000 NA
ENDBRANCH   6  13
ENDBRANCH   5   6
ENDBRANCH   1   5
BRANCH   2  15
ATOM     15  C   UNL     1       2.490   7.071  19.763  0.00  0.00    +0.000 C 
BRANCH  15  16
ATOM     16  C   UNL     1       1.467   7.475  20.823  0.00  0.00    +0.000 C 
BRANCH  16  17
ATOM     17  C   UNL     1       0.990   8.883  20.650  0.00  0.00    +0.000 A 
ATOM     18  S   UNL     1       1.096   9.679  19.131  0.00  0.00    +0.000 S 
ATOM     19  C   UNL     1       0.447  11.095  19.843  0.00  0.00    +0.000 A 
ATOM     20  N   UNL     1       0.138  11.011  21.117  0.00  0.00    +0.000 NA
ATOM     21  C   UNL     1       0.451   9.747  21.592  0.00  0.00    +0.000 A 
ATOM     22  C   UNL     1       0.203   9.444  23.026  0.00  0.00    +0.000 C 
ENDBRANCH  16  17
ENDBRANCH  15  16
ENDBRANCH   2  15
TORSDOF 6
ENDMDL
MODEL 4
REMARK VINA RESULT:      -6.4      4.466      5.904
REMARK  Name = 
REMARK  10 active torsions:
REMARK  status: ('A' for Active; 'I' for Inactive)
REMARK    1  A    between atoms: C_1  and  C_2
REMARK    2  A    between atoms: C_4  and  C_5
REMARK    3  A    between atoms: N_6  and  C_7
REMARK    4  A    between atoms: C_7  and  C_8
REMARK    5  A    between atoms: C_7  and  C_9
REMARK    6  A    between atoms: C_9  and  N_10
REMARK    7  A    between atoms: C_11  and  C_13
REMARK    8  A    between atoms: C_13  and  C_14
REMARK    9  A    between atoms: C_14  and  C_15
REMARK   10  A    between atoms: C_19  and  C_20
REMARK                            x       y       z     vdW  Elec       q    Type
REMARK                         _______ _______ _______ _____ _____    ______ ____
ROOT
ATOM      1  N   UNL     1       2.762   6.427  17.879  0.00  0.00    +0.000 N 
ATOM      2  C   UNL     1       2.450   7.406  18.802  0.00  0.00    +0.000 C 
ATOM      3  O   UNL     1       2.137   7.165  19.961  0.00  0.00    +0.000 OA
ATOM      4  H   UNL     1       3.171   6.715  16.998  0.00  0.00    +0.000 HD
ENDROOT
BRANCH   1   5
ATOM      5  C   UNL     1       2.920   5.045  18.310  0.00  0.00    +0.000 C 
BRANCH   5   6
ATOM      6  C   UNL     1       3.754   4.178  17.352  0.00  0.00    +0.000 C 
ATOM      7  C   UNL     1       3.500   2.691  17.618  0.00  0.00    +0.000 C 
BRANCH   6  13
ATOM      8  C   UNL     1       7.878   5.767  19.352  0.00  0.00    +0.000 C 
ATOM      9  C   UNL     1       6.980   5.198  18.318  0.00  0.00    +0.000 A 
ATOM     10  C   UNL     1       7.313   4.799  17.009  0.00  0.00    +0.000 A 
ATOM     11  C   UNL     1       6.135   4.358  16.445  0.00  0.00    +0.000 A 
ATOM     12  C   UNL     1       5.881   3.829  15.083  0.00  0.00    +0.000 C 
ATOM     13  N   UNL     1       5.181   4.494  17.428  0.00  0.00    +0.000 N 
ATOM     14  N   UNL     1       5.680   5.013  18.570  0.00  0.00    +0.000 NA
ENDBRANCH   6  13
ENDBRANCH   5   6
ENDBRANCH   1   5
BRANCH   2  15
ATOM     15  C   UNL     1       2.454   8.806  18.223  0.00  0.00    +0.000 C 
BRANCH  15  16
ATOM     16  C   UNL     1       1.107   9.119  17.571  0.00  0.00    +0.000 C 
BRANCH  16  17
ATOM     17  C   UNL     1       0.251  10.001  18.423  0.00  0.00    +0.000 A 
ATOM     18  S   UNL     1       0.850  10.685  19.882  0.00  0.00    +0.000 S 
ATOM     19  C   UNL     1      -0.681  11.400  20.160  0.00  0.00    +0.000 A 
ATOM     20  N   UNL     1      -1.594  11.187  19.239  0.00  0.00    +0.000 NA
ATOM     21  C   UNL     1      -1.071  10.380  18.241  0.00  0.00    +0.000 A 
ATOM     22  C   UNL     1      -1.950   9.992  17.106  0.00  0.00    +0.000 C 
ENDBRANCH  16  17
ENDBRANCH  15  16
ENDBRANCH   2  15
TORSDOF 6
ENDMDL
MODEL 5
REMARK VINA RESULT:      -6.4      1.101      1.217
REMARK  Name = 
REMARK  10 active torsions:
REMARK  status: ('A' for Active; 'I' for Inactive)
REMARK    1  A    between atoms: C_1  and  C_2
REMARK    2  A    between atoms: C_4  and  C_5
REMARK    3  A    between atoms: N_6  and  C_7
REMARK    4  A    between atoms: C_7  and  C_8
REMARK    5  A    between atoms: C_7  and  C_9
REMARK    6  A    between atoms: C_9  and  N_10
REMARK    7  A    between atoms: C_11  and  C_13
REMARK    8  A    between atoms: C_13  and  C_14
REMARK    9  A    between atoms: C_14  and  C_15
REMARK   10  A    between atoms: C_19  and  C_20
REMARK                            x       y       z     vdW  Elec       q    Type
REMARK                         _______ _______ _______ _____ _____    ______ ____
ROOT
ATOM      1  N   UNL     1       6.683   4.356  17.399  0.00  0.00    +0.000 N 
ATOM      2  C   UNL     1       6.861   5.292  18.399  0.00  0.00    +0.000 C 
ATOM      3  O   UNL     1       7.711   6.171  18.356  0.00  0.00    +0.000 OA
ATOM      4  H   UNL     1       5.856   3.773  17.432  0.00  0.00    +0.000 HD
ENDROOT
BRANCH   1   5
ATOM      5  C   UNL     1       7.393   4.498  16.135  0.00  0.00    +0.000 C 
BRANCH   5   6
ATOM      6  C   UNL     1       6.625   5.298  15.068  0.00  0.00    +0.000 C 
ATOM      7  C   UNL     1       5.174   5.516  15.505  0.00  0.00    +0.000 C 
BRANCH   6  13
ATOM      8  C   UNL     1       5.408   2.210  11.530  0.00  0.00    +0.000 C 
ATOM      9  C   UNL     1       6.150   3.298  12.212  0.00  0.00    +0.000 A 
ATOM     10  C   UNL     1       7.231   4.051  11.714  0.00  0.00    +0.000 A 
ATOM     11  C   UNL     1       7.576   4.919  12.728  0.00  0.00    +0.000 A 
ATOM     12  C   UNL     1       8.649   5.942  12.770  0.00  0.00    +0.000 C 
ATOM     13  N   UNL     1       6.694   4.661  13.752  0.00  0.00    +0.000 N 
ATOM     14  N   UNL     1       5.826   3.670  13.455  0.00  0.00    +0.000 NA
ENDBRANCH   6  13
ENDBRANCH   5   6
ENDBRANCH   1   5
BRANCH   2  15
ATOM     15  C   UNL     1       5.954   5.079  19.594  0.00  0.00    +0.000 C 
BRANCH  15  16
ATOM     16  C   UNL     1       4.497   5.341  19.212  0.00  0.00    +0.000 C 
BRANCH  16  17
ATOM     17  C   UNL     1       3.714   4.076  19.046  0.00  0.00    +0.000 A 
ATOM     18  S   UNL     1       4.291   2.582  19.669  0.00  0.00    +0.000 S 
ATOM     19  C   UNL     1       2.919   1.794  19.014  0.00  0.00    +0.000 A 
ATOM     20  N   UNL     1       2.056   2.563  18.388  0.00  0.00    +0.000 NA
ATOM     21  C   UNL     1       2.506   3.873  18.396  0.00  0.00    +0.000 A 
ATOM     22  C   UNL     1       1.686   4.910  17.714  0.00  0.00    +0.000 C 
ENDBRANCH  16  17
ENDBRANCH  15  16
ENDBRANCH   2  15
TORSDOF 6
ENDMDL
MODEL 6
REMARK VINA RESULT:      -6.3      5.514      7.963
REMARK  Name = 
REMARK  10 active torsions:
REMARK  status: ('A' for Active; 'I' for Inactive)
REMARK    1  A    between atoms: C_1  and  C_2
REMARK    2  A    between atoms: C_4  and  C_5
REMARK    3  A    between atoms: N_6  and  C_7
REMARK    4  A    between atoms: C_7  and  C_8
REMARK    5  A    between atoms: C_7  and  C_9
REMARK    6  A    between atoms: C_9  and  N_10
REMARK    7  A    between atoms: C_11  and  C_13
REMARK    8  A    between atoms: C_13  and  C_14
REMARK    9  A    between atoms: C_14  and  C_15
REMARK   10  A    between atoms: C_19  and  C_20
REMARK                            x       y       z     vdW  Elec       q    Type
REMARK                         _______ _______ _______ _____ _____    ______ ____
ROOT
ATOM      1  N   UNL     1       6.706   7.704  17.198  0.00  0.00    +0.000 N 
ATOM      2  C   UNL     1       7.829   8.133  17.877  0.00  0.00    +0.000 C 
ATOM      3  O   UNL     1       8.461   7.426  18.651  0.00  0.00    +0.000 OA
ATOM      4  H   UNL     1       6.344   8.289  16.455  0.00  0.00    +0.000 HD
ENDROOT
BRANCH   1   5
ATOM      5  C   UNL     1       6.330   6.297  17.231  0.00  0.00    +0.000 C 
BRANCH   5   6
ATOM      6  C   UNL     1       5.598   5.871  18.516  0.00  0.00    +0.000 C 
ATOM      7  C   UNL     1       6.480   4.934  19.347  0.00  0.00    +0.000 C 
BRANCH   6  13
ATOM      8  C   UNL     1       2.437   2.304  17.613  0.00  0.00    +0.000 C 
ATOM      9  C   UNL     1       2.925   3.687  17.831  0.00  0.00    +0.000 A 
ATOM     10  C   UNL     1       2.182   4.883  17.791  0.00  0.00    +0.000 A 
ATOM     11  C   UNL     1       3.089   5.891  18.039  0.00  0.00    +0.000 A 
ATOM     12  C   UNL     1       2.874   7.356  18.111  0.00  0.00    +0.000 C 
ATOM     13  N   UNL     1       4.298   5.262  18.229  0.00  0.00    +0.000 N 
ATOM     14  N   UNL     1       4.215   3.921  18.096  0.00  0.00    +0.000 NA
ENDBRANCH   6  13
ENDBRANCH   5   6
ENDBRANCH   1   5
BRANCH   2  15
ATOM     15  C   UNL     1       8.161   9.592  17.634  0.00  0.00    +0.000 C 
BRANCH  15  16
ATOM     16  C   UNL     1       9.109  10.111  18.715  0.00  0.00    +0.000 C 
BRANCH  16  17
ATOM     17  C   UNL     1       9.373  11.579  18.586  0.00  0.00    +0.000 A 
ATOM     18  S   UNL     1       8.405  12.573  17.572  0.00  0.00    +0.000 S 
ATOM     19  C   UNL     1       9.388  13.917  17.975  0.00  0.00    +0.000 A 
ATOM     20  N   UNL     1      10.364  13.684  18.822  0.00  0.00    +0.000 NA
ATOM     21  C   UNL     1      10.369  12.345  19.175  0.00  0.00    +0.000 A 
ATOM     22  C   UNL     1      11.416  11.859  20.111  0.00  0.00    +0.000 C 
ENDBRANCH  16  17
ENDBRANCH  15  16
ENDBRANCH   2  15
TORSDOF 6
ENDMDL
MODEL 7
REMARK VINA RESULT:      -6.2      5.424      7.722
REMARK  Name = 
REMARK  10 active torsions:
REMARK  status: ('A' for Active; 'I' for Inactive)
REMARK    1  A    between atoms: C_1  and  C_2
REMARK    2  A    between atoms: C_4  and  C_5
REMARK    3  A    between atoms: N_6  and  C_7
REMARK    4  A    between atoms: C_7  and  C_8
REMARK    5  A    between atoms: C_7  and  C_9
REMARK    6  A    between atoms: C_9  and  N_10
REMARK    7  A    between atoms: C_11  and  C_13
REMARK    8  A    between atoms: C_13  and  C_14
REMARK    9  A    between atoms: C_14  and  C_15
REMARK   10  A    between atoms: C_19  and  C_20
REMARK                            x       y       z     vdW  Elec       q    Type
REMARK                         _______ _______ _______ _____ _____    ______ ____
ROOT
ATOM      1  N   UNL     1       7.021   7.300  17.105  0.00  0.00    +0.000 N 
ATOM      2  C   UNL     1       7.905   7.928  17.960  0.00  0.00    +0.000 C 
ATOM      3  O   UNL     1       8.499   7.349  18.860  0.00  0.00    +0.000 OA
ATOM      4  H   UNL     1       6.703   7.809  16.289  0.00  0.00    +0.000 HD
ENDROOT
BRANCH   1   5
ATOM      5  C   UNL     1       6.904   5.848  17.117  0.00  0.00    +0.000 C 
BRANCH   5   6
ATOM      6  C   UNL     1       5.625   5.313  16.451  0.00  0.00    +0.000 C 
ATOM      7  C   UNL     1       5.601   5.684  14.965  0.00  0.00    +0.000 C 
BRANCH   6  13
ATOM      8  C   UNL     1       2.351   8.512  18.058  0.00  0.00    +0.000 C 
ATOM      9  C   UNL     1       2.992   7.193  17.834  0.00  0.00    +0.000 A 
ATOM     10  C   UNL     1       2.558   5.933  18.289  0.00  0.00    +0.000 A 
ATOM     11  C   UNL     1       3.498   5.032  17.837  0.00  0.00    +0.000 A 
ATOM     12  C   UNL     1       3.561   3.563  18.022  0.00  0.00    +0.000 C 
ATOM     13  N   UNL     1       4.416   5.778  17.134  0.00  0.00    +0.000 N 
ATOM     14  N   UNL     1       4.126   7.097  17.132  0.00  0.00    +0.000 NA
ENDBRANCH   6  13
ENDBRANCH   5   6
ENDBRANCH   1   5
BRANCH   2  15
ATOM     15  C   UNL     1       8.008   9.423  17.732  0.00  0.00    +0.000 C 
BRANCH  15  16
ATOM     16  C   UNL     1       9.224   9.992  18.463  0.00  0.00    +0.000 C 
BRANCH  16  17
ATOM     17  C   UNL     1       9.059  11.440  18.803  0.00  0.00    +0.000 A 
ATOM     18  S   UNL     1       8.732  12.610  17.587  0.00  0.00    +0.000 S 
ATOM     19  C   UNL     1       8.770  13.839  18.779  0.00  0.00    +0.000 A 
ATOM     20  N   UNL     1       8.985  13.441  20.012  0.00  0.00    +0.000 NA
ATOM     21  C   UNL     1       9.158  12.067  20.036  0.00  0.00    +0.000 A 
ATOM     22  C   UNL     1       9.441  11.408  21.339  0.00  0.00    +0.000 C 
ENDBRANCH  16  17
ENDBRANCH  15  16
ENDBRANCH   2  15
TORSDOF 6
ENDMDL
MODEL 8
REMARK VINA RESULT:      -6.2      1.029      1.124
REMARK  Name = 
REMARK  10 active torsions:
REMARK  status: ('A' for Active; 'I' for Inactive)
REMARK    1  A    between atoms: C_1  and  C_2
REMARK    2  A    between atoms: C_4  and  C_5
REMARK    3  A    between atoms: N_6  and  C_7
REMARK    4  A    between atoms: C_7  and  C_8
REMARK    5  A    between atoms: C_7  and  C_9
REMARK    6  A    between atoms: C_9  and  N_10
REMARK    7  A    between atoms: C_11  and  C_13
REMARK    8  A    between atoms: C_13  and  C_14
REMARK    9  A    between atoms: C_14  and  C_15
REMARK   10  A    between atoms: C_19  and  C_20
REMARK                            x       y       z     vdW  Elec       q    Type
REMARK                         _______ _______ _______ _____ _____    ______ ____
ROOT
ATOM      1  N   UNL     1       6.305   4.361  17.374  0.00  0.00    +0.000 N 
ATOM      2  C   UNL     1       6.642   5.211  18.408  0.00  0.00    +0.000 C 
ATOM      3  O   UNL     1       7.703   5.820  18.462  0.00  0.00    +0.000 OA
ATOM      4  H   UNL     1       5.349   4.030  17.320  0.00  0.00    +0.000 HD
ENDROOT
BRANCH   1   5
ATOM      5  C   UNL     1       7.138   4.299  16.181  0.00  0.00    +0.000 C 
BRANCH   5   6
ATOM      6  C   UNL     1       6.720   5.278  15.070  0.00  0.00    +0.000 C 
ATOM      7  C   UNL     1       5.336   5.863  15.366  0.00  0.00    +0.000 C 
BRANCH   6  13
ATOM      8  C   UNL     1       5.461   2.197  11.542  0.00  0.00    +0.000 C 
ATOM      9  C   UNL     1       6.200   3.294  12.211  0.00  0.00    +0.000 A 
ATOM     10  C   UNL     1       7.249   4.074  11.687  0.00  0.00    +0.000 A 
ATOM     11  C   UNL     1       7.607   4.940  12.699  0.00  0.00    +0.000 A 
ATOM     12  C   UNL     1       8.658   5.985  12.717  0.00  0.00    +0.000 C 
ATOM     13  N   UNL     1       6.761   4.654  13.746  0.00  0.00    +0.000 N 
ATOM     14  N   UNL     1       5.906   3.648  13.467  0.00  0.00    +0.000 NA
ENDBRANCH   6  13
ENDBRANCH   5   6
ENDBRANCH   1   5
BRANCH   2  15
ATOM     15  C   UNL     1       5.607   5.259  19.514  0.00  0.00    +0.000 C 
BRANCH  15  16
ATOM     16  C   UNL     1       4.859   3.929  19.602  0.00  0.00    +0.000 C 
BRANCH  16  17
ATOM     17  C   UNL     1       3.585   3.936  18.817  0.00  0.00    +0.000 A 
ATOM     18  S   UNL     1       2.656   5.371  18.639  0.00  0.00    +0.000 S 
ATOM     19  C   UNL     1       1.491   4.489  17.746  0.00  0.00    +0.000 A 
ATOM     20  N   UNL     1       1.754   3.217  17.552  0.00  0.00    +0.000 NA
ATOM     21  C   UNL     1       2.950   2.888  18.167  0.00  0.00    +0.000 A 
ATOM     22  C   UNL     1       3.425   1.481  18.092  0.00  0.00    +0.000 C 
ENDBRANCH  16  17
ENDBRANCH  15  16
ENDBRANCH   2  15
TORSDOF 6
ENDMDL
MODEL 9
REMARK VINA RESULT:      -6.2      1.160      1.507
REMARK  Name = 
REMARK  10 active torsions:
REMARK  status: ('A' for Active; 'I' for Inactive)
REMARK    1  A    between atoms: C_1  and  C_2
REMARK    2  A    between atoms: C_4  and  C_5
REMARK    3  A    between atoms: N_6  and  C_7
REMARK    4  A    between atoms: C_7  and  C_8
REMARK    5  A    between atoms: C_7  and  C_9
REMARK    6  A    between atoms: C_9  and  N_10
REMARK    7  A    between atoms: C_11  and  C_13
REMARK    8  A    between atoms: C_13  and  C_14
REMARK    9  A    between atoms: C_14  and  C_15
REMARK   10  A    between atoms: C_19  and  C_20
REMARK                            x       y       z     vdW  Elec       q    Type
REMARK                         _______ _______ _______ _____ _____    ______ ____
ROOT
ATOM      1  N   UNL     1       5.938   4.358  17.217  0.00  0.00    +0.000 N 
ATOM      2  C   UNL     1       6.361   4.645  18.500  0.00  0.00    +0.000 C 
ATOM      3  O   UNL     1       7.539   4.654  18.835  0.00  0.00    +0.000 OA
ATOM      4  H   UNL     1       4.968   4.534  16.984  0.00  0.00    +0.000 HD
ENDROOT
BRANCH   1   5
ATOM      5  C   UNL     1       6.910   4.239  16.139  0.00  0.00    +0.000 C 
BRANCH   5   6
ATOM      6  C   UNL     1       6.703   5.242  14.991  0.00  0.00    +0.000 C 
ATOM      7  C   UNL     1       5.384   5.999  15.174  0.00  0.00    +0.000 C 
BRANCH   6  13
ATOM      8  C   UNL     1       5.532   2.066  11.516  0.00  0.00    +0.000 C 
ATOM      9  C   UNL     1       6.243   3.192  12.168  0.00  0.00    +0.000 A 
ATOM     10  C   UNL     1       7.277   3.985  11.635  0.00  0.00    +0.000 A 
ATOM     11  C   UNL     1       7.610   4.878  12.631  0.00  0.00    +0.000 A 
ATOM     12  C   UNL     1       8.638   5.946  12.635  0.00  0.00    +0.000 C 
ATOM     13  N   UNL     1       6.765   4.594  13.680  0.00  0.00    +0.000 N 
ATOM     14  N   UNL     1       5.934   3.563  13.415  0.00  0.00    +0.000 NA
ENDBRANCH   6  13
ENDBRANCH   5   6
ENDBRANCH   1   5
BRANCH   2  15
ATOM     15  C   UNL     1       5.224   4.868  19.476  0.00  0.00    +0.000 C 
BRANCH  15  16
ATOM     16  C   UNL     1       4.707   3.532  20.009  0.00  0.00    +0.000 C 
BRANCH  16  17
ATOM     17  C   UNL     1       3.308   3.242  19.563  0.00  0.00    +0.000 A 
ATOM     18  S   UNL     1       2.980   2.032  18.387  0.00  0.00    +0.000 S 
ATOM     19  C   UNL     1       1.315   2.425  18.467  0.00  0.00    +0.000 A 
ATOM     20  N   UNL     1       0.985   3.371  19.317  0.00  0.00    +0.000 NA
ATOM     21  C   UNL     1       2.122   3.850  19.947  0.00  0.00    +0.000 A 
ATOM     22  C   UNL     1       1.976   4.950  20.936  0.00  0.00    +0.000 C 
ENDBRANCH  16  17
ENDBRANCH  15  16
ENDBRANCH   2  15
TORSDOF 6
ENDMDL
