MODEL 1
REMARK VINA RESULT:      -7.1      0.000      0.000
REMARK  Name = 
REMARK  10 active torsions:
REMARK  status: ('A' for Active; 'I' for Inactive)
REMARK    1  A    between atoms: C_1  and  C_2
REMARK    2  A    between atoms: C_2  and  O_3
REMARK    3  A    between atoms: O_3  and  C_4
REMARK    4  A    between atoms: C_7  and  C_8
REMARK    5  A    between atoms: C_8  and  N_9
REMARK    6  A    between atoms: N_12  and  C_13
REMARK    7  A    between atoms: C_13  and  C_14
REMARK    8  A    between atoms: C_24  and  C_25
REMARK    9  A    between atoms: C_25  and  C_26
REMARK   10  A    between atoms: C_26  and  O_27
REMARK                            x       y       z     vdW  Elec       q    Type
REMARK                         _______ _______ _______ _____ _____    ______ ____
ROOT
ATOM      1  N   UNL     1       2.110   5.778  19.425  0.00  0.00    +0.000 NA
ATOM      2  C   UNL     1       2.371   5.776  17.974  0.00  0.00    +0.000 C 
ATOM      3  C   UNL     1       3.857   5.858  17.553  0.00  0.00    +0.000 C 
ATOM      4  N   UNL     1       4.870   5.168  18.374  0.00  0.00    +0.000 NA
ATOM      5  C   UNL     1       4.478   4.938  19.775  0.00  0.00    +0.000 C 
ATOM      6  C   UNL     1       2.953   4.704  20.041  0.00  0.00    +0.000 C 
ENDROOT
BRANCH   1   7
ATOM      7  C   UNL     1       2.425   7.106  20.039  0.00  0.00    +0.000 C 
BRANCH   7  11
ATOM      8  C   UNL     1      -0.030  10.564  19.026  0.00  0.00    +0.000 A 
ATOM      9  C   UNL     1       0.864  10.031  18.086  0.00  0.00    +0.000 A 
ATOM     10  C   UNL     1       1.640   8.901  18.381  0.00  0.00    +0.000 A 
ATOM     11  C   UNL     1       1.556   8.290  19.635  0.00  0.00    +0.000 A 
ATOM     12  C   UNL     1       0.608   8.796  20.551  0.00  0.00    +0.000 A 
ATOM     13  C   UNL     1      -0.167   9.930  20.253  0.00  0.00    +0.000 A 
BRANCH   8  14
ATOM     14  O   UNL     1      -0.692  11.690  18.618  0.00  0.00    +0.000 OA
BRANCH  14  16
ATOM     15  C   UNL     1      -2.539  10.615  17.555  0.00  0.00    +0.000 C 
ATOM     16  C   UNL     1      -2.120  11.644  18.591  0.00  0.00    +0.000 C 
ENDBRANCH  14  16
ENDBRANCH   8  14
ENDBRANCH   7  11
ENDBRANCH   1   7
BRANCH   4  17
ATOM     17  C   UNL     1       5.466   3.985  17.732  0.00  0.00    +0.000 C 
BRANCH  17  18
ATOM     18  C   UNL     1       5.947   4.205  16.317  0.00  0.00    +0.000 A 
ATOM     19  N   UNL     1       5.417   3.606  15.265  0.00  0.00    +0.000 NA
ATOM     20  C   UNL     1       6.107   3.978  14.135  0.00  0.00    +0.000 A 
ATOM     21  C   UNL     1       7.125   4.886  14.333  0.00  0.00    +0.000 A 
ATOM     22  S   UNL     1       7.280   5.251  15.986  0.00  0.00    +0.000 S 
ATOM     23  C   UNL     1       8.020   5.425  13.272  0.00  0.00    +0.000 C 
ATOM     24  C   UNL     1       7.444   5.105  11.880  0.00  0.00    +0.000 C 
ATOM     25  C   UNL     1       6.907   3.664  11.794  0.00  0.00    +0.000 C 
ATOM     26  C   UNL     1       5.761   3.424  12.794  0.00  0.00    +0.000 C 
ENDBRANCH  17  18
ENDBRANCH   4  17
BRANCH   6  27
ATOM     27  C   UNL     1       2.643   3.256  19.567  0.00  0.00    +0.000 C 
BRANCH  27  28
ATOM     28  C   UNL     1       1.207   2.772  19.609  0.00  0.00    +0.000 C 
BRANCH  28  29
ATOM     29  O   UNL     1       0.493   3.590  20.548  0.00  0.00    +0.000 OA
ATOM     30  H   UNL     1       1.142   4.139  21.021  0.00  0.00    +0.000 HD
ENDBRANCH  28  29
ENDBRANCH  27  28
ENDBRANCH   6  27
TORSDOF 9
ENDMDL
MODEL 2
REMARK VINA RESULT:      -6.9      1.361      1.935
REMARK  Name = 
REMARK  10 active torsions:
REMARK  status: ('A' for Active; 'I' for Inactive)
REMARK    1  A    between atoms: C_1  and  C_2
REMARK    2  A    between atoms: C_2  and  O_3
REMARK    3  A    between atoms: O_3  and  C_4
REMARK    4  A    between atoms: C_7  and  C_8
REMARK    5  A    between atoms: C_8  and  N_9
REMARK    6  A    between atoms: N_12  and  C_13
REMARK    7  A    between atoms: C_13  and  C_14
REMARK    8  A    between atoms: C_24  and  C_25
REMARK    9  A    between atoms: C_25  and  C_26
REMARK   10  A    between atoms: C_26  and  O_27
REMARK                            x       y       z     vdW  Elec       q    Type
REMARK                         _______ _______ _______ _____ _____    ______ ____
ROOT
ATOM      1  N   UNL     1       2.762   6.626  18.107  0.00  0.00    +0.000 NA
ATOM      2  C   UNL     1       3.765   6.780  17.037  0.00  0.00    +0.000 C 
ATOM      3  C   UNL     1       5.243   6.652  17.472  0.00  0.00    +0.000 C 
ATOM      4  N   UNL     1       5.596   5.683  18.528  0.00  0.00    +0.000 NA
ATOM      5  C   UNL     1       4.492   5.333  19.439  0.00  0.00    +0.000 C 
ATOM      6  C   UNL     1       3.053   5.343  18.822  0.00  0.00    +0.000 C 
ENDROOT
BRANCH   1   7
ATOM      7  C   UNL     1       2.796   7.777  19.063  0.00  0.00    +0.000 C 
BRANCH   7  11
ATOM      8  C   UNL     1      -0.742  10.325  19.045  0.00  0.00    +0.000 A 
ATOM      9  C   UNL     1      -0.208   9.862  20.257  0.00  0.00    +0.000 A 
ATOM     10  C   UNL     1       0.946   9.067  20.286  0.00  0.00    +0.000 A 
ATOM     11  C   UNL     1       1.582   8.696  19.099  0.00  0.00    +0.000 A 
ATOM     12  C   UNL     1       1.075   9.219  17.889  0.00  0.00    +0.000 A 
ATOM     13  C   UNL     1      -0.084  10.015  17.863  0.00  0.00    +0.000 A 
BRANCH   8  14
ATOM     14  O   UNL     1      -1.892  11.057  19.163  0.00  0.00    +0.000 OA
BRANCH  14  16
ATOM     15  C   UNL     1      -3.854  11.400  17.847  0.00  0.00    +0.000 C 
ATOM     16  C   UNL     1      -2.376  11.720  17.994  0.00  0.00    +0.000 C 
ENDBRANCH  14  16
ENDBRANCH   8  14
ENDBRANCH   7  11
ENDBRANCH   1   7
BRANCH   4  17
ATOM     17  C   UNL     1       6.351   4.514  18.049  0.00  0.00    +0.000 C 
BRANCH  17  18
ATOM     18  C   UNL     1       6.496   4.424  16.549  0.00  0.00    +0.000 A 
ATOM     19  N   UNL     1       7.444   5.044  15.869  0.00  0.00    +0.000 NA
ATOM     20  C   UNL     1       7.274   4.801  14.525  0.00  0.00    +0.000 A 
ATOM     21  C   UNL     1       6.225   3.967  14.202  0.00  0.00    +0.000 A 
ATOM     22  S   UNL     1       5.377   3.511  15.602  0.00  0.00    +0.000 S 
ATOM     23  C   UNL     1       5.831   3.570  12.821  0.00  0.00    +0.000 C 
ATOM     24  C   UNL     1       6.951   3.931  11.828  0.00  0.00    +0.000 C 
ATOM     25  C   UNL     1       7.541   5.326  12.102  0.00  0.00    +0.000 C 
ATOM     26  C   UNL     1       8.174   5.409  13.504  0.00  0.00    +0.000 C 
ENDBRANCH  17  18
ENDBRANCH   4  17
BRANCH   6  27
ATOM     27  C   UNL     1       2.938   4.055  17.959  0.00  0.00    +0.000 C 
BRANCH  27  28
ATOM     28  C   UNL     1       3.095   2.710  18.640  0.00  0.00    +0.000 C 
BRANCH  28  29
ATOM     29  O   UNL     1       2.529   1.710  17.781  0.00  0.00    +0.000 OA
ATOM     30  H   UNL     1       2.428   0.893  18.299  0.00  0.00    +0.000 HD
ENDBRANCH  28  29
ENDBRANCH  27  28
ENDBRANCH   6  27
TORSDOF 9
ENDMDL
MODEL 3
REMARK VINA RESULT:      -6.9      1.524      1.988
REMARK  Name = 
REMARK  10 active torsions:
REMARK  status: ('A' for Active; 'I' for Inactive)
REMARK    1  A    between atoms: C_1  and  C_2
REMARK    2  A    between atoms: C_2  and  O_3
REMARK    3  A    between atoms: O_3  and  C_4
REMARK    4  A    between atoms: C_7  and  C_8
REMARK    5  A    between atoms: C_8  and  N_9
REMARK    6  A    between atoms: N_12  and  C_13
REMARK    7  A    between atoms: C_13  and  C_14
REMARK    8  A    between atoms: C_24  and  C_25
REMARK    9  A    between atoms: C_25  and  C_26
REMARK   10  A    between atoms: C_26  and  O_27
REMARK                            x       y       z     vdW  Elec       q    Type
REMARK                         _______ _______ _______ _____ _____    ______ ____
ROOT
ATOM      1  N   UNL     1       1.831   6.337  19.122  0.00  0.00    +0.000 NA
ATOM      2  C   UNL     1       2.408   6.462  17.771  0.00  0.00    +0.000 C 
ATOM      3  C   UNL     1       3.917   6.155  17.649  0.00  0.00    +0.000 C 
ATOM      4  N   UNL     1       4.499   5.085  18.482  0.00  0.00    +0.000 NA
ATOM      5  C   UNL     1       3.750   4.786  19.715  0.00  0.00    +0.000 C 
ATOM      6  C   UNL     1       2.197   4.985  19.650  0.00  0.00    +0.000 C 
ENDROOT
BRANCH   1   7
ATOM      7  C   UNL     1       2.333   7.410  20.036  0.00  0.00    +0.000 C 
BRANCH   7  11
ATOM      8  C   UNL     1      -0.505  10.588  20.958  0.00  0.00    +0.000 A 
ATOM      9  C   UNL     1      -0.187   9.621  21.922  0.00  0.00    +0.000 A 
ATOM     10  C   UNL     1       0.746   8.609  21.656  0.00  0.00    +0.000 A 
ATOM     11  C   UNL     1       1.367   8.527  20.408  0.00  0.00    +0.000 A 
ATOM     12  C   UNL     1       1.089   9.541  19.466  0.00  0.00    +0.000 A 
ATOM     13  C   UNL     1       0.152  10.554  19.735  0.00  0.00    +0.000 A 
BRANCH   8  14
ATOM     14  O   UNL     1      -1.460  11.492  21.339  0.00  0.00    +0.000 OA
BRANCH  14  16
ATOM     15  C   UNL     1      -2.624  12.184  23.305  0.00  0.00    +0.000 C 
ATOM     16  C   UNL     1      -1.281  12.152  22.593  0.00  0.00    +0.000 C 
ENDBRANCH  14  16
ENDBRANCH   8  14
ENDBRANCH   7  11
ENDBRANCH   1   7
BRANCH   4  17
ATOM     17  C   UNL     1       4.893   3.881  17.733  0.00  0.00    +0.000 C 
BRANCH  17  18
ATOM     18  C   UNL     1       5.544   4.150  16.397  0.00  0.00    +0.000 A 
ATOM     19  N   UNL     1       5.087   3.671  15.253  0.00  0.00    +0.000 NA
ATOM     20  C   UNL     1       5.927   4.053  14.232  0.00  0.00    +0.000 A 
ATOM     21  C   UNL     1       6.988   4.852  14.604  0.00  0.00    +0.000 A 
ATOM     22  S   UNL     1       6.987   5.092  16.287  0.00  0.00    +0.000 S 
ATOM     23  C   UNL     1       8.036   5.377  13.686  0.00  0.00    +0.000 C 
ATOM     24  C   UNL     1       7.593   5.202  12.222  0.00  0.00    +0.000 C 
ATOM     25  C   UNL     1       6.953   3.824  11.971  0.00  0.00    +0.000 C 
ATOM     26  C   UNL     1       5.687   3.623  12.825  0.00  0.00    +0.000 C 
ENDBRANCH  17  18
ENDBRANCH   4  17
BRANCH   6  27
ATOM     27  C   UNL     1       1.635   3.777  18.847  0.00  0.00    +0.000 C 
BRANCH  27  28
ATOM     28  C   UNL     1       1.893   2.378  19.369  0.00  0.00    +0.000 C 
BRANCH  28  29
ATOM     29  O   UNL     1       2.245   1.548  18.252  0.00  0.00    +0.000 OA
ATOM     30  H   UNL     1       2.632   2.119  17.566  0.00  0.00    +0.000 HD
ENDBRANCH  28  29
ENDBRANCH  27  28
ENDBRANCH   6  27
TORSDOF 9
ENDMDL
MODEL 4
REMARK VINA RESULT:      -6.8      1.424      1.782
REMARK  Name = 
REMARK  10 active torsions:
REMARK  status: ('A' for Active; 'I' for Inactive)
REMARK    1  A    between atoms: C_1  and  C_2
REMARK    2  A    between atoms: C_2  and  O_3
REMARK    3  A    between atoms: O_3  and  C_4
REMARK    4  A    between atoms: C_7  and  C_8
REMARK    5  A    between atoms: C_8  and  N_9
REMARK    6  A    between atoms: N_12  and  C_13
REMARK    7  A    between atoms: C_13  and  C_14
REMARK    8  A    between atoms: C_24  and  C_25
REMARK    9  A    between atoms: C_25  and  C_26
REMARK   10  A    between atoms: C_26  and  O_27
REMARK                            x       y       z     vdW  Elec       q    Type
REMARK                         _______ _______ _______ _____ _____    ______ ____
ROOT
ATOM      1  N   UNL     1       1.905   6.548  18.968  0.00  0.00    +0.000 NA
ATOM      2  C   UNL     1       2.632   6.648  17.689  0.00  0.00    +0.000 C 
ATOM      3  C   UNL     1       4.136   6.294  17.737  0.00  0.00    +0.000 C 
ATOM      4  N   UNL     1       4.587   5.211  18.632  0.00  0.00    +0.000 NA
ATOM      5  C   UNL     1       3.696   4.942  19.774  0.00  0.00    +0.000 C 
ATOM      6  C   UNL     1       2.168   5.188  19.536  0.00  0.00    +0.000 C 
ENDROOT
BRANCH   1   7
ATOM      7  C   UNL     1       2.335   7.610  19.930  0.00  0.00    +0.000 C 
BRANCH   7  11
ATOM      8  C   UNL     1      -0.541  10.607  21.253  0.00  0.00    +0.000 A 
ATOM      9  C   UNL     1      -0.244  10.464  19.890  0.00  0.00    +0.000 A 
ATOM     10  C   UNL     1       0.655   9.486  19.441  0.00  0.00    +0.000 A 
ATOM     11  C   UNL     1       1.297   8.641  20.350  0.00  0.00    +0.000 A 
ATOM     12  C   UNL     1       0.944   8.751  21.713  0.00  0.00    +0.000 A 
ATOM     13  C   UNL     1       0.043   9.733  22.160  0.00  0.00    +0.000 A 
BRANCH   8  14
ATOM     14  O   UNL     1      -1.404  11.627  21.551  0.00  0.00    +0.000 OA
BRANCH  14  16
ATOM     15  C   UNL     1      -0.471  13.635  22.445  0.00  0.00    +0.000 C 
ATOM     16  C   UNL     1      -1.190  12.336  22.773  0.00  0.00    +0.000 C 
ENDBRANCH  14  16
ENDBRANCH   8  14
ENDBRANCH   7  11
ENDBRANCH   1   7
BRANCH   4  17
ATOM     17  C   UNL     1       5.025   3.991  17.934  0.00  0.00    +0.000 C 
BRANCH  17  18
ATOM     18  C   UNL     1       5.623   4.223  16.567  0.00  0.00    +0.000 A 
ATOM     19  N   UNL     1       5.074   3.786  15.447  0.00  0.00    +0.000 NA
ATOM     20  C   UNL     1       5.885   4.115  14.385  0.00  0.00    +0.000 A 
ATOM     21  C   UNL     1       7.017   4.833  14.703  0.00  0.00    +0.000 A 
ATOM     22  S   UNL     1       7.122   5.061  16.384  0.00  0.00    +0.000 S 
ATOM     23  C   UNL     1       8.052   5.289  13.733  0.00  0.00    +0.000 C 
ATOM     24  C   UNL     1       7.521   5.156  12.293  0.00  0.00    +0.000 C 
ATOM     25  C   UNL     1       6.773   3.829  12.072  0.00  0.00    +0.000 C 
ATOM     26  C   UNL     1       5.542   3.712  12.990  0.00  0.00    +0.000 C 
ENDBRANCH  17  18
ENDBRANCH   4  17
BRANCH   6  27
ATOM     27  C   UNL     1       1.661   3.994  18.678  0.00  0.00    +0.000 C 
BRANCH  27  28
ATOM     28  C   UNL     1       0.853   2.907  19.356  0.00  0.00    +0.000 C 
BRANCH  28  29
ATOM     29  O   UNL     1       0.634   3.303  20.718  0.00  0.00    +0.000 OA
ATOM     30  H   UNL     1       1.468   3.670  21.060  0.00  0.00    +0.000 HD
ENDBRANCH  28  29
ENDBRANCH  27  28
ENDBRANCH   6  27
TORSDOF 9
ENDMDL
MODEL 5
REMARK VINA RESULT:      -6.8      0.716      1.211
REMARK  Name = 
REMARK  10 active torsions:
REMARK  status: ('A' for Active; 'I' for Inactive)
REMARK    1  A    between atoms: C_1  and  C_2
REMARK    2  A    between atoms: C_2  and  O_3
REMARK    3  A    between atoms: O_3  and  C_4
REMARK    4  A    between atoms: C_7  and  C_8
REMARK    5  A    between atoms: C_8  and  N_9
REMARK    6  A    between atoms: N_12  and  C_13
REMARK    7  A    between atoms: C_13  and  C_14
REMARK    8  A    between atoms: C_24  and  C_25
REMARK    9  A    between atoms: C_25  and  C_26
REMARK   10  A    between atoms: C_26  and  O_27
REMARK                            x       y       z     vdW  Elec       q    Type
REMARK                         _______ _______ _______ _____ _____    ______ ____
ROOT
ATOM      1  N   UNL     1       2.128   5.674  19.262  0.00  0.00    +0.000 NA
ATOM      2  C   UNL     1       2.510   5.802  17.844  0.00  0.00    +0.000 C 
ATOM      3  C   UNL     1       4.026   5.775  17.546  0.00  0.00    +0.000 C 
ATOM      4  N   UNL     1       4.898   4.899  18.354  0.00  0.00    +0.000 NA
ATOM      5  C   UNL     1       4.368   4.561  19.686  0.00  0.00    +0.000 C 
ATOM      6  C   UNL     1       2.811   4.459  19.810  0.00  0.00    +0.000 C 
ENDROOT
BRANCH   1   7
ATOM      7  C   UNL     1       2.513   6.889  20.047  0.00  0.00    +0.000 C 
BRANCH   7  11
ATOM      8  C   UNL     1       0.122  10.453  19.280  0.00  0.00    +0.000 A 
ATOM      9  C   UNL     1       0.141   9.874  20.557  0.00  0.00    +0.000 A 
ATOM     10  C   UNL     1       0.927   8.746  20.833  0.00  0.00    +0.000 A 
ATOM     11  C   UNL     1       1.697   8.155  19.827  0.00  0.00    +0.000 A 
ATOM     12  C   UNL     1       1.720   8.782  18.562  0.00  0.00    +0.000 A 
ATOM     13  C   UNL     1       0.930   9.912  18.289  0.00  0.00    +0.000 A 
BRANCH   8  14
ATOM     14  O   UNL     1      -0.719  11.524  19.144  0.00  0.00    +0.000 OA
BRANCH  14  16
ATOM     15  C   UNL     1      -1.993  13.273  20.154  0.00  0.00    +0.000 C 
ATOM     16  C   UNL     1      -1.613  11.803  20.224  0.00  0.00    +0.000 C 
ENDBRANCH  14  16
ENDBRANCH   8  14
ENDBRANCH   7  11
ENDBRANCH   1   7
BRANCH   4  17
ATOM     17  C   UNL     1       5.432   3.737  17.625  0.00  0.00    +0.000 C 
BRANCH  17  18
ATOM     18  C   UNL     1       5.937   4.038  16.234  0.00  0.00    +0.000 A 
ATOM     19  N   UNL     1       5.433   3.494  15.141  0.00  0.00    +0.000 NA
ATOM     20  C   UNL     1       6.141   3.932  14.046  0.00  0.00    +0.000 A 
ATOM     21  C   UNL     1       7.148   4.835  14.314  0.00  0.00    +0.000 A 
ATOM     22  S   UNL     1       7.268   5.110  15.986  0.00  0.00    +0.000 S 
ATOM     23  C   UNL     1       8.059   5.437  13.301  0.00  0.00    +0.000 C 
ATOM     24  C   UNL     1       7.511   5.190  11.883  0.00  0.00    +0.000 C 
ATOM     25  C   UNL     1       6.988   3.753  11.708  0.00  0.00    +0.000 C 
ATOM     26  C   UNL     1       5.825   3.451  12.670  0.00  0.00    +0.000 C 
ENDBRANCH  17  18
ENDBRANCH   4  17
BRANCH   6  27
ATOM     27  C   UNL     1       2.407   3.110  19.150  0.00  0.00    +0.000 C 
BRANCH  27  28
ATOM     28  C   UNL     1       0.940   2.732  19.116  0.00  0.00    +0.000 C 
BRANCH  28  29
ATOM     29  O   UNL     1       0.331   3.210  20.324  0.00  0.00    +0.000 OA
ATOM     30  H   UNL     1       1.020   3.250  21.010  0.00  0.00    +0.000 HD
ENDBRANCH  28  29
ENDBRANCH  27  28
ENDBRANCH   6  27
TORSDOF 9
ENDMDL
MODEL 6
REMARK VINA RESULT:      -6.8      1.342      1.517
REMARK  Name = 
REMARK  10 active torsions:
REMARK  status: ('A' for Active; 'I' for Inactive)
REMARK    1  A    between atoms: C_1  and  C_2
REMARK    2  A    between atoms: C_2  and  O_3
REMARK    3  A    between atoms: O_3  and  C_4
REMARK    4  A    between atoms: C_7  and  C_8
REMARK    5  A    between atoms: C_8  and  N_9
REMARK    6  A    between atoms: N_12  and  C_13
REMARK    7  A    between atoms: C_13  and  C_14
REMARK    8  A    between atoms: C_24  and  C_25
REMARK    9  A    between atoms: C_25  and  C_26
REMARK   10  A    between atoms: C_26  and  O_27
REMARK                            x       y       z     vdW  Elec       q    Type
REMARK                         _______ _______ _______ _____ _____    ______ ____
ROOT
ATOM      1  N   UNL     1       2.207   6.675  18.399  0.00  0.00    +0.000 NA
ATOM      2  C   UNL     1       3.337   6.835  17.466  0.00  0.00    +0.000 C 
ATOM      3  C   UNL     1       4.725   6.421  18.006  0.00  0.00    +0.000 C 
ATOM      4  N   UNL     1       4.821   5.263  18.915  0.00  0.00    +0.000 NA
ATOM      5  C   UNL     1       3.585   4.951  19.651  0.00  0.00    +0.000 C 
ATOM      6  C   UNL     1       2.239   5.270  18.916  0.00  0.00    +0.000 C 
ENDROOT
BRANCH   1   7
ATOM      7  C   UNL     1       2.287   7.651  19.531  0.00  0.00    +0.000 C 
BRANCH   7  11
ATOM      8  C   UNL     1      -0.510  10.992  19.695  0.00  0.00    +0.000 A 
ATOM      9  C   UNL     1       0.038  10.587  18.469  0.00  0.00    +0.000 A 
ATOM     10  C   UNL     1       0.915   9.496  18.391  0.00  0.00    +0.000 A 
ATOM     11  C   UNL     1       1.284   8.797  19.543  0.00  0.00    +0.000 A 
ATOM     12  C   UNL     1       0.678   9.172  20.762  0.00  0.00    +0.000 A 
ATOM     13  C   UNL     1      -0.200  10.268  20.838  0.00  0.00    +0.000 A 
BRANCH   8  14
ATOM     14  O   UNL     1      -1.318  12.095  19.629  0.00  0.00    +0.000 OA
BRANCH  14  16
ATOM     15  C   UNL     1      -0.286  14.118  18.893  0.00  0.00    +0.000 C 
ATOM     16  C   UNL     1      -0.783  13.334  20.097  0.00  0.00    +0.000 C 
ENDBRANCH  14  16
ENDBRANCH   8  14
ENDBRANCH   7  11
ENDBRANCH   1   7
BRANCH   4  17
ATOM     17  C   UNL     1       5.462   4.079  18.320  0.00  0.00    +0.000 C 
BRANCH  17  18
ATOM     18  C   UNL     1       5.884   4.242  16.879  0.00  0.00    +0.000 A 
ATOM     19  N   UNL     1       5.178   3.792  15.857  0.00  0.00    +0.000 NA
ATOM     20  C   UNL     1       5.854   4.053  14.687  0.00  0.00    +0.000 A 
ATOM     21  C   UNL     1       7.044   4.735  14.830  0.00  0.00    +0.000 A 
ATOM     22  S   UNL     1       7.375   5.012  16.473  0.00  0.00    +0.000 S 
ATOM     23  C   UNL     1       7.959   5.117  13.718  0.00  0.00    +0.000 C 
ATOM     24  C   UNL     1       7.241   4.960  12.365  0.00  0.00    +0.000 C 
ATOM     25  C   UNL     1       6.422   3.658  12.292  0.00  0.00    +0.000 C 
ATOM     26  C   UNL     1       5.318   3.620  13.365  0.00  0.00    +0.000 C 
ENDBRANCH  17  18
ENDBRANCH   4  17
BRANCH   6  27
ATOM     27  C   UNL     1       2.050   4.159  17.846  0.00  0.00    +0.000 C 
BRANCH  27  28
ATOM     28  C   UNL     1       1.730   2.753  18.311  0.00  0.00    +0.000 C 
BRANCH  28  29
ATOM     29  O   UNL     1       2.544   1.841  17.559  0.00  0.00    +0.000 OA
ATOM     30  H   UNL     1       2.279   0.936  17.797  0.00  0.00    +0.000 HD
ENDBRANCH  28  29
ENDBRANCH  27  28
ENDBRANCH   6  27
TORSDOF 9
ENDMDL
MODEL 7
REMARK VINA RESULT:      -6.8      1.424      1.807
REMARK  Name = 
REMARK  10 active torsions:
REMARK  status: ('A' for Active; 'I' for Inactive)
REMARK    1  A    between atoms: C_1  and  C_2
REMARK    2  A    between atoms: C_2  and  O_3
REMARK    3  A    between atoms: O_3  and  C_4
REMARK    4  A    between atoms: C_7  and  C_8
REMARK    5  A    between atoms: C_8  and  N_9
REMARK    6  A    between atoms: N_12  and  C_13
REMARK    7  A    between atoms: C_13  and  C_14
REMARK    8  A    between atoms: C_24  and  C_25
REMARK    9  A    between atoms: C_25  and  C_26
REMARK   10  A    between atoms: C_26  and  O_27
REMARK                            x       y       z     vdW  Elec       q    Type
REMARK                         _______ _______ _______ _____ _____    ______ ____
ROOT
ATOM      1  N   UNL     1       2.750   6.411  18.322  0.00  0.00    +0.000 NA
ATOM      2  C   UNL     1       3.632   6.560  17.149  0.00  0.00    +0.000 C 
ATOM      3  C   UNL     1       5.150   6.557  17.440  0.00  0.00    +0.000 C 
ATOM      4  N   UNL     1       5.671   5.684  18.509  0.00  0.00    +0.000 NA
ATOM      5  C   UNL     1       4.689   5.323  19.545  0.00  0.00    +0.000 C 
ATOM      6  C   UNL     1       3.199   5.198  19.077  0.00  0.00    +0.000 C 
ENDROOT
BRANCH   1   7
ATOM      7  C   UNL     1       2.794   7.621  19.201  0.00  0.00    +0.000 C 
BRANCH   7  11
ATOM      8  C   UNL     1      -0.559  10.408  19.194  0.00  0.00    +0.000 A 
ATOM      9  C   UNL     1       0.042  10.020  17.988  0.00  0.00    +0.000 A 
ATOM     10  C   UNL     1       1.101   9.101  17.966  0.00  0.00    +0.000 A 
ATOM     11  C   UNL     1       1.601   8.566  19.156  0.00  0.00    +0.000 A 
ATOM     12  C   UNL     1       0.949   8.914  20.359  0.00  0.00    +0.000 A 
ATOM     13  C   UNL     1      -0.112   9.836  20.378  0.00  0.00    +0.000 A 
BRANCH   8  14
ATOM     14  O   UNL     1      -1.553  11.340  19.071  0.00  0.00    +0.000 OA
BRANCH  14  16
ATOM     15  C   UNL     1      -3.041  12.634  20.417  0.00  0.00    +0.000 C 
ATOM     16  C   UNL     1      -1.590  12.398  20.030  0.00  0.00    +0.000 C 
ENDBRANCH  14  16
ENDBRANCH   8  14
ENDBRANCH   7  11
ENDBRANCH   1   7
BRANCH   4  17
ATOM     17  C   UNL     1       6.458   4.539  18.025  0.00  0.00    +0.000 C 
BRANCH  17  18
ATOM     18  C   UNL     1       6.571   4.435  16.522  0.00  0.00    +0.000 A 
ATOM     19  N   UNL     1       7.501   5.053  15.816  0.00  0.00    +0.000 NA
ATOM     20  C   UNL     1       7.302   4.798  14.479  0.00  0.00    +0.000 A 
ATOM     21  C   UNL     1       6.250   3.956  14.186  0.00  0.00    +0.000 A 
ATOM     22  S   UNL     1       5.435   3.509  15.609  0.00  0.00    +0.000 S 
ATOM     23  C   UNL     1       5.828   3.546  12.818  0.00  0.00    +0.000 C 
ATOM     24  C   UNL     1       6.925   3.902  11.797  0.00  0.00    +0.000 C 
ATOM     25  C   UNL     1       7.514   5.302  12.046  0.00  0.00    +0.000 C 
ATOM     26  C   UNL     1       8.177   5.401  13.433  0.00  0.00    +0.000 C 
ENDBRANCH  17  18
ENDBRANCH   4  17
BRANCH   6  27
ATOM     27  C   UNL     1       3.094   3.852  18.306  0.00  0.00    +0.000 C 
BRANCH  27  28
ATOM     28  C   UNL     1       3.437   2.570  19.038  0.00  0.00    +0.000 C 
BRANCH  28  29
ATOM     29  O   UNL     1       2.908   1.473  18.279  0.00  0.00    +0.000 OA
ATOM     30  H   UNL     1       3.546   0.739  18.330  0.00  0.00    +0.000 HD
ENDBRANCH  28  29
ENDBRANCH  27  28
ENDBRANCH   6  27
TORSDOF 9
ENDMDL
MODEL 8
REMARK VINA RESULT:      -6.7      0.904      1.313
REMARK  Name = 
REMARK  10 active torsions:
REMARK  status: ('A' for Active; 'I' for Inactive)
REMARK    1  A    between atoms: C_1  and  C_2
REMARK    2  A    between atoms: C_2  and  O_3
REMARK    3  A    between atoms: O_3  and  C_4
REMARK    4  A    between atoms: C_7  and  C_8
REMARK    5  A    between atoms: C_8  and  N_9
REMARK    6  A    between atoms: N_12  and  C_13
REMARK    7  A    between atoms: C_13  and  C_14
REMARK    8  A    between atoms: C_24  and  C_25
REMARK    9  A    between atoms: C_25  and  C_26
REMARK   10  A    between atoms: C_26  and  O_27
REMARK                            x       y       z     vdW  Elec       q    Type
REMARK                         _______ _______ _______ _____ _____    ______ ____
ROOT
ATOM      1  N   UNL     1       2.295   6.531  18.433  0.00  0.00    +0.000 NA
ATOM      2  C   UNL     1       3.445   6.727  17.531  0.00  0.00    +0.000 C 
ATOM      3  C   UNL     1       4.812   6.238  18.061  0.00  0.00    +0.000 C 
ATOM      4  N   UNL     1       4.862   5.015  18.886  0.00  0.00    +0.000 NA
ATOM      5  C   UNL     1       3.605   4.684  19.578  0.00  0.00    +0.000 C 
ATOM      6  C   UNL     1       2.281   5.093  18.848  0.00  0.00    +0.000 C 
ENDROOT
BRANCH   1   7
ATOM      7  C   UNL     1       2.380   7.421  19.634  0.00  0.00    +0.000 C 
BRANCH   7  11
ATOM      8  C   UNL     1      -0.404  10.775  19.679  0.00  0.00    +0.000 A 
ATOM      9  C   UNL     1      -0.354   9.882  20.759  0.00  0.00    +0.000 A 
ATOM     10  C   UNL     1       0.555   8.815  20.778  0.00  0.00    +0.000 A 
ATOM     11  C   UNL     1       1.422   8.602  19.703  0.00  0.00    +0.000 A 
ATOM     12  C   UNL     1       1.408   9.543  18.650  0.00  0.00    +0.000 A 
ATOM     13  C   UNL     1       0.494  10.611  18.633  0.00  0.00    +0.000 A 
BRANCH   8  14
ATOM     14  O   UNL     1      -1.365  11.744  19.776  0.00  0.00    +0.000 OA
BRANCH  14  16
ATOM     15  C   UNL     1      -2.982  10.933  18.218  0.00  0.00    +0.000 C 
ATOM     16  C   UNL     1      -2.073  12.094  18.585  0.00  0.00    +0.000 C 
ENDBRANCH  14  16
ENDBRANCH   8  14
ENDBRANCH   7  11
ENDBRANCH   1   7
BRANCH   4  17
ATOM     17  C   UNL     1       5.482   3.859  18.217  0.00  0.00    +0.000 C 
BRANCH  17  18
ATOM     18  C   UNL     1       5.927   4.112  16.796  0.00  0.00    +0.000 A 
ATOM     19  N   UNL     1       5.286   3.650  15.737  0.00  0.00    +0.000 NA
ATOM     20  C   UNL     1       5.970   4.009  14.598  0.00  0.00    +0.000 A 
ATOM     21  C   UNL     1       7.098   4.775  14.801  0.00  0.00    +0.000 A 
ATOM     22  S   UNL     1       7.363   5.011  16.463  0.00  0.00    +0.000 S 
ATOM     23  C   UNL     1       8.008   5.271  13.731  0.00  0.00    +0.000 C 
ATOM     24  C   UNL     1       7.340   5.113  12.353  0.00  0.00    +0.000 C 
ATOM     25  C   UNL     1       6.629   3.755  12.207  0.00  0.00    +0.000 C 
ATOM     26  C   UNL     1       5.504   3.589  13.245  0.00  0.00    +0.000 C 
ENDBRANCH  17  18
ENDBRANCH   4  17
BRANCH   6  27
ATOM     27  C   UNL     1       2.082   4.066  17.696  0.00  0.00    +0.000 C 
BRANCH  27  28
ATOM     28  C   UNL     1       1.907   2.604  18.053  0.00  0.00    +0.000 C 
BRANCH  28  29
ATOM     29  O   UNL     1       0.732   2.485  18.868  0.00  0.00    +0.000 OA
ATOM     30  H   UNL     1       0.241   1.700  18.570  0.00  0.00    +0.000 HD
ENDBRANCH  28  29
ENDBRANCH  27  28
ENDBRANCH   6  27
TORSDOF 9
ENDMDL
MODEL 9
REMARK VINA RESULT:      -6.6      4.834     10.721
REMARK  Name = 
REMARK  10 active torsions:
REMARK  status: ('A' for Active; 'I' for Inactive)
REMARK    1  A    between atoms: C_1  and  C_2
REMARK    2  A    between atoms: C_2  and  O_3
REMARK    3  A    between atoms: O_3  and  C_4
REMARK    4  A    between atoms: C_7  and  C_8
REMARK    5  A    between atoms: C_8  and  N_9
REMARK    6  A    between atoms: N_12  and  C_13
REMARK    7  A    between atoms: C_13  and  C_14
REMARK    8  A    between atoms: C_24  and  C_25
REMARK    9  A    between atoms: C_25  and  C_26
REMARK   10  A    between atoms: C_26  and  O_27
REMARK                            x       y       z     vdW  Elec       q    Type
REMARK                         _______ _______ _______ _____ _____    ______ ____
ROOT
ATOM      1  N   UNL     1       1.098  10.095  20.145  0.00  0.00    +0.000 NA
ATOM      2  C   UNL     1       1.483  11.518  20.096  0.00  0.00    +0.000 C 
ATOM      3  C   UNL     1       0.546  12.445  19.288  0.00  0.00    +0.000 C 
ATOM      4  N   UNL     1      -0.907  12.189  19.312  0.00  0.00    +0.000 NA
ATOM      5  C   UNL     1      -1.285  10.801  19.631  0.00  0.00    +0.000 C 
ATOM      6  C   UNL     1      -0.328  10.025  20.598  0.00  0.00    +0.000 C 
ENDROOT
BRANCH   1   7
ATOM      7  C   UNL     1       1.256   9.436  18.811  0.00  0.00    +0.000 C 
BRANCH   7  11
ATOM      8  C   UNL     1       3.632   5.784  18.655  0.00  0.00    +0.000 A 
ATOM      9  C   UNL     1       3.742   6.744  17.639  0.00  0.00    +0.000 A 
ATOM     10  C   UNL     1       3.010   7.939  17.686  0.00  0.00    +0.000 A 
ATOM     11  C   UNL     1       2.130   8.191  18.742  0.00  0.00    +0.000 A 
ATOM     12  C   UNL     1       2.074   7.247  19.791  0.00  0.00    +0.000 A 
ATOM     13  C   UNL     1       2.808   6.049  19.740  0.00  0.00    +0.000 A 
BRANCH   8  14
ATOM     14  O   UNL     1       4.373   4.650  18.460  0.00  0.00    +0.000 OA
BRANCH  14  16
ATOM     15  C   UNL     1       2.800   3.207  17.389  0.00  0.00    +0.000 C 
ATOM     16  C   UNL     1       3.706   3.393  18.595  0.00  0.00    +0.000 C 
ENDBRANCH  14  16
ENDBRANCH   8  14
ENDBRANCH   7  11
ENDBRANCH   1   7
BRANCH   4  17
ATOM     17  C   UNL     1      -1.686  13.192  20.057  0.00  0.00    +0.000 C 
BRANCH  17  18
ATOM     18  C   UNL     1      -3.143  12.847  20.252  0.00  0.00    +0.000 A 
ATOM     19  N   UNL     1      -3.934  12.439  19.275  0.00  0.00    +0.000 NA
ATOM     20  C   UNL     1      -5.206  12.256  19.765  0.00  0.00    +0.000 A 
ATOM     21  C   UNL     1      -5.360  12.487  21.115  0.00  0.00    +0.000 A 
ATOM     22  S   UNL     1      -3.894  13.008  21.798  0.00  0.00    +0.000 S 
ATOM     23  C   UNL     1      -6.639  12.372  21.870  0.00  0.00    +0.000 C 
ATOM     24  C   UNL     1      -7.689  11.631  21.022  0.00  0.00    +0.000 C 
ATOM     25  C   UNL     1      -7.686  12.101  19.557  0.00  0.00    +0.000 C 
ATOM     26  C   UNL     1      -6.330  11.837  18.878  0.00  0.00    +0.000 C 
ENDBRANCH  17  18
ENDBRANCH   4  17
BRANCH   6  27
ATOM     27  C   UNL     1      -0.605  10.578  22.024  0.00  0.00    +0.000 C 
BRANCH  27  28
ATOM     28  C   UNL     1      -0.209   9.733  23.218  0.00  0.00    +0.000 C 
BRANCH  28  29
ATOM     29  O   UNL     1       1.200   9.476  23.130  0.00  0.00    +0.000 OA
ATOM     30  H   UNL     1       1.599  10.182  22.592  0.00  0.00    +0.000 HD
ENDBRANCH  28  29
ENDBRANCH  27  28
ENDBRANCH   6  27
TORSDOF 9
ENDMDL
