MODEL 1
REMARK VINA RESULT:      -7.1      0.000      0.000
REMARK  Name = 
REMARK  17 active torsions:
REMARK  status: ('A' for Active; 'I' for Inactive)
REMARK    1  A    between atoms: C_1  and  C_2
REMARK    2  A    between atoms: C_2  and  C_3
REMARK    3  A    between atoms: C_3  and  C_4
REMARK    4  A    between atoms: C_4  and  C_5
REMARK    5  A    between atoms: C_5  and  C_6
REMARK    6  A    between atoms: C_6  and  C_7
REMARK    7  A    between atoms: C_7  and  C_8
REMARK    8  A    between atoms: C_8  and  O_9
REMARK    9  A    between atoms: O_9  and  C_10
REMARK   10  A    between atoms: C_12  and  O_13
REMARK   11  A    between atoms: C_14  and  C_15
REMARK   12  A    between atoms: C_15  and  O_16
REMARK   13  A    between atoms: O_16  and  C_17
REMARK   14  A    between atoms: C_19  and  C_20
REMARK   15  A    between atoms: C_20  and  O_21
REMARK   16  A    between atoms: C_22  and  O_23
REMARK   17  A    between atoms: C_24  and  O_25
REMARK                            x       y       z     vdW  Elec       q    Type
REMARK                         _______ _______ _______ _____ _____    ______ ____
ROOT
ATOM      1  C   UNL     1       5.420   5.627  16.170  0.00  0.00    +0.000 C 
ATOM      2  C   UNL     1       5.563   6.967  16.875  0.00  0.00    +0.000 C 
ATOM      3  C   UNL     1       6.915   6.869  17.546  0.00  0.00    +0.000 C 
ATOM      4  C   UNL     1       7.068   5.381  17.823  0.00  0.00    +0.000 C 
ATOM      5  O   UNL     1       6.243   4.689  16.866  0.00  0.00    +0.000 OA
ENDROOT
BRANCH   3   6
ATOM      6  O   UNL     1       7.941   7.328  16.666  0.00  0.00    +0.000 OA
ATOM      7  H   UNL     1       8.688   6.702  16.724  0.00  0.00    +0.000 HD
ENDBRANCH   3   6
BRANCH   1   8
ATOM      8  O   UNL     1       5.852   5.738  14.819  0.00  0.00    +0.000 OA
BRANCH   8   9
ATOM      9  C   UNL     1       6.691   4.637  14.453  0.00  0.00    +0.000 C 
BRANCH   9  10
ATOM     10  C   UNL     1       7.447   4.975  13.175  0.00  0.00    +0.000 C 
BRANCH  10  11
ATOM     11  C   UNL     1       6.985   4.093  12.015  0.00  0.00    +0.000 C 
BRANCH  11  12
ATOM     12  C   UNL     1       6.114   2.939  12.494  0.00  0.00    +0.000 C 
BRANCH  12  13
ATOM     13  C   UNL     1       5.090   2.568  11.423  0.00  0.00    +0.000 C 
BRANCH  13  14
ATOM     14  C   UNL     1       4.173   3.748  11.111  0.00  0.00    +0.000 C 
BRANCH  14  16
ATOM     15  C   UNL     1       2.616   4.583   9.332  0.00  0.00    +0.000 C 
ATOM     16  C   UNL     1       3.107   3.363  10.089  0.00  0.00    +0.000 C 
ENDBRANCH  14  16
ENDBRANCH  13  14
ENDBRANCH  12  13
ENDBRANCH  11  12
ENDBRANCH  10  11
ENDBRANCH   9  10
ENDBRANCH   8   9
ENDBRANCH   1   8
BRANCH   4  17
ATOM     17  C   UNL     1       6.575   4.986  19.220  0.00  0.00    +0.000 C 
BRANCH  17  18
ATOM     18  O   UNL     1       5.687   3.875  19.068  0.00  0.00    +0.000 OA
BRANCH  18  19
ATOM     19  C   UNL     1       4.491   4.005  19.815  0.00  0.00    +0.000 C 
ATOM     20  O   UNL     1       3.461   4.647  19.044  0.00  0.00    +0.000 OA
ATOM     21  C   UNL     1       2.821   3.620  18.235  0.00  0.00    +0.000 C 
ATOM     22  C   UNL     1       3.313   2.262  18.748  0.00  0.00    +0.000 C 
ATOM     23  C   UNL     1       3.937   2.605  20.098  0.00  0.00    +0.000 C 
BRANCH  23  24
ATOM     24  O   UNL     1       2.942   2.619  21.125  0.00  0.00    +0.000 OA
ATOM     25  H   UNL     1       3.203   3.270  21.801  0.00  0.00    +0.000 HD
ENDBRANCH  23  24
BRANCH  22  26
ATOM     26  O   UNL     1       4.296   1.726  17.851  0.00  0.00    +0.000 OA
ATOM     27  H   UNL     1       4.878   1.123  18.362  0.00  0.00    +0.000 HD
ENDBRANCH  22  26
BRANCH  21  28
ATOM     28  C   UNL     1       1.308   3.800  18.376  0.00  0.00    +0.000 C 
BRANCH  28  29
ATOM     29  O   UNL     1       0.756   4.277  17.149  0.00  0.00    +0.000 OA
ATOM     30  H   UNL     1       1.340   5.000  16.851  0.00  0.00    +0.000 HD
ENDBRANCH  28  29
ENDBRANCH  21  28
ENDBRANCH  18  19
ENDBRANCH  17  18
ENDBRANCH   4  17
TORSDOF 16
ENDMDL
MODEL 2
REMARK VINA RESULT:      -6.8      3.473      6.852
REMARK  Name = 
REMARK  17 active torsions:
REMARK  status: ('A' for Active; 'I' for Inactive)
REMARK    1  A    between atoms: C_1  and  C_2
REMARK    2  A    between atoms: C_2  and  C_3
REMARK    3  A    between atoms: C_3  and  C_4
REMARK    4  A    between atoms: C_4  and  C_5
REMARK    5  A    between atoms: C_5  and  C_6
REMARK    6  A    between atoms: C_6  and  C_7
REMARK    7  A    between atoms: C_7  and  C_8
REMARK    8  A    between atoms: C_8  and  O_9
REMARK    9  A    between atoms: O_9  and  C_10
REMARK   10  A    between atoms: C_12  and  O_13
REMARK   11  A    between atoms: C_14  and  C_15
REMARK   12  A    between atoms: C_15  and  O_16
REMARK   13  A    between atoms: O_16  and  C_17
REMARK   14  A    between atoms: C_19  and  C_20
REMARK   15  A    between atoms: C_20  and  O_21
REMARK   16  A    between atoms: C_22  and  O_23
REMARK   17  A    between atoms: C_24  and  O_25
REMARK                            x       y       z     vdW  Elec       q    Type
REMARK                         _______ _______ _______ _____ _____    ______ ____
ROOT
ATOM      1  C   UNL     1       6.299   6.667  17.399  0.00  0.00    +0.000 C 
ATOM      2  C   UNL     1       7.261   5.498  17.256  0.00  0.00    +0.000 C 
ATOM      3  C   UNL     1       6.971   4.971  15.869  0.00  0.00    +0.000 C 
ATOM      4  C   UNL     1       5.503   5.307  15.659  0.00  0.00    +0.000 C 
ATOM      5  O   UNL     1       5.203   6.428  16.514  0.00  0.00    +0.000 OA
ENDROOT
BRANCH   3   6
ATOM      6  O   UNL     1       7.787   5.637  14.904  0.00  0.00    +0.000 OA
ATOM      7  H   UNL     1       7.217   5.885  14.150  0.00  0.00    +0.000 HD
ENDBRANCH   3   6
BRANCH   1   8
ATOM      8  O   UNL     1       6.951   7.881  17.043  0.00  0.00    +0.000 OA
BRANCH   8   9
ATOM      9  C   UNL     1       8.113   8.098  17.850  0.00  0.00    +0.000 C 
BRANCH   9  10
ATOM     10  C   UNL     1       8.307   9.592  18.074  0.00  0.00    +0.000 C 
BRANCH  10  11
ATOM     11  C   UNL     1       9.358   9.853  19.152  0.00  0.00    +0.000 C 
BRANCH  11  12
ATOM     12  C   UNL     1       9.310  11.291  19.653  0.00  0.00    +0.000 C 
BRANCH  12  13
ATOM     13  C   UNL     1      10.725  11.847  19.803  0.00  0.00    +0.000 C 
BRANCH  13  14
ATOM     14  C   UNL     1      10.842  13.227  19.161  0.00  0.00    +0.000 C 
BRANCH  14  16
ATOM     15  C   UNL     1      11.462  13.230  16.731  0.00  0.00    +0.000 C 
ATOM     16  C   UNL     1      10.317  13.215  17.728  0.00  0.00    +0.000 C 
ENDBRANCH  14  16
ENDBRANCH  13  14
ENDBRANCH  12  13
ENDBRANCH  11  12
ENDBRANCH  10  11
ENDBRANCH   9  10
ENDBRANCH   8   9
ENDBRANCH   1   8
BRANCH   4  17
ATOM     17  C   UNL     1       4.570   4.162  16.065  0.00  0.00    +0.000 C 
BRANCH  17  18
ATOM     18  O   UNL     1       4.038   4.473  17.357  0.00  0.00    +0.000 OA
BRANCH  18  19
ATOM     19  C   UNL     1       4.314   3.483  18.332  0.00  0.00    +0.000 C 
ATOM     20  O   UNL     1       3.880   3.900  19.637  0.00  0.00    +0.000 OA
ATOM     21  C   UNL     1       2.463   3.584  19.746  0.00  0.00    +0.000 C 
ATOM     22  C   UNL     1       2.102   2.694  18.551  0.00  0.00    +0.000 C 
ATOM     23  C   UNL     1       3.464   2.246  18.026  0.00  0.00    +0.000 C 
BRANCH  23  24
ATOM     24  O   UNL     1       3.923   1.091  18.733  0.00  0.00    +0.000 OA
ATOM     25  H   UNL     1       3.322   0.926  19.481  0.00  0.00    +0.000 HD
ENDBRANCH  23  24
BRANCH  22  26
ATOM     26  O   UNL     1       1.399   3.460  17.563  0.00  0.00    +0.000 OA
ATOM     27  H   UNL     1       2.053   4.020  17.090  0.00  0.00    +0.000 HD
ENDBRANCH  22  26
BRANCH  21  28
ATOM     28  C   UNL     1       2.247   2.893  21.093  0.00  0.00    +0.000 C 
BRANCH  28  29
ATOM     29  O   UNL     1       0.850   2.741  21.346  0.00  0.00    +0.000 OA
ATOM     30  H   UNL     1       0.681   1.781  21.371  0.00  0.00    +0.000 HD
ENDBRANCH  28  29
ENDBRANCH  21  28
ENDBRANCH  18  19
ENDBRANCH  17  18
ENDBRANCH   4  17
TORSDOF 16
ENDMDL
MODEL 3
REMARK VINA RESULT:      -6.5      3.740      7.247
REMARK  Name = 
REMARK  17 active torsions:
REMARK  status: ('A' for Active; 'I' for Inactive)
REMARK    1  A    between atoms: C_1  and  C_2
REMARK    2  A    between atoms: C_2  and  C_3
REMARK    3  A    between atoms: C_3  and  C_4
REMARK    4  A    between atoms: C_4  and  C_5
REMARK    5  A    between atoms: C_5  and  C_6
REMARK    6  A    between atoms: C_6  and  C_7
REMARK    7  A    between atoms: C_7  and  C_8
REMARK    8  A    between atoms: C_8  and  O_9
REMARK    9  A    between atoms: O_9  and  C_10
REMARK   10  A    between atoms: C_12  and  O_13
REMARK   11  A    between atoms: C_14  and  C_15
REMARK   12  A    between atoms: C_15  and  O_16
REMARK   13  A    between atoms: O_16  and  C_17
REMARK   14  A    between atoms: C_19  and  C_20
REMARK   15  A    between atoms: C_20  and  O_21
REMARK   16  A    between atoms: C_22  and  O_23
REMARK   17  A    between atoms: C_24  and  O_25
REMARK                            x       y       z     vdW  Elec       q    Type
REMARK                         _______ _______ _______ _____ _____    ______ ____
ROOT
ATOM      1  C   UNL     1       6.971   6.720  17.887  0.00  0.00    +0.000 C 
ATOM      2  C   UNL     1       7.407   5.266  17.793  0.00  0.00    +0.000 C 
ATOM      3  C   UNL     1       6.642   4.746  16.597  0.00  0.00    +0.000 C 
ATOM      4  C   UNL     1       5.375   5.588  16.591  0.00  0.00    +0.000 C 
ATOM      5  O   UNL     1       5.689   6.822  17.267  0.00  0.00    +0.000 OA
ENDROOT
BRANCH   3   6
ATOM      6  O   UNL     1       7.391   4.950  15.399  0.00  0.00    +0.000 OA
ATOM      7  H   UNL     1       8.298   4.621  15.553  0.00  0.00    +0.000 HD
ENDBRANCH   3   6
BRANCH   1   8
ATOM      8  O   UNL     1       7.904   7.553  17.207  0.00  0.00    +0.000 OA
BRANCH   8   9
ATOM      9  C   UNL     1       7.722   8.928  17.563  0.00  0.00    +0.000 C 
BRANCH   9  10
ATOM     10  C   UNL     1       8.785   9.338  18.574  0.00  0.00    +0.000 C 
BRANCH  10  11
ATOM     11  C   UNL     1       9.173  10.806  18.396  0.00  0.00    +0.000 C 
BRANCH  11  12
ATOM     12  C   UNL     1      10.436  11.155  19.175  0.00  0.00    +0.000 C 
BRANCH  12  13
ATOM     13  C   UNL     1      10.080  11.567  20.602  0.00  0.00    +0.000 C 
BRANCH  13  14
ATOM     14  C   UNL     1      10.238  13.074  20.792  0.00  0.00    +0.000 C 
BRANCH  14  16
ATOM     15  C   UNL     1      11.065  14.858  19.237  0.00  0.00    +0.000 C 
ATOM     16  C   UNL     1      11.435  13.606  20.010  0.00  0.00    +0.000 C 
ENDBRANCH  14  16
ENDBRANCH  13  14
ENDBRANCH  12  13
ENDBRANCH  11  12
ENDBRANCH  10  11
ENDBRANCH   9  10
ENDBRANCH   8   9
ENDBRANCH   1   8
BRANCH   4  17
ATOM     17  C   UNL     1       4.223   4.929  17.357  0.00  0.00    +0.000 C 
BRANCH  17  18
ATOM     18  O   UNL     1       4.697   3.677  17.860  0.00  0.00    +0.000 OA
BRANCH  18  19
ATOM     19  C   UNL     1       4.645   3.583  19.273  0.00  0.00    +0.000 C 
ATOM     20  O   UNL     1       3.456   4.199  19.794  0.00  0.00    +0.000 OA
ATOM     21  C   UNL     1       2.385   3.217  19.709  0.00  0.00    +0.000 C 
ATOM     22  C   UNL     1       3.030   1.867  19.372  0.00  0.00    +0.000 C 
ATOM     23  C   UNL     1       4.509   2.107  19.659  0.00  0.00    +0.000 C 
BRANCH  23  24
ATOM     24  O   UNL     1       4.797   1.887  21.043  0.00  0.00    +0.000 OA
ATOM     25  H   UNL     1       4.843   0.927  21.201  0.00  0.00    +0.000 HD
ENDBRANCH  23  24
BRANCH  22  26
ATOM     26  O   UNL     1       2.821   1.556  17.987  0.00  0.00    +0.000 OA
ATOM     27  H   UNL     1       2.922   2.385  17.471  0.00  0.00    +0.000 HD
ENDBRANCH  22  26
BRANCH  21  28
ATOM     28  C   UNL     1       1.657   3.212  21.054  0.00  0.00    +0.000 C 
BRANCH  28  29
ATOM     29  O   UNL     1       2.579   2.938  22.108  0.00  0.00    +0.000 OA
ATOM     30  H   UNL     1       2.083   2.435  22.781  0.00  0.00    +0.000 HD
ENDBRANCH  28  29
ENDBRANCH  21  28
ENDBRANCH  18  19
ENDBRANCH  17  18
ENDBRANCH   4  17
TORSDOF 16
ENDMDL
MODEL 4
REMARK VINA RESULT:      -6.5      3.479      6.785
REMARK  Name = 
REMARK  17 active torsions:
REMARK  status: ('A' for Active; 'I' for Inactive)
REMARK    1  A    between atoms: C_1  and  C_2
REMARK    2  A    between atoms: C_2  and  C_3
REMARK    3  A    between atoms: C_3  and  C_4
REMARK    4  A    between atoms: C_4  and  C_5
REMARK    5  A    between atoms: C_5  and  C_6
REMARK    6  A    between atoms: C_6  and  C_7
REMARK    7  A    between atoms: C_7  and  C_8
REMARK    8  A    between atoms: C_8  and  O_9
REMARK    9  A    between atoms: O_9  and  C_10
REMARK   10  A    between atoms: C_12  and  O_13
REMARK   11  A    between atoms: C_14  and  C_15
REMARK   12  A    between atoms: C_15  and  O_16
REMARK   13  A    between atoms: O_16  and  C_17
REMARK   14  A    between atoms: C_19  and  C_20
REMARK   15  A    between atoms: C_20  and  O_21
REMARK   16  A    between atoms: C_22  and  O_23
REMARK   17  A    between atoms: C_24  and  O_25
REMARK                            x       y       z     vdW  Elec       q    Type
REMARK                         _______ _______ _______ _____ _____    ______ ____
ROOT
ATOM      1  C   UNL     1       6.767   6.617  17.247  0.00  0.00    +0.000 C 
ATOM      2  C   UNL     1       7.502   5.296  17.075  0.00  0.00    +0.000 C 
ATOM      3  C   UNL     1       7.000   4.784  15.744  0.00  0.00    +0.000 C 
ATOM      4  C   UNL     1       5.596   5.360  15.648  0.00  0.00    +0.000 C 
ATOM      5  O   UNL     1       5.569   6.542  16.472  0.00  0.00    +0.000 OA
ENDROOT
BRANCH   3   6
ATOM      6  O   UNL     1       7.821   5.271  14.682  0.00  0.00    +0.000 OA
ATOM      7  H   UNL     1       8.740   4.993  14.862  0.00  0.00    +0.000 HD
ENDBRANCH   3   6
BRANCH   1   8
ATOM      8  O   UNL     1       7.578   7.690  16.779  0.00  0.00    +0.000 OA
BRANCH   8   9
ATOM      9  C   UNL     1       7.558   8.789  17.696  0.00  0.00    +0.000 C 
BRANCH   9  10
ATOM     10  C   UNL     1       8.795   8.736  18.583  0.00  0.00    +0.000 C 
BRANCH  10  11
ATOM     11  C   UNL     1       9.048  10.087  19.251  0.00  0.00    +0.000 C 
BRANCH  11  12
ATOM     12  C   UNL     1       9.214  11.203  18.227  0.00  0.00    +0.000 C 
BRANCH  12  13
ATOM     13  C   UNL     1      10.694  11.414  17.911  0.00  0.00    +0.000 C 
BRANCH  13  14
ATOM     14  C   UNL     1      10.912  12.730  17.169  0.00  0.00    +0.000 C 
BRANCH  14  16
ATOM     15  C   UNL     1      11.115  14.387  19.040  0.00  0.00    +0.000 C 
ATOM     16  C   UNL     1      10.245  13.893  17.898  0.00  0.00    +0.000 C 
ENDBRANCH  14  16
ENDBRANCH  13  14
ENDBRANCH  12  13
ENDBRANCH  11  12
ENDBRANCH  10  11
ENDBRANCH   9  10
ENDBRANCH   8   9
ENDBRANCH   1   8
BRANCH   4  17
ATOM     17  C   UNL     1       4.526   4.405  16.186  0.00  0.00    +0.000 C 
BRANCH  17  18
ATOM     18  O   UNL     1       3.963   5.000  17.359  0.00  0.00    +0.000 OA
BRANCH  18  19
ATOM     19  C   UNL     1       4.266   4.293  18.549  0.00  0.00    +0.000 C 
ATOM     20  O   UNL     1       3.558   4.840  19.675  0.00  0.00    +0.000 OA
ATOM     21  C   UNL     1       2.229   4.245  19.683  0.00  0.00    +0.000 C 
ATOM     22  C   UNL     1       2.239   3.092  18.673  0.00  0.00    +0.000 C 
ATOM     23  C   UNL     1       3.727   2.865  18.418  0.00  0.00    +0.000 C 
BRANCH  23  24
ATOM     24  O   UNL     1       4.281   1.991  19.406  0.00  0.00    +0.000 OA
ATOM     25  H   UNL     1       5.035   1.517  19.013  0.00  0.00    +0.000 HD
ENDBRANCH  23  24
BRANCH  22  26
ATOM     26  O   UNL     1       1.568   3.488  17.469  0.00  0.00    +0.000 OA
ATOM     27  H   UNL     1       1.053   4.302  17.661  0.00  0.00    +0.000 HD
ENDBRANCH  22  26
BRANCH  21  28
ATOM     28  C   UNL     1       1.938   3.785  21.112  0.00  0.00    +0.000 C 
BRANCH  28  29
ATOM     29  O   UNL     1       0.830   2.886  21.120  0.00  0.00    +0.000 OA
ATOM     30  H   UNL     1       1.059   2.177  21.750  0.00  0.00    +0.000 HD
ENDBRANCH  28  29
ENDBRANCH  21  28
ENDBRANCH  18  19
ENDBRANCH  17  18
ENDBRANCH   4  17
TORSDOF 16
ENDMDL
MODEL 5
REMARK VINA RESULT:      -6.5      1.461      2.368
REMARK  Name = 
REMARK  17 active torsions:
REMARK  status: ('A' for Active; 'I' for Inactive)
REMARK    1  A    between atoms: C_1  and  C_2
REMARK    2  A    between atoms: C_2  and  C_3
REMARK    3  A    between atoms: C_3  and  C_4
REMARK    4  A    between atoms: C_4  and  C_5
REMARK    5  A    between atoms: C_5  and  C_6
REMARK    6  A    between atoms: C_6  and  C_7
REMARK    7  A    between atoms: C_7  and  C_8
REMARK    8  A    between atoms: C_8  and  O_9
REMARK    9  A    between atoms: O_9  and  C_10
REMARK   10  A    between atoms: C_12  and  O_13
REMARK   11  A    between atoms: C_14  and  C_15
REMARK   12  A    between atoms: C_15  and  O_16
REMARK   13  A    between atoms: O_16  and  C_17
REMARK   14  A    between atoms: C_19  and  C_20
REMARK   15  A    between atoms: C_20  and  O_21
REMARK   16  A    between atoms: C_22  and  O_23
REMARK   17  A    between atoms: C_24  and  O_25
REMARK                            x       y       z     vdW  Elec       q    Type
REMARK                         _______ _______ _______ _____ _____    ______ ____
ROOT
ATOM      1  C   UNL     1       6.064   5.167  15.843  0.00  0.00    +0.000 C 
ATOM      2  C   UNL     1       7.251   5.853  16.501  0.00  0.00    +0.000 C 
ATOM      3  C   UNL     1       7.438   5.077  17.785  0.00  0.00    +0.000 C 
ATOM      4  C   UNL     1       6.034   4.597  18.120  0.00  0.00    +0.000 C 
ATOM      5  O   UNL     1       5.302   4.545  16.880  0.00  0.00    +0.000 OA
ENDROOT
BRANCH   3   6
ATOM      6  O   UNL     1       8.315   3.970  17.575  0.00  0.00    +0.000 OA
ATOM      7  H   UNL     1       8.824   4.142  16.759  0.00  0.00    +0.000 HD
ENDBRANCH   3   6
BRANCH   1   8
ATOM      8  O   UNL     1       6.519   4.182  14.922  0.00  0.00    +0.000 OA
BRANCH   8   9
ATOM      9  C   UNL     1       7.228   4.783  13.833  0.00  0.00    +0.000 C 
BRANCH   9  10
ATOM     10  C   UNL     1       6.800   4.133  12.524  0.00  0.00    +0.000 C 
BRANCH  10  11
ATOM     11  C   UNL     1       5.586   3.229  12.733  0.00  0.00    +0.000 C 
BRANCH  11  12
ATOM     12  C   UNL     1       4.941   2.833  11.410  0.00  0.00    +0.000 C 
BRANCH  12  13
ATOM     13  C   UNL     1       3.697   3.681  11.152  0.00  0.00    +0.000 C 
BRANCH  13  14
ATOM     14  C   UNL     1       3.017   3.274   9.848  0.00  0.00    +0.000 C 
BRANCH  14  16
ATOM     15  C   UNL     1       1.855   5.276   8.886  0.00  0.00    +0.000 C 
ATOM     16  C   UNL     1       3.088   4.394   8.815  0.00  0.00    +0.000 C 
ENDBRANCH  14  16
ENDBRANCH  13  14
ENDBRANCH  12  13
ENDBRANCH  11  12
ENDBRANCH  10  11
ENDBRANCH   9  10
ENDBRANCH   8   9
ENDBRANCH   1   8
BRANCH   4  17
ATOM     17  C   UNL     1       5.287   5.558  19.050  0.00  0.00    +0.000 C 
BRANCH  17  18
ATOM     18  O   UNL     1       4.291   4.802  19.745  0.00  0.00    +0.000 OA
BRANCH  18  19
ATOM     19  C   UNL     1       3.436   4.072  18.883  0.00  0.00    +0.000 C 
ATOM     20  O   UNL     1       2.954   2.875  19.516  0.00  0.00    +0.000 OA
ATOM     21  C   UNL     1       1.797   3.243  20.319  0.00  0.00    +0.000 C 
ATOM     22  C   UNL     1       1.412   4.676  19.932  0.00  0.00    +0.000 C 
ATOM     23  C   UNL     1       2.174   4.903  18.629  0.00  0.00    +0.000 C 
BRANCH  23  24
ATOM     24  O   UNL     1       1.425   4.412  17.514  0.00  0.00    +0.000 OA
ATOM     25  H   UNL     1       1.620   4.969  16.740  0.00  0.00    +0.000 HD
ENDBRANCH  23  24
BRANCH  22  26
ATOM     26  O   UNL     1       1.848   5.592  20.946  0.00  0.00    +0.000 OA
ATOM     27  H   UNL     1       2.261   6.364  20.502  0.00  0.00    +0.000 HD
ENDBRANCH  22  26
BRANCH  21  28
ATOM     28  C   UNL     1       0.691   2.228  20.027  0.00  0.00    +0.000 C 
BRANCH  28  29
ATOM     29  O   UNL     1       0.793   1.769  18.679  0.00  0.00    +0.000 OA
ATOM     30  H   UNL     1      -0.076   1.938  18.267  0.00  0.00    +0.000 HD
ENDBRANCH  28  29
ENDBRANCH  21  28
ENDBRANCH  18  19
ENDBRANCH  17  18
ENDBRANCH   4  17
TORSDOF 16
ENDMDL
MODEL 6
REMARK VINA RESULT:      -6.5      3.629      6.999
REMARK  Name = 
REMARK  17 active torsions:
REMARK  status: ('A' for Active; 'I' for Inactive)
REMARK    1  A    between atoms: C_1  and  C_2
REMARK    2  A    between atoms: C_2  and  C_3
REMARK    3  A    between atoms: C_3  and  C_4
REMARK    4  A    between atoms: C_4  and  C_5
REMARK    5  A    between atoms: C_5  and  C_6
REMARK    6  A    between atoms: C_6  and  C_7
REMARK    7  A    between atoms: C_7  and  C_8
REMARK    8  A    between atoms: C_8  and  O_9
REMARK    9  A    between atoms: O_9  and  C_10
REMARK   10  A    between atoms: C_12  and  O_13
REMARK   11  A    between atoms: C_14  and  C_15
REMARK   12  A    between atoms: C_15  and  O_16
REMARK   13  A    between atoms: O_16  and  C_17
REMARK   14  A    between atoms: C_19  and  C_20
REMARK   15  A    between atoms: C_20  and  O_21
REMARK   16  A    between atoms: C_22  and  O_23
REMARK   17  A    between atoms: C_24  and  O_25
REMARK                            x       y       z     vdW  Elec       q    Type
REMARK                         _______ _______ _______ _____ _____    ______ ____
ROOT
ATOM      1  C   UNL     1       6.432   6.849  17.186  0.00  0.00    +0.000 C 
ATOM      2  C   UNL     1       6.561   5.770  18.251  0.00  0.00    +0.000 C 
ATOM      3  C   UNL     1       6.732   4.501  17.448  0.00  0.00    +0.000 C 
ATOM      4  C   UNL     1       5.972   4.788  16.162  0.00  0.00    +0.000 C 
ATOM      5  O   UNL     1       5.950   6.219  15.998  0.00  0.00    +0.000 OA
ENDROOT
BRANCH   3   6
ATOM      6  O   UNL     1       8.115   4.266  17.177  0.00  0.00    +0.000 OA
ATOM      7  H   UNL     1       8.263   3.301  17.190  0.00  0.00    +0.000 HD
ENDBRANCH   3   6
BRANCH   1   8
ATOM      8  O   UNL     1       7.702   7.441  16.937  0.00  0.00    +0.000 OA
BRANCH   8   9
ATOM      9  C   UNL     1       8.253   8.003  18.133  0.00  0.00    +0.000 C 
BRANCH   9  10
ATOM     10  C   UNL     1       8.355   9.515  17.988  0.00  0.00    +0.000 C 
BRANCH  10  11
ATOM     11  C   UNL     1       9.191  10.119  19.115  0.00  0.00    +0.000 C 
BRANCH  11  12
ATOM     12  C   UNL     1      10.143  11.193  18.600  0.00  0.00    +0.000 C 
BRANCH  12  13
ATOM     13  C   UNL     1       9.393  12.505  18.384  0.00  0.00    +0.000 C 
BRANCH  13  14
ATOM     14  C   UNL     1       9.456  13.382  19.632  0.00  0.00    +0.000 C 
BRANCH  14  16
ATOM     15  C   UNL     1      10.076  15.119  17.934  0.00  0.00    +0.000 C 
ATOM     16  C   UNL     1      10.247  14.661  19.370  0.00  0.00    +0.000 C 
ENDBRANCH  14  16
ENDBRANCH  13  14
ENDBRANCH  12  13
ENDBRANCH  11  12
ENDBRANCH  10  11
ENDBRANCH   9  10
ENDBRANCH   8   9
ENDBRANCH   1   8
BRANCH   4  17
ATOM     17  C   UNL     1       4.517   4.312  16.217  0.00  0.00    +0.000 C 
BRANCH  17  18
ATOM     18  O   UNL     1       4.326   3.643  17.467  0.00  0.00    +0.000 OA
BRANCH  18  19
ATOM     19  C   UNL     1       3.304   4.218  18.262  0.00  0.00    +0.000 C 
ATOM     20  O   UNL     1       2.223   3.293  18.471  0.00  0.00    +0.000 OA
ATOM     21  C   UNL     1       2.590   2.441  19.593  0.00  0.00    +0.000 C 
ATOM     22  C   UNL     1       3.827   3.063  20.252  0.00  0.00    +0.000 C 
ATOM     23  C   UNL     1       3.863   4.471  19.666  0.00  0.00    +0.000 C 
BRANCH  23  24
ATOM     24  O   UNL     1       3.030   5.355  20.422  0.00  0.00    +0.000 OA
ATOM     25  H   UNL     1       2.112   5.257  20.113  0.00  0.00    +0.000 HD
ENDBRANCH  23  24
BRANCH  22  26
ATOM     26  O   UNL     1       5.001   2.325  19.884  0.00  0.00    +0.000 OA
ATOM     27  H   UNL     1       5.075   1.552  20.485  0.00  0.00    +0.000 HD
ENDBRANCH  22  26
BRANCH  21  28
ATOM     28  C   UNL     1       1.384   2.371  20.532  0.00  0.00    +0.000 C 
BRANCH  28  29
ATOM     29  O   UNL     1       1.817   2.451  21.889  0.00  0.00    +0.000 OA
ATOM     30  H   UNL     1       1.040   2.734  22.407  0.00  0.00    +0.000 HD
ENDBRANCH  28  29
ENDBRANCH  21  28
ENDBRANCH  18  19
ENDBRANCH  17  18
ENDBRANCH   4  17
TORSDOF 16
ENDMDL
MODEL 7
REMARK VINA RESULT:      -6.5      1.170      1.999
REMARK  Name = 
REMARK  17 active torsions:
REMARK  status: ('A' for Active; 'I' for Inactive)
REMARK    1  A    between atoms: C_1  and  C_2
REMARK    2  A    between atoms: C_2  and  C_3
REMARK    3  A    between atoms: C_3  and  C_4
REMARK    4  A    between atoms: C_4  and  C_5
REMARK    5  A    between atoms: C_5  and  C_6
REMARK    6  A    between atoms: C_6  and  C_7
REMARK    7  A    between atoms: C_7  and  C_8
REMARK    8  A    between atoms: C_8  and  O_9
REMARK    9  A    between atoms: O_9  and  C_10
REMARK   10  A    between atoms: C_12  and  O_13
REMARK   11  A    between atoms: C_14  and  C_15
REMARK   12  A    between atoms: C_15  and  O_16
REMARK   13  A    between atoms: O_16  and  C_17
REMARK   14  A    between atoms: C_19  and  C_20
REMARK   15  A    between atoms: C_20  and  O_21
REMARK   16  A    between atoms: C_22  and  O_23
REMARK   17  A    between atoms: C_24  and  O_25
REMARK                            x       y       z     vdW  Elec       q    Type
REMARK                         _______ _______ _______ _____ _____    ______ ____
ROOT
ATOM      1  C   UNL     1       6.278   5.350  15.820  0.00  0.00    +0.000 C 
ATOM      2  C   UNL     1       5.489   6.603  16.170  0.00  0.00    +0.000 C 
ATOM      3  C   UNL     1       6.180   7.118  17.413  0.00  0.00    +0.000 C 
ATOM      4  C   UNL     1       6.719   5.856  18.069  0.00  0.00    +0.000 C 
ATOM      5  O   UNL     1       6.883   4.877  17.025  0.00  0.00    +0.000 OA
ENDROOT
BRANCH   3   6
ATOM      6  O   UNL     1       7.245   8.001  17.061  0.00  0.00    +0.000 OA
ATOM      7  H   UNL     1       7.607   8.378  17.885  0.00  0.00    +0.000 HD
ENDBRANCH   3   6
BRANCH   1   8
ATOM      8  O   UNL     1       7.285   5.660  14.863  0.00  0.00    +0.000 OA
BRANCH   8   9
ATOM      9  C   UNL     1       7.312   4.690  13.811  0.00  0.00    +0.000 C 
BRANCH   9  10
ATOM     10  C   UNL     1       6.028   3.871  13.838  0.00  0.00    +0.000 C 
BRANCH  10  11
ATOM     11  C   UNL     1       5.841   3.102  12.531  0.00  0.00    +0.000 C 
BRANCH  11  12
ATOM     12  C   UNL     1       5.181   3.960  11.458  0.00  0.00    +0.000 C 
BRANCH  12  13
ATOM     13  C   UNL     1       3.749   3.488  11.211  0.00  0.00    +0.000 C 
BRANCH  13  14
ATOM     14  C   UNL     1       3.399   3.560   9.727  0.00  0.00    +0.000 C 
BRANCH  14  16
ATOM     15  C   UNL     1       2.306   5.422   8.452  0.00  0.00    +0.000 C 
ATOM     16  C   UNL     1       2.109   4.343   9.501  0.00  0.00    +0.000 C 
ENDBRANCH  14  16
ENDBRANCH  13  14
ENDBRANCH  12  13
ENDBRANCH  11  12
ENDBRANCH  10  11
ENDBRANCH   9  10
ENDBRANCH   8   9
ENDBRANCH   1   8
BRANCH   4  17
ATOM     17  C   UNL     1       5.752   5.266  19.100  0.00  0.00    +0.000 C 
BRANCH  17  18
ATOM     18  O   UNL     1       4.691   4.628  18.384  0.00  0.00    +0.000 OA
BRANCH  18  19
ATOM     19  C   UNL     1       4.344   3.357  18.906  0.00  0.00    +0.000 C 
ATOM     20  O   UNL     1       3.707   3.477  20.190  0.00  0.00    +0.000 OA
ATOM     21  C   UNL     1       2.296   3.743  19.952  0.00  0.00    +0.000 C 
ATOM     22  C   UNL     1       2.032   3.503  18.461  0.00  0.00    +0.000 C 
ATOM     23  C   UNL     1       3.271   2.736  18.007  0.00  0.00    +0.000 C 
BRANCH  23  24
ATOM     24  O   UNL     1       3.115   1.335  18.248  0.00  0.00    +0.000 OA
ATOM     25  H   UNL     1       3.617   0.845  17.573  0.00  0.00    +0.000 HD
ENDBRANCH  23  24
BRANCH  22  26
ATOM     26  O   UNL     1       1.926   4.757  17.773  0.00  0.00    +0.000 OA
ATOM     27  H   UNL     1       2.596   5.368  18.150  0.00  0.00    +0.000 HD
ENDBRANCH  22  26
BRANCH  21  28
ATOM     28  C   UNL     1       1.492   2.809  20.859  0.00  0.00    +0.000 C 
BRANCH  28  29
ATOM     29  O   UNL     1       1.824   3.052  22.226  0.00  0.00    +0.000 OA
ATOM     30  H   UNL     1       1.121   2.630  22.756  0.00  0.00    +0.000 HD
ENDBRANCH  28  29
ENDBRANCH  21  28
ENDBRANCH  18  19
ENDBRANCH  17  18
ENDBRANCH   4  17
TORSDOF 16
ENDMDL
MODEL 8
REMARK VINA RESULT:      -6.4      1.512      2.452
REMARK  Name = 
REMARK  17 active torsions:
REMARK  status: ('A' for Active; 'I' for Inactive)
REMARK    1  A    between atoms: C_1  and  C_2
REMARK    2  A    between atoms: C_2  and  C_3
REMARK    3  A    between atoms: C_3  and  C_4
REMARK    4  A    between atoms: C_4  and  C_5
REMARK    5  A    between atoms: C_5  and  C_6
REMARK    6  A    between atoms: C_6  and  C_7
REMARK    7  A    between atoms: C_7  and  C_8
REMARK    8  A    between atoms: C_8  and  O_9
REMARK    9  A    between atoms: O_9  and  C_10
REMARK   10  A    between atoms: C_12  and  O_13
REMARK   11  A    between atoms: C_14  and  C_15
REMARK   12  A    between atoms: C_15  and  O_16
REMARK   13  A    between atoms: O_16  and  C_17
REMARK   14  A    between atoms: C_19  and  C_20
REMARK   15  A    between atoms: C_20  and  O_21
REMARK   16  A    between atoms: C_22  and  O_23
REMARK   17  A    between atoms: C_24  and  O_25
REMARK                            x       y       z     vdW  Elec       q    Type
REMARK                         _______ _______ _______ _____ _____    ______ ____
ROOT
ATOM      1  C   UNL     1       6.388   5.286  14.753  0.00  0.00    +0.000 C 
ATOM      2  C   UNL     1       6.732   5.885  16.108  0.00  0.00    +0.000 C 
ATOM      3  C   UNL     1       6.788   4.682  17.022  0.00  0.00    +0.000 C 
ATOM      4  C   UNL     1       5.802   3.710  16.391  0.00  0.00    +0.000 C 
ATOM      5  O   UNL     1       5.716   4.048  14.993  0.00  0.00    +0.000 OA
ENDROOT
BRANCH   3   6
ATOM      6  O   UNL     1       8.105   4.130  17.038  0.00  0.00    +0.000 OA
ATOM      7  H   UNL     1       8.148   3.480  17.765  0.00  0.00    +0.000 HD
ENDBRANCH   3   6
BRANCH   1   8
ATOM      8  O   UNL     1       7.578   5.052  14.007  0.00  0.00    +0.000 OA
BRANCH   8   9
ATOM      9  C   UNL     1       7.370   5.300  12.613  0.00  0.00    +0.000 C 
BRANCH   9  10
ATOM     10  C   UNL     1       7.340   3.977  11.858  0.00  0.00    +0.000 C 
BRANCH  10  11
ATOM     11  C   UNL     1       6.067   3.194  12.175  0.00  0.00    +0.000 C 
BRANCH  11  12
ATOM     12  C   UNL     1       4.852   3.773  11.460  0.00  0.00    +0.000 C 
BRANCH  12  13
ATOM     13  C   UNL     1       3.859   2.664  11.120  0.00  0.00    +0.000 C 
BRANCH  13  14
ATOM     14  C   UNL     1       2.800   3.159  10.139  0.00  0.00    +0.000 C 
BRANCH  14  16
ATOM     15  C   UNL     1       2.024   5.161   8.844  0.00  0.00    +0.000 C 
ATOM     16  C   UNL     1       3.210   4.486   9.507  0.00  0.00    +0.000 C 
ENDBRANCH  14  16
ENDBRANCH  13  14
ENDBRANCH  12  13
ENDBRANCH  11  12
ENDBRANCH  10  11
ENDBRANCH   9  10
ENDBRANCH   8   9
ENDBRANCH   1   8
BRANCH   4  17
ATOM     17  C   UNL     1       4.393   3.834  16.978  0.00  0.00    +0.000 C 
BRANCH  17  18
ATOM     18  O   UNL     1       4.502   3.711  18.400  0.00  0.00    +0.000 OA
BRANCH  18  19
ATOM     19  C   UNL     1       3.724   2.654  18.934  0.00  0.00    +0.000 C 
ATOM     20  O   UNL     1       3.724   2.682  20.372  0.00  0.00    +0.000 OA
ATOM     21  C   UNL     1       2.695   3.624  20.788  0.00  0.00    +0.000 C 
ATOM     22  C   UNL     1       1.864   3.969  19.546  0.00  0.00    +0.000 C 
ATOM     23  C   UNL     1       2.260   2.884  18.549  0.00  0.00    +0.000 C 
BRANCH  23  24
ATOM     24  O   UNL     1       1.465   1.710  18.739  0.00  0.00    +0.000 OA
ATOM     25  H   UNL     1       0.903   1.839  19.524  0.00  0.00    +0.000 HD
ENDBRANCH  23  24
BRANCH  22  26
ATOM     26  O   UNL     1       2.228   5.269  19.059  0.00  0.00    +0.000 OA
ATOM     27  H   UNL     1       1.684   5.935  19.533  0.00  0.00    +0.000 HD
ENDBRANCH  22  26
BRANCH  21  28
ATOM     28  C   UNL     1       1.872   2.951  21.888  0.00  0.00    +0.000 C 
BRANCH  28  29
ATOM     29  O   UNL     1       0.579   2.607  21.391  0.00  0.00    +0.000 OA
ATOM     30  H   UNL     1       0.131   2.121  22.109  0.00  0.00    +0.000 HD
ENDBRANCH  28  29
ENDBRANCH  21  28
ENDBRANCH  18  19
ENDBRANCH  17  18
ENDBRANCH   4  17
TORSDOF 16
ENDMDL
MODEL 9
REMARK VINA RESULT:      -6.4      3.291      6.485
REMARK  Name = 
REMARK  17 active torsions:
REMARK  status: ('A' for Active; 'I' for Inactive)
REMARK    1  A    between atoms: C_1  and  C_2
REMARK    2  A    between atoms: C_2  and  C_3
REMARK    3  A    between atoms: C_3  and  C_4
REMARK    4  A    between atoms: C_4  and  C_5
REMARK    5  A    between atoms: C_5  and  C_6
REMARK    6  A    between atoms: C_6  and  C_7
REMARK    7  A    between atoms: C_7  and  C_8
REMARK    8  A    between atoms: C_8  and  O_9
REMARK    9  A    between atoms: O_9  and  C_10
REMARK   10  A    between atoms: C_12  and  O_13
REMARK   11  A    between atoms: C_14  and  C_15
REMARK   12  A    between atoms: C_15  and  O_16
REMARK   13  A    between atoms: O_16  and  C_17
REMARK   14  A    between atoms: C_19  and  C_20
REMARK   15  A    between atoms: C_20  and  O_21
REMARK   16  A    between atoms: C_22  and  O_23
REMARK   17  A    between atoms: C_24  and  O_25
REMARK                            x       y       z     vdW  Elec       q    Type
REMARK                         _______ _______ _______ _____ _____    ______ ____
ROOT
ATOM      1  C   UNL     1       7.056   6.363  17.343  0.00  0.00    +0.000 C 
ATOM      2  C   UNL     1       7.665   5.063  16.842  0.00  0.00    +0.000 C 
ATOM      3  C   UNL     1       6.929   4.805  15.547  0.00  0.00    +0.000 C 
ATOM      4  C   UNL     1       5.568   5.445  15.777  0.00  0.00    +0.000 C 
ATOM      5  O   UNL     1       5.750   6.469  16.774  0.00  0.00    +0.000 OA
ENDROOT
BRANCH   3   6
ATOM      6  O   UNL     1       7.605   5.431  14.457  0.00  0.00    +0.000 OA
ATOM      7  H   UNL     1       8.563   5.410  14.646  0.00  0.00    +0.000 HD
ENDBRANCH   3   6
BRANCH   1   8
ATOM      8  O   UNL     1       7.854   7.467  16.927  0.00  0.00    +0.000 OA
BRANCH   8   9
ATOM      9  C   UNL     1       7.614   8.615  17.747  0.00  0.00    +0.000 C 
BRANCH   9  10
ATOM     10  C   UNL     1       8.806   8.846  18.665  0.00  0.00    +0.000 C 
BRANCH  10  11
ATOM     11  C   UNL     1       8.968  10.331  18.990  0.00  0.00    +0.000 C 
BRANCH  11  12
ATOM     12  C   UNL     1       9.778  11.059  17.924  0.00  0.00    +0.000 C 
BRANCH  12  13
ATOM     13  C   UNL     1       9.328  12.514  17.820  0.00  0.00    +0.000 C 
BRANCH  13  14
ATOM     14  C   UNL     1       7.875  12.606  17.360  0.00  0.00    +0.000 C 
BRANCH  14  16
ATOM     15  C   UNL     1       8.121  14.784  18.579  0.00  0.00    +0.000 C 
ATOM     16  C   UNL     1       7.329  14.021  17.533  0.00  0.00    +0.000 C 
ENDBRANCH  14  16
ENDBRANCH  13  14
ENDBRANCH  12  13
ENDBRANCH  11  12
ENDBRANCH  10  11
ENDBRANCH   9  10
ENDBRANCH   8   9
ENDBRANCH   1   8
BRANCH   4  17
ATOM     17  C   UNL     1       4.534   4.456  16.324  0.00  0.00    +0.000 C 
BRANCH  17  18
ATOM     18  O   UNL     1       3.979   5.022  17.515  0.00  0.00    +0.000 OA
BRANCH  18  19
ATOM     19  C   UNL     1       4.289   4.286  18.685  0.00  0.00    +0.000 C 
ATOM     20  O   UNL     1       3.584   4.800  19.827  0.00  0.00    +0.000 OA
ATOM     21  C   UNL     1       2.258   4.200  19.825  0.00  0.00    +0.000 C 
ATOM     22  C   UNL     1       2.269   3.073  18.786  0.00  0.00    +0.000 C 
ATOM     23  C   UNL     1       3.756   2.859  18.519  0.00  0.00    +0.000 C 
BRANCH  23  24
ATOM     24  O   UNL     1       4.318   1.962  19.481  0.00  0.00    +0.000 OA
ATOM     25  H   UNL     1       4.414   1.086  19.069  0.00  0.00    +0.000 HD
ENDBRANCH  23  24
BRANCH  22  26
ATOM     26  O   UNL     1       1.591   3.498  17.595  0.00  0.00    +0.000 OA
ATOM     27  H   UNL     1       0.638   3.599  17.807  0.00  0.00    +0.000 HD
ENDBRANCH  22  26
BRANCH  21  28
ATOM     28  C   UNL     1       1.975   3.702  21.244  0.00  0.00    +0.000 C 
BRANCH  28  29
ATOM     29  O   UNL     1       0.805   2.883  21.250  0.00  0.00    +0.000 OA
ATOM     30  H   UNL     1       0.068   3.459  20.972  0.00  0.00    +0.000 HD
ENDBRANCH  28  29
ENDBRANCH  21  28
ENDBRANCH  18  19
ENDBRANCH  17  18
ENDBRANCH   4  17
TORSDOF 16
ENDMDL
