MODEL 1
REMARK VINA RESULT:      -9.5      0.000      0.000
REMARK  Name = 
REMARK  5 active torsions:
REMARK  status: ('A' for Active; 'I' for Inactive)
REMARK    1  A    between atoms: C_2  and  C_27
REMARK    2  A    between atoms: N_3  and  C_4
REMARK    3  A    between atoms: C_4  and  C_5
REMARK    4  A    between atoms: C_5  and  O_6
REMARK    5  A    between atoms: O_6  and  C_7
REMARK                            x       y       z     vdW  Elec       q    Type
REMARK                         _______ _______ _______ _____ _____    ______ ____
ROOT
ATOM      1  C   UNL     1       6.600   5.679  16.087  0.00  0.00    +0.000 A 
ATOM      2  N   UNL     1       5.529   5.593  16.898  0.00  0.00    +0.000 NA
ATOM      3  C   UNL     1       4.498   4.852  16.482  0.00  0.00    +0.000 A 
ATOM      4  N   UNL     1       3.422   4.663  17.324  0.00  0.00    +0.000 N 
ATOM      5  C   UNL     1       2.417   3.683  16.923  0.00  0.00    +0.000 C 
ATOM      6  C   UNL     1       1.186   3.713  17.833  0.00  0.00    +0.000 C 
ATOM      7  C   UNL     1       1.611   3.576  19.269  0.00  0.00    +0.000 A 
ATOM      8  C   UNL     1       0.885   2.808  20.185  0.00  0.00    +0.000 A 
ATOM      9  C   UNL     1       1.317   2.710  21.506  0.00  0.00    +0.000 A 
ATOM     10  C   UNL     1       2.463   3.388  21.920  0.00  0.00    +0.000 A 
ATOM     11  C   UNL     1       3.178   4.173  21.014  0.00  0.00    +0.000 A 
ATOM     12  C   UNL     1       2.762   4.269  19.679  0.00  0.00    +0.000 A 
ATOM     13  C   UNL     1       3.490   5.162  18.692  0.00  0.00    +0.000 C 
ATOM     14  N   UNL     1       4.482   4.262  15.277  0.00  0.00    +0.000 NA
ATOM     15  C   UNL     1       5.541   4.386  14.469  0.00  0.00    +0.000 A 
ATOM     16  C   UNL     1       5.518   3.773  13.224  0.00  0.00    +0.000 A 
ATOM     17  C   UNL     1       6.607   3.833  12.349  0.00  0.00    +0.000 A 
ATOM     18  C   UNL     1       7.760   4.507  12.726  0.00  0.00    +0.000 A 
ATOM     19  C   UNL     1       7.805   5.138  13.966  0.00  0.00    +0.000 A 
ATOM     20  C   UNL     1       6.684   5.091  14.832  0.00  0.00    +0.000 A 
ENDROOT
BRANCH   1  21
ATOM     21  O   UNL     1       7.711   6.364  16.551  0.00  0.00    +0.000 OA
BRANCH  21  22
ATOM     22  C   UNL     1       7.486   7.011  17.811  0.00  0.00    +0.000 C 
BRANCH  22  23
ATOM     23  C   UNL     1       7.375   8.531  17.650  0.00  0.00    +0.000 C 
BRANCH  23  26
ATOM     24  O   UNL     1       7.870  11.301  17.425  0.00  0.00    +0.000 OA
ATOM     25  C   UNL     1       8.665  10.593  18.030  0.00  0.00    +0.000 C 
ATOM     26  N   UNL     1       8.489   9.244  18.229  0.00  0.00    +0.000 N 
ATOM     27  H   UNL     1       9.076   8.750  18.886  0.00  0.00    +0.000 HD
BRANCH  25  28
ATOM     28  C   UNL     1       9.894  11.173  18.630  0.00  0.00    +0.000 A 
ATOM     29  C   UNL     1       9.942  11.351  20.017  0.00  0.00    +0.000 A 
ATOM     30  C   UNL     1      11.085  11.885  20.609  0.00  0.00    +0.000 A 
ATOM     31  C   UNL     1      12.173  12.255  19.818  0.00  0.00    +0.000 A 
ATOM     32  C   UNL     1      12.122  12.099  18.433  0.00  0.00    +0.000 A 
ATOM     33  C   UNL     1      10.983  11.564  17.836  0.00  0.00    +0.000 A 
ENDBRANCH  25  28
ENDBRANCH  23  26
ENDBRANCH  22  23
ENDBRANCH  21  22
ENDBRANCH   1  21
TORSDOF 5
ENDMDL
MODEL 2
REMARK VINA RESULT:      -8.9      4.092      8.241
REMARK  Name = 
REMARK  5 active torsions:
REMARK  status: ('A' for Active; 'I' for Inactive)
REMARK    1  A    between atoms: C_2  and  C_27
REMARK    2  A    between atoms: N_3  and  C_4
REMARK    3  A    between atoms: C_4  and  C_5
REMARK    4  A    between atoms: C_5  and  O_6
REMARK    5  A    between atoms: O_6  and  C_7
REMARK                            x       y       z     vdW  Elec       q    Type
REMARK                         _______ _______ _______ _____ _____    ______ ____
ROOT
ATOM      1  C   UNL     1       3.642   6.286  17.857  0.00  0.00    +0.000 A 
ATOM      2  N   UNL     1       3.001   7.470  17.840  0.00  0.00    +0.000 NA
ATOM      3  C   UNL     1       2.172   7.735  18.853  0.00  0.00    +0.000 A 
ATOM      4  N   UNL     1       1.568   8.973  18.921  0.00  0.00    +0.000 N 
ATOM      5  C   UNL     1       0.840   9.302  20.143  0.00  0.00    +0.000 C 
ATOM      6  C   UNL     1       0.056  10.611  20.014  0.00  0.00    +0.000 C 
ATOM      7  C   UNL     1       0.972  11.710  19.554  0.00  0.00    +0.000 A 
ATOM      8  C   UNL     1       0.883  13.009  20.065  0.00  0.00    +0.000 A 
ATOM      9  C   UNL     1       1.754  13.997  19.608  0.00  0.00    +0.000 A 
ATOM     10  C   UNL     1       2.704  13.695  18.633  0.00  0.00    +0.000 A 
ATOM     11  C   UNL     1       2.782  12.405  18.105  0.00  0.00    +0.000 A 
ATOM     12  C   UNL     1       1.921  11.399  18.566  0.00  0.00    +0.000 A 
ATOM     13  C   UNL     1       1.949  10.007  17.966  0.00  0.00    +0.000 C 
ATOM     14  N   UNL     1       1.921   6.845  19.825  0.00  0.00    +0.000 NA
ATOM     15  C   UNL     1       2.542   5.659  19.808  0.00  0.00    +0.000 A 
ATOM     16  C   UNL     1       2.278   4.743  20.816  0.00  0.00    +0.000 A 
ATOM     17  C   UNL     1       2.921   3.503  20.876  0.00  0.00    +0.000 A 
ATOM     18  C   UNL     1       3.867   3.168  19.915  0.00  0.00    +0.000 A 
ATOM     19  C   UNL     1       4.142   4.066  18.889  0.00  0.00    +0.000 A 
ATOM     20  C   UNL     1       3.463   5.308  18.826  0.00  0.00    +0.000 A 
ENDROOT
BRANCH   1  21
ATOM     21  O   UNL     1       4.577   6.042  16.864  0.00  0.00    +0.000 OA
BRANCH  21  22
ATOM     22  C   UNL     1       5.910   6.401  17.247  0.00  0.00    +0.000 C 
BRANCH  22  23
ATOM     23  C   UNL     1       6.926   5.337  16.813  0.00  0.00    +0.000 C 
BRANCH  23  26
ATOM     24  O   UNL     1       7.879   5.622  14.172  0.00  0.00    +0.000 OA
ATOM     25  C   UNL     1       6.990   4.814  14.408  0.00  0.00    +0.000 C 
ATOM     26  N   UNL     1       6.491   4.575  15.666  0.00  0.00    +0.000 N 
ATOM     27  H   UNL     1       5.894   3.775  15.829  0.00  0.00    +0.000 HD
BRANCH  25  28
ATOM     28  C   UNL     1       6.396   3.999  13.318  0.00  0.00    +0.000 A 
ATOM     29  C   UNL     1       7.255   3.299  12.463  0.00  0.00    +0.000 A 
ATOM     30  C   UNL     1       6.727   2.519  11.436  0.00  0.00    +0.000 A 
ATOM     31  C   UNL     1       5.345   2.447  11.253  0.00  0.00    +0.000 A 
ATOM     32  C   UNL     1       4.486   3.159  12.090  0.00  0.00    +0.000 A 
ATOM     33  C   UNL     1       5.009   3.939  13.119  0.00  0.00    +0.000 A 
ENDBRANCH  25  28
ENDBRANCH  23  26
ENDBRANCH  22  23
ENDBRANCH  21  22
ENDBRANCH   1  21
TORSDOF 5
ENDMDL
MODEL 3
REMARK VINA RESULT:      -8.9      3.765      5.989
REMARK  Name = 
REMARK  5 active torsions:
REMARK  status: ('A' for Active; 'I' for Inactive)
REMARK    1  A    between atoms: C_2  and  C_27
REMARK    2  A    between atoms: N_3  and  C_4
REMARK    3  A    between atoms: C_4  and  C_5
REMARK    4  A    between atoms: C_5  and  O_6
REMARK    5  A    between atoms: O_6  and  C_7
REMARK                            x       y       z     vdW  Elec       q    Type
REMARK                         _______ _______ _______ _____ _____    ______ ____
ROOT
ATOM      1  C   UNL     1       3.750   5.824  18.117  0.00  0.00    +0.000 A 
ATOM      2  N   UNL     1       3.098   6.995  17.987  0.00  0.00    +0.000 NA
ATOM      3  C   UNL     1       2.187   7.299  18.916  0.00  0.00    +0.000 A 
ATOM      4  N   UNL     1       1.566   8.529  18.871  0.00  0.00    +0.000 N 
ATOM      5  C   UNL     1       0.739   8.909  20.013  0.00  0.00    +0.000 C 
ATOM      6  C   UNL     1      -0.048  10.196  19.753  0.00  0.00    +0.000 C 
ATOM      7  C   UNL     1       0.888  11.285  19.309  0.00  0.00    +0.000 A 
ATOM      8  C   UNL     1       0.743  12.608  19.741  0.00  0.00    +0.000 A 
ATOM      9  C   UNL     1       1.635  13.584  19.302  0.00  0.00    +0.000 A 
ATOM     10  C   UNL     1       2.663  13.248  18.422  0.00  0.00    +0.000 A 
ATOM     11  C   UNL     1       2.799  11.934  17.972  0.00  0.00    +0.000 A 
ATOM     12  C   UNL     1       1.916  10.939  18.416  0.00  0.00    +0.000 A 
ATOM     13  C   UNL     1       2.008   9.518  17.895  0.00  0.00    +0.000 C 
ATOM     14  N   UNL     1       1.871   6.456  19.911  0.00  0.00    +0.000 NA
ATOM     15  C   UNL     1       2.505   5.282  20.006  0.00  0.00    +0.000 A 
ATOM     16  C   UNL     1       2.173   4.415  21.038  0.00  0.00    +0.000 A 
ATOM     17  C   UNL     1       2.825   3.190  21.214  0.00  0.00    +0.000 A 
ATOM     18  C   UNL     1       3.847   2.821  20.350  0.00  0.00    +0.000 A 
ATOM     19  C   UNL     1       4.192   3.669  19.301  0.00  0.00    +0.000 A 
ATOM     20  C   UNL     1       3.506   4.895  19.120  0.00  0.00    +0.000 A 
ENDROOT
BRANCH   1  21
ATOM     21  O   UNL     1       4.763   5.544  17.215  0.00  0.00    +0.000 OA
BRANCH  21  22
ATOM     22  C   UNL     1       5.356   6.721  16.653  0.00  0.00    +0.000 C 
BRANCH  22  23
ATOM     23  C   UNL     1       6.878   6.730  16.843  0.00  0.00    +0.000 C 
BRANCH  23  26
ATOM     24  O   UNL     1       8.616   7.389  18.966  0.00  0.00    +0.000 OA
ATOM     25  C   UNL     1       8.217   8.272  18.217  0.00  0.00    +0.000 C 
ATOM     26  N   UNL     1       7.404   8.042  17.133  0.00  0.00    +0.000 N 
ATOM     27  H   UNL     1       7.257   8.772  16.450  0.00  0.00    +0.000 HD
BRANCH  25  28
ATOM     28  C   UNL     1       8.623   9.685  18.426  0.00  0.00    +0.000 A 
ATOM     29  C   UNL     1       9.387  10.002  19.555  0.00  0.00    +0.000 A 
ATOM     30  C   UNL     1       9.789  11.318  19.773  0.00  0.00    +0.000 A 
ATOM     31  C   UNL     1       9.419  12.320  18.875  0.00  0.00    +0.000 A 
ATOM     32  C   UNL     1       8.640  12.012  17.760  0.00  0.00    +0.000 A 
ATOM     33  C   UNL     1       8.236  10.698  17.536  0.00  0.00    +0.000 A 
ENDBRANCH  25  28
ENDBRANCH  23  26
ENDBRANCH  22  23
ENDBRANCH  21  22
ENDBRANCH   1  21
TORSDOF 5
ENDMDL
MODEL 4
REMARK VINA RESULT:      -8.7      1.147      1.457
REMARK  Name = 
REMARK  5 active torsions:
REMARK  status: ('A' for Active; 'I' for Inactive)
REMARK    1  A    between atoms: C_2  and  C_27
REMARK    2  A    between atoms: N_3  and  C_4
REMARK    3  A    between atoms: C_4  and  C_5
REMARK    4  A    between atoms: C_5  and  O_6
REMARK    5  A    between atoms: O_6  and  C_7
REMARK                            x       y       z     vdW  Elec       q    Type
REMARK                         _______ _______ _______ _____ _____    ______ ____
ROOT
ATOM      1  C   UNL     1       6.662   5.823  16.436  0.00  0.00    +0.000 A 
ATOM      2  N   UNL     1       5.563   5.688  17.202  0.00  0.00    +0.000 NA
ATOM      3  C   UNL     1       4.563   4.946  16.718  0.00  0.00    +0.000 A 
ATOM      4  N   UNL     1       3.460   4.707  17.511  0.00  0.00    +0.000 N 
ATOM      5  C   UNL     1       2.489   3.726  17.035  0.00  0.00    +0.000 C 
ATOM      6  C   UNL     1       1.224   3.699  17.898  0.00  0.00    +0.000 C 
ATOM      7  C   UNL     1       1.597   3.515  19.343  0.00  0.00    +0.000 A 
ATOM      8  C   UNL     1       0.852   2.700  20.201  0.00  0.00    +0.000 A 
ATOM      9  C   UNL     1       1.235   2.559  21.533  0.00  0.00    +0.000 A 
ATOM     10  C   UNL     1       2.352   3.240  22.015  0.00  0.00    +0.000 A 
ATOM     11  C   UNL     1       3.086   4.072  21.168  0.00  0.00    +0.000 A 
ATOM     12  C   UNL     1       2.719   4.211  19.822  0.00  0.00    +0.000 A 
ATOM     13  C   UNL     1       3.467   5.154  18.898  0.00  0.00    +0.000 C 
ATOM     14  N   UNL     1       4.603   4.402  15.492  0.00  0.00    +0.000 NA
ATOM     15  C   UNL     1       5.690   4.575  14.731  0.00  0.00    +0.000 A 
ATOM     16  C   UNL     1       5.725   4.010  13.464  0.00  0.00    +0.000 A 
ATOM     17  C   UNL     1       6.845   4.122  12.634  0.00  0.00    +0.000 A 
ATOM     18  C   UNL     1       7.971   4.801  13.081  0.00  0.00    +0.000 A 
ATOM     19  C   UNL     1       7.957   5.385  14.344  0.00  0.00    +0.000 A 
ATOM     20  C   UNL     1       6.805   5.286  15.164  0.00  0.00    +0.000 A 
ENDROOT
BRANCH   1  21
ATOM     21  O   UNL     1       7.742   6.509  16.968  0.00  0.00    +0.000 OA
BRANCH  21  22
ATOM     22  C   UNL     1       7.474   7.901  17.181  0.00  0.00    +0.000 C 
BRANCH  22  23
ATOM     23  C   UNL     1       8.310   8.464  18.337  0.00  0.00    +0.000 C 
BRANCH  23  26
ATOM     24  O   UNL     1       9.260  10.323  20.236  0.00  0.00    +0.000 OA
ATOM     25  C   UNL     1       9.277  10.614  19.046  0.00  0.00    +0.000 C 
ATOM     26  N   UNL     1       8.875   9.760  18.046  0.00  0.00    +0.000 N 
ATOM     27  H   UNL     1       9.080   9.981  17.082  0.00  0.00    +0.000 HD
BRANCH  25  28
ATOM     28  C   UNL     1       9.773  11.940  18.595  0.00  0.00    +0.000 A 
ATOM     29  C   UNL     1      10.574  12.000  17.450  0.00  0.00    +0.000 A 
ATOM     30  C   UNL     1      11.048  13.230  16.999  0.00  0.00    +0.000 A 
ATOM     31  C   UNL     1      10.734  14.398  17.696  0.00  0.00    +0.000 A 
ATOM     32  C   UNL     1       9.953  14.341  18.849  0.00  0.00    +0.000 A 
ATOM     33  C   UNL     1       9.475  13.113  19.304  0.00  0.00    +0.000 A 
ENDBRANCH  25  28
ENDBRANCH  23  26
ENDBRANCH  22  23
ENDBRANCH  21  22
ENDBRANCH   1  21
TORSDOF 5
ENDMDL
MODEL 5
REMARK VINA RESULT:      -8.7      4.168      8.067
REMARK  Name = 
REMARK  5 active torsions:
REMARK  status: ('A' for Active; 'I' for Inactive)
REMARK    1  A    between atoms: C_2  and  C_27
REMARK    2  A    between atoms: N_3  and  C_4
REMARK    3  A    between atoms: C_4  and  C_5
REMARK    4  A    between atoms: C_5  and  O_6
REMARK    5  A    between atoms: O_6  and  C_7
REMARK                            x       y       z     vdW  Elec       q    Type
REMARK                         _______ _______ _______ _____ _____    ______ ____
ROOT
ATOM      1  C   UNL     1       3.676   6.755  18.095  0.00  0.00    +0.000 A 
ATOM      2  N   UNL     1       3.036   7.934  17.985  0.00  0.00    +0.000 NA
ATOM      3  C   UNL     1       2.047   8.181  18.849  0.00  0.00    +0.000 A 
ATOM      4  N   UNL     1       1.430   9.415  18.830  0.00  0.00    +0.000 N 
ATOM      5  C   UNL     1       0.507   9.723  19.917  0.00  0.00    +0.000 C 
ATOM      6  C   UNL     1      -0.257  11.028  19.674  0.00  0.00    +0.000 C 
ATOM      7  C   UNL     1       0.713  12.140  19.384  0.00  0.00    +0.000 A 
ATOM      8  C   UNL     1       0.529  13.432  19.886  0.00  0.00    +0.000 A 
ATOM      9  C   UNL     1       1.455  14.431  19.590  0.00  0.00    +0.000 A 
ATOM     10  C   UNL     1       2.556  14.148  18.783  0.00  0.00    +0.000 A 
ATOM     11  C   UNL     1       2.732  12.865  18.262  0.00  0.00    +0.000 A 
ATOM     12  C   UNL     1       1.815  11.847  18.564  0.00  0.00    +0.000 A 
ATOM     13  C   UNL     1       1.955  10.462  17.962  0.00  0.00    +0.000 C 
ATOM     14  N   UNL     1       1.647   7.278  19.757  0.00  0.00    +0.000 NA
ATOM     15  C   UNL     1       2.272   6.097  19.830  0.00  0.00    +0.000 A 
ATOM     16  C   UNL     1       1.853   5.167  20.771  0.00  0.00    +0.000 A 
ATOM     17  C   UNL     1       2.489   3.931  20.924  0.00  0.00    +0.000 A 
ATOM     18  C   UNL     1       3.583   3.614  20.130  0.00  0.00    +0.000 A 
ATOM     19  C   UNL     1       4.017   4.526  19.172  0.00  0.00    +0.000 A 
ATOM     20  C   UNL     1       3.347   5.764  19.011  0.00  0.00    +0.000 A 
ENDROOT
BRANCH   1  21
ATOM     21  O   UNL     1       4.764   6.529  17.268  0.00  0.00    +0.000 OA
BRANCH  21  22
ATOM     22  C   UNL     1       5.950   7.206  17.703  0.00  0.00    +0.000 C 
BRANCH  22  23
ATOM     23  C   UNL     1       7.215   6.516  17.180  0.00  0.00    +0.000 C 
BRANCH  23  26
ATOM     24  O   UNL     1       6.516   3.907  16.361  0.00  0.00    +0.000 OA
ATOM     25  C   UNL     1       6.778   4.754  15.516  0.00  0.00    +0.000 C 
ATOM     26  N   UNL     1       7.087   6.060  15.816  0.00  0.00    +0.000 N 
ATOM     27  H   UNL     1       7.115   6.753  15.081  0.00  0.00    +0.000 HD
BRANCH  25  28
ATOM     28  C   UNL     1       6.751   4.418  14.070  0.00  0.00    +0.000 A 
ATOM     29  C   UNL     1       7.673   5.040  13.221  0.00  0.00    +0.000 A 
ATOM     30  C   UNL     1       7.676   4.739  11.861  0.00  0.00    +0.000 A 
ATOM     31  C   UNL     1       6.753   3.828  11.345  0.00  0.00    +0.000 A 
ATOM     32  C   UNL     1       5.819   3.221  12.183  0.00  0.00    +0.000 A 
ATOM     33  C   UNL     1       5.812   3.517  13.545  0.00  0.00    +0.000 A 
ENDBRANCH  25  28
ENDBRANCH  23  26
ENDBRANCH  22  23
ENDBRANCH  21  22
ENDBRANCH   1  21
TORSDOF 5
ENDMDL
MODEL 6
REMARK VINA RESULT:      -8.6      5.913     11.034
REMARK  Name = 
REMARK  5 active torsions:
REMARK  status: ('A' for Active; 'I' for Inactive)
REMARK    1  A    between atoms: C_2  and  C_27
REMARK    2  A    between atoms: N_3  and  C_4
REMARK    3  A    between atoms: C_4  and  C_5
REMARK    4  A    between atoms: C_5  and  O_6
REMARK    5  A    between atoms: O_6  and  C_7
REMARK                            x       y       z     vdW  Elec       q    Type
REMARK                         _______ _______ _______ _____ _____    ______ ____
ROOT
ATOM      1  C   UNL     1       1.004  10.353  19.488  0.00  0.00    +0.000 A 
ATOM      2  N   UNL     1       1.508  11.538  19.096  0.00  0.00    +0.000 NA
ATOM      3  C   UNL     1       1.419  12.559  19.953  0.00  0.00    +0.000 A 
ATOM      4  N   UNL     1       2.006  13.764  19.627  0.00  0.00    +0.000 N 
ATOM      5  C   UNL     1       2.072  14.785  20.668  0.00  0.00    +0.000 C 
ATOM      6  C   UNL     1       2.560  16.132  20.125  0.00  0.00    +0.000 C 
ATOM      7  C   UNL     1       3.858  15.946  19.391  0.00  0.00    +0.000 A 
ATOM      8  C   UNL     1       4.902  16.872  19.487  0.00  0.00    +0.000 A 
ATOM      9  C   UNL     1       6.088  16.658  18.788  0.00  0.00    +0.000 A 
ATOM     10  C   UNL     1       6.231  15.529  17.982  0.00  0.00    +0.000 A 
ATOM     11  C   UNL     1       5.185  14.613  17.867  0.00  0.00    +0.000 A 
ATOM     12  C   UNL     1       3.991  14.809  18.576  0.00  0.00    +0.000 A 
ATOM     13  C   UNL     1       2.820  13.858  18.421  0.00  0.00    +0.000 C 
ATOM     14  N   UNL     1       0.797  12.448  21.137  0.00  0.00    +0.000 NA
ATOM     15  C   UNL     1       0.273  11.271  21.496  0.00  0.00    +0.000 A 
ATOM     16  C   UNL     1      -0.369  11.163  22.722  0.00  0.00    +0.000 A 
ATOM     17  C   UNL     1      -0.906   9.953  23.173  0.00  0.00    +0.000 A 
ATOM     18  C   UNL     1      -0.788   8.811  22.391  0.00  0.00    +0.000 A 
ATOM     19  C   UNL     1      -0.156   8.896  21.153  0.00  0.00    +0.000 A 
ATOM     20  C   UNL     1       0.359  10.135  20.698  0.00  0.00    +0.000 A 
ENDROOT
BRANCH   1  21
ATOM     21  O   UNL     1       1.178   9.265  18.648  0.00  0.00    +0.000 OA
BRANCH  21  22
ATOM     22  C   UNL     1       2.279   9.424  17.745  0.00  0.00    +0.000 C 
BRANCH  22  23
ATOM     23  C   UNL     1       3.069   8.119  17.587  0.00  0.00    +0.000 C 
BRANCH  23  26
ATOM     24  O   UNL     1       3.817   5.401  17.432  0.00  0.00    +0.000 OA
ATOM     25  C   UNL     1       2.969   5.748  18.245  0.00  0.00    +0.000 C 
ATOM     26  N   UNL     1       2.571   7.052  18.423  0.00  0.00    +0.000 N 
ATOM     27  H   UNL     1       2.008   7.302  19.224  0.00  0.00    +0.000 HD
BRANCH  25  28
ATOM     28  C   UNL     1       2.318   4.752  19.134  0.00  0.00    +0.000 A 
ATOM     29  C   UNL     1       2.641   4.758  20.495  0.00  0.00    +0.000 A 
ATOM     30  C   UNL     1       2.041   3.841  21.355  0.00  0.00    +0.000 A 
ATOM     31  C   UNL     1       1.128   2.910  20.857  0.00  0.00    +0.000 A 
ATOM     32  C   UNL     1       0.817   2.887  19.497  0.00  0.00    +0.000 A 
ATOM     33  C   UNL     1       1.414   3.803  18.633  0.00  0.00    +0.000 A 
ENDBRANCH  25  28
ENDBRANCH  23  26
ENDBRANCH  22  23
ENDBRANCH  21  22
ENDBRANCH   1  21
TORSDOF 5
ENDMDL
MODEL 7
REMARK VINA RESULT:      -8.5      6.381     11.622
REMARK  Name = 
REMARK  5 active torsions:
REMARK  status: ('A' for Active; 'I' for Inactive)
REMARK    1  A    between atoms: C_2  and  C_27
REMARK    2  A    between atoms: N_3  and  C_4
REMARK    3  A    between atoms: C_4  and  C_5
REMARK    4  A    between atoms: C_5  and  O_6
REMARK    5  A    between atoms: O_6  and  C_7
REMARK                            x       y       z     vdW  Elec       q    Type
REMARK                         _______ _______ _______ _____ _____    ______ ____
ROOT
ATOM      1  C   UNL     1       1.054  11.506  19.988  0.00  0.00    +0.000 A 
ATOM      2  N   UNL     1       1.816  12.422  19.361  0.00  0.00    +0.000 NA
ATOM      3  C   UNL     1       1.797  13.669  19.839  0.00  0.00    +0.000 A 
ATOM      4  N   UNL     1       2.634  14.614  19.284  0.00  0.00    +0.000 N 
ATOM      5  C   UNL     1       2.741  15.902  19.963  0.00  0.00    +0.000 C 
ATOM      6  C   UNL     1       3.537  16.923  19.145  0.00  0.00    +0.000 C 
ATOM      7  C   UNL     1       4.869  16.341  18.762  0.00  0.00    +0.000 A 
ATOM      8  C   UNL     1       6.041  17.104  18.771  0.00  0.00    +0.000 A 
ATOM      9  C   UNL     1       7.253  16.522  18.408  0.00  0.00    +0.000 A 
ATOM     10  C   UNL     1       7.298  15.183  18.021  0.00  0.00    +0.000 A 
ATOM     11  C   UNL     1       6.128  14.423  17.989  0.00  0.00    +0.000 A 
ATOM     12  C   UNL     1       4.904  14.993  18.366  0.00  0.00    +0.000 A 
ATOM     13  C   UNL     1       3.612  14.203  18.283  0.00  0.00    +0.000 C 
ATOM     14  N   UNL     1       1.007  14.033  20.861  0.00  0.00    +0.000 NA
ATOM     15  C   UNL     1       0.231  13.116  21.450  0.00  0.00    +0.000 A 
ATOM     16  C   UNL     1      -0.585  13.499  22.507  0.00  0.00    +0.000 A 
ATOM     17  C   UNL     1      -1.391  12.582  23.189  0.00  0.00    +0.000 A 
ATOM     18  C   UNL     1      -1.376  11.243  22.823  0.00  0.00    +0.000 A 
ATOM     19  C   UNL     1      -0.574  10.836  21.761  0.00  0.00    +0.000 A 
ATOM     20  C   UNL     1       0.218  11.780  21.062  0.00  0.00    +0.000 A 
ENDROOT
BRANCH   1  21
ATOM     21  O   UNL     1       1.141  10.190  19.562  0.00  0.00    +0.000 OA
BRANCH  21  22
ATOM     22  C   UNL     1       1.437  10.071  18.165  0.00  0.00    +0.000 C 
BRANCH  22  23
ATOM     23  C   UNL     1       2.423   8.928  17.895  0.00  0.00    +0.000 C 
BRANCH  23  26
ATOM     24  O   UNL     1       3.800   6.472  17.698  0.00  0.00    +0.000 OA
ATOM     25  C   UNL     1       2.715   6.512  18.265  0.00  0.00    +0.000 C 
ATOM     26  N   UNL     1       1.992   7.667  18.448  0.00  0.00    +0.000 N 
ATOM     27  H   UNL     1       1.201   7.672  19.077  0.00  0.00    +0.000 HD
BRANCH  25  28
ATOM     28  C   UNL     1       2.110   5.280  18.833  0.00  0.00    +0.000 A 
ATOM     29  C   UNL     1       1.739   4.253  17.959  0.00  0.00    +0.000 A 
ATOM     30  C   UNL     1       1.176   3.082  18.464  0.00  0.00    +0.000 A 
ATOM     31  C   UNL     1       0.970   2.941  19.836  0.00  0.00    +0.000 A 
ATOM     32  C   UNL     1       1.320   3.971  20.710  0.00  0.00    +0.000 A 
ATOM     33  C   UNL     1       1.884   5.143  20.211  0.00  0.00    +0.000 A 
ENDBRANCH  25  28
ENDBRANCH  23  26
ENDBRANCH  22  23
ENDBRANCH  21  22
ENDBRANCH   1  21
TORSDOF 5
ENDMDL
MODEL 8
REMARK VINA RESULT:      -8.4      4.134      7.998
REMARK  Name = 
REMARK  5 active torsions:
REMARK  status: ('A' for Active; 'I' for Inactive)
REMARK    1  A    between atoms: C_2  and  C_27
REMARK    2  A    between atoms: N_3  and  C_4
REMARK    3  A    between atoms: C_4  and  C_5
REMARK    4  A    between atoms: C_5  and  O_6
REMARK    5  A    between atoms: O_6  and  C_7
REMARK                            x       y       z     vdW  Elec       q    Type
REMARK                         _______ _______ _______ _____ _____    ______ ____
ROOT
ATOM      1  C   UNL     1       3.512   6.209  18.346  0.00  0.00    +0.000 A 
ATOM      2  N   UNL     1       2.938   7.411  18.150  0.00  0.00    +0.000 NA
ATOM      3  C   UNL     1       1.962   7.771  18.988  0.00  0.00    +0.000 A 
ATOM      4  N   UNL     1       1.413   9.032  18.878  0.00  0.00    +0.000 N 
ATOM      5  C   UNL     1       0.504   9.466  19.935  0.00  0.00    +0.000 C 
ATOM      6  C   UNL     1      -0.186  10.790  19.596  0.00  0.00    +0.000 C 
ATOM      7  C   UNL     1       0.844  11.824  19.237  0.00  0.00    +0.000 A 
ATOM      8  C   UNL     1       0.730  13.156  19.647  0.00  0.00    +0.000 A 
ATOM      9  C   UNL     1       1.710  14.080  19.291  0.00  0.00    +0.000 A 
ATOM     10  C   UNL     1       2.797  13.682  18.513  0.00  0.00    +0.000 A 
ATOM     11  C   UNL     1       2.904  12.359  18.084  0.00  0.00    +0.000 A 
ATOM     12  C   UNL     1       1.932  11.416  18.448  0.00  0.00    +0.000 A 
ATOM     13  C   UNL     1       1.998   9.987  17.944  0.00  0.00    +0.000 C 
ATOM     14  N   UNL     1       1.509   6.956  19.952  0.00  0.00    +0.000 NA
ATOM     15  C   UNL     1       2.068   5.751  20.112  0.00  0.00    +0.000 A 
ATOM     16  C   UNL     1       1.595   4.913  21.112  0.00  0.00    +0.000 A 
ATOM     17  C   UNL     1       2.161   3.657  21.354  0.00  0.00    +0.000 A 
ATOM     18  C   UNL     1       3.240   3.227  20.592  0.00  0.00    +0.000 A 
ATOM     19  C   UNL     1       3.726   4.046  19.577  0.00  0.00    +0.000 A 
ATOM     20  C   UNL     1       3.126   5.304  19.326  0.00  0.00    +0.000 A 
ENDROOT
BRANCH   1  21
ATOM     21  O   UNL     1       4.589   5.868  17.545  0.00  0.00    +0.000 OA
BRANCH  21  22
ATOM     22  C   UNL     1       5.840   5.897  18.244  0.00  0.00    +0.000 C 
BRANCH  22  23
ATOM     23  C   UNL     1       6.706   4.679  17.897  0.00  0.00    +0.000 C 
BRANCH  23  26
ATOM     24  O   UNL     1       7.729   6.138  15.708  0.00  0.00    +0.000 OA
ATOM     25  C   UNL     1       7.114   5.099  15.506  0.00  0.00    +0.000 C 
ATOM     26  N   UNL     1       6.616   4.299  16.507  0.00  0.00    +0.000 N 
ATOM     27  H   UNL     1       6.282   3.370  16.292  0.00  0.00    +0.000 HD
BRANCH  25  28
ATOM     28  C   UNL     1       6.886   4.609  14.122  0.00  0.00    +0.000 A 
ATOM     29  C   UNL     1       5.837   3.712  13.895  0.00  0.00    +0.000 A 
ATOM     30  C   UNL     1       5.594   3.241  12.606  0.00  0.00    +0.000 A 
ATOM     31  C   UNL     1       6.403   3.654  11.547  0.00  0.00    +0.000 A 
ATOM     32  C   UNL     1       7.463   4.532  11.772  0.00  0.00    +0.000 A 
ATOM     33  C   UNL     1       7.710   5.007  13.059  0.00  0.00    +0.000 A 
ENDBRANCH  25  28
ENDBRANCH  23  26
ENDBRANCH  22  23
ENDBRANCH  21  22
ENDBRANCH   1  21
TORSDOF 5
ENDMDL
MODEL 9
REMARK VINA RESULT:      -8.2      7.356     10.885
REMARK  Name = 
REMARK  5 active torsions:
REMARK  status: ('A' for Active; 'I' for Inactive)
REMARK    1  A    between atoms: C_2  and  C_27
REMARK    2  A    between atoms: N_3  and  C_4
REMARK    3  A    between atoms: C_4  and  C_5
REMARK    4  A    between atoms: C_5  and  O_6
REMARK    5  A    between atoms: O_6  and  C_7
REMARK                            x       y       z     vdW  Elec       q    Type
REMARK                         _______ _______ _______ _____ _____    ______ ____
ROOT
ATOM      1  C   UNL     1       0.598   9.883  19.558  0.00  0.00    +0.000 A 
ATOM      2  N   UNL     1       1.327   8.769  19.359  0.00  0.00    +0.000 NA
ATOM      3  C   UNL     1       1.429   7.910  20.377  0.00  0.00    +0.000 A 
ATOM      4  N   UNL     1       2.087   6.713  20.184  0.00  0.00    +0.000 N 
ATOM      5  C   UNL     1       1.997   5.716  21.247  0.00  0.00    +0.000 C 
ATOM      6  C   UNL     1       2.927   4.525  21.000  0.00  0.00    +0.000 C 
ATOM      7  C   UNL     1       2.679   3.958  19.630  0.00  0.00    +0.000 A 
ATOM      8  C   UNL     1       2.683   2.581  19.386  0.00  0.00    +0.000 A 
ATOM      9  C   UNL     1       2.447   2.102  18.099  0.00  0.00    +0.000 A 
ATOM     10  C   UNL     1       2.221   2.994  17.051  0.00  0.00    +0.000 A 
ATOM     11  C   UNL     1       2.238   4.370  17.286  0.00  0.00    +0.000 A 
ATOM     12  C   UNL     1       2.459   4.864  18.579  0.00  0.00    +0.000 A 
ATOM     13  C   UNL     1       2.540   6.355  18.845  0.00  0.00    +0.000 C 
ATOM     14  N   UNL     1       0.890   8.159  21.581  0.00  0.00    +0.000 NA
ATOM     15  C   UNL     1       0.197   9.288  21.771  0.00  0.00    +0.000 A 
ATOM     16  C   UNL     1      -0.357   9.539  23.018  0.00  0.00    +0.000 A 
ATOM     17  C   UNL     1      -1.123  10.682  23.271  0.00  0.00    +0.000 A 
ATOM     18  C   UNL     1      -1.360  11.594  22.251  0.00  0.00    +0.000 A 
ATOM     19  C   UNL     1      -0.807  11.369  20.994  0.00  0.00    +0.000 A 
ATOM     20  C   UNL     1      -0.011  10.220  20.759  0.00  0.00    +0.000 A 
ENDROOT
BRANCH   1  21
ATOM     21  O   UNL     1       0.406  10.732  18.480  0.00  0.00    +0.000 OA
BRANCH  21  22
ATOM     22  C   UNL     1      -0.784  10.436  17.738  0.00  0.00    +0.000 C 
BRANCH  22  23
ATOM     23  C   UNL     1      -1.615  11.699  17.481  0.00  0.00    +0.000 C 
BRANCH  23  26
ATOM     24  O   UNL     1      -4.283  11.027  16.851  0.00  0.00    +0.000 OA
ATOM     25  C   UNL     1      -4.024  11.500  17.951  0.00  0.00    +0.000 C 
ATOM     26  N   UNL     1      -2.751  11.818  18.364  0.00  0.00    +0.000 N 
ATOM     27  H   UNL     1      -2.575  12.029  19.336  0.00  0.00    +0.000 HD
BRANCH  25  28
ATOM     28  C   UNL     1      -5.099  11.740  18.946  0.00  0.00    +0.000 A 
ATOM     29  C   UNL     1      -6.371  11.212  18.698  0.00  0.00    +0.000 A 
ATOM     30  C   UNL     1      -7.398  11.414  19.618  0.00  0.00    +0.000 A 
ATOM     31  C   UNL     1      -7.161  12.152  20.778  0.00  0.00    +0.000 A 
ATOM     32  C   UNL     1      -5.901  12.697  21.020  0.00  0.00    +0.000 A 
ATOM     33  C   UNL     1      -4.870  12.497  20.105  0.00  0.00    +0.000 A 
ENDBRANCH  25  28
ENDBRANCH  23  26
ENDBRANCH  22  23
ENDBRANCH  21  22
ENDBRANCH   1  21
TORSDOF 5
ENDMDL
