MODEL 1
REMARK VINA RESULT:      -6.9      0.000      0.000
REMARK  Name = 
REMARK  8 active torsions:
REMARK  status: ('A' for Active; 'I' for Inactive)
REMARK    1  A    between atoms: C_1  and  C_2
REMARK    2  A    between atoms: C_2  and  N_3
REMARK    3  A    between atoms: C_6  and  O_7
REMARK    4  A    between atoms: O_7  and  C_8
REMARK    5  A    between atoms: C_8  and  C_10
REMARK    6  A    between atoms: C_11  and  C_12
REMARK    7  A    between atoms: C_14  and  C_15
REMARK    8  A    between atoms: C_16  and  C_17
REMARK                            x       y       z     vdW  Elec       q    Type
REMARK                         _______ _______ _______ _____ _____    ______ ____
ROOT
ATOM      1  C   UNL     1       3.228   4.125  17.661  0.00  0.00    +0.000 C 
ATOM      2  O   UNL     1       2.527   3.502  16.876  0.00  0.00    +0.000 OA
ENDROOT
BRANCH   1   3
ATOM      3  C   UNL     1       2.726   4.833  18.838  0.00  0.00    +0.000 A 
ATOM      4  C   UNL     1       2.580   4.306  20.117  0.00  0.00    +0.000 A 
ATOM      5  C   UNL     1       2.830   2.941  20.652  0.00  0.00    +0.000 C 
ATOM      6  N   UNL     1       2.177   5.321  20.945  0.00  0.00    +0.000 N 
ATOM      7  C   UNL     1       2.033   6.486  20.236  0.00  0.00    +0.000 A 
ATOM      8  C   UNL     1       1.634   7.762  20.889  0.00  0.00    +0.000 C 
ATOM      9  C   UNL     1       2.311   6.213  18.907  0.00  0.00    +0.000 A 
ATOM     10  C   UNL     1       2.190   7.156  17.763  0.00  0.00    +0.000 C 
ATOM     11  H   UNL     1       2.018   5.227  21.942  0.00  0.00    +0.000 HD
ENDBRANCH   1   3
BRANCH   1  12
ATOM     12  O   UNL     1       4.574   4.207  17.606  0.00  0.00    +0.000 OA
BRANCH  12  16
ATOM     13  N   UNL     1       7.222   6.507  17.217  0.00  0.00    +0.000 NA
ATOM     14  C   UNL     1       7.428   5.073  17.475  0.00  0.00    +0.000 C 
ATOM     15  C   UNL     1       6.749   4.234  16.401  0.00  0.00    +0.000 C 
ATOM     16  C   UNL     1       5.250   4.513  16.364  0.00  0.00    +0.000 C 
ATOM     17  C   UNL     1       5.038   6.013  16.151  0.00  0.00    +0.000 C 
ATOM     18  C   UNL     1       5.788   6.836  17.217  0.00  0.00    +0.000 C 
BRANCH  13  20
ATOM     19  C   UNL     1       8.112   8.773  17.897  0.00  0.00    +0.000 C 
ATOM     20  C   UNL     1       8.022   7.279  18.181  0.00  0.00    +0.000 C 
ENDBRANCH  13  20
ENDBRANCH  12  16
ENDBRANCH   1  12
TORSDOF 4
ENDMDL
MODEL 2
REMARK VINA RESULT:      -6.8      1.625      6.188
REMARK  Name = 
REMARK  8 active torsions:
REMARK  status: ('A' for Active; 'I' for Inactive)
REMARK    1  A    between atoms: C_1  and  C_2
REMARK    2  A    between atoms: C_2  and  N_3
REMARK    3  A    between atoms: C_6  and  O_7
REMARK    4  A    between atoms: O_7  and  C_8
REMARK    5  A    between atoms: C_8  and  C_10
REMARK    6  A    between atoms: C_11  and  C_12
REMARK    7  A    between atoms: C_14  and  C_15
REMARK    8  A    between atoms: C_16  and  C_17
REMARK                            x       y       z     vdW  Elec       q    Type
REMARK                         _______ _______ _______ _____ _____    ______ ____
ROOT
ATOM      1  C   UNL     1       6.015   5.112  18.851  0.00  0.00    +0.000 C 
ATOM      2  O   UNL     1       6.735   5.203  19.835  0.00  0.00    +0.000 OA
ENDROOT
BRANCH   1   3
ATOM      3  C   UNL     1       6.456   5.347  17.478  0.00  0.00    +0.000 A 
ATOM      4  C   UNL     1       7.222   6.419  17.030  0.00  0.00    +0.000 A 
ATOM      5  C   UNL     1       7.763   7.606  17.743  0.00  0.00    +0.000 C 
ATOM      6  N   UNL     1       7.498   6.211  15.703  0.00  0.00    +0.000 N 
ATOM      7  C   UNL     1       6.915   5.048  15.271  0.00  0.00    +0.000 A 
ATOM      8  C   UNL     1       7.076   4.555  13.877  0.00  0.00    +0.000 C 
ATOM      9  C   UNL     1       6.208   4.506  16.332  0.00  0.00    +0.000 A 
ATOM     10  C   UNL     1       5.342   3.297  16.296  0.00  0.00    +0.000 C 
ATOM     11  H   UNL     1       8.063   6.824  15.126  0.00  0.00    +0.000 HD
ENDBRANCH   1   3
BRANCH   1  12
ATOM     12  O   UNL     1       4.723   4.721  18.867  0.00  0.00    +0.000 OA
BRANCH  12  16
ATOM     13  N   UNL     1       1.351   4.205  19.768  0.00  0.00    +0.000 NA
ATOM     14  C   UNL     1       2.345   4.808  20.670  0.00  0.00    +0.000 C 
ATOM     15  C   UNL     1       2.967   6.043  20.031  0.00  0.00    +0.000 C 
ATOM     16  C   UNL     1       3.653   5.683  18.716  0.00  0.00    +0.000 C 
ATOM     17  C   UNL     1       2.631   5.007  17.801  0.00  0.00    +0.000 C 
ATOM     18  C   UNL     1       1.975   3.799  18.500  0.00  0.00    +0.000 C 
BRANCH  13  20
ATOM     19  C   UNL     1       1.411   2.564  21.689  0.00  0.00    +0.000 C 
ATOM     20  C   UNL     1       0.664   3.118  20.482  0.00  0.00    +0.000 C 
ENDBRANCH  13  20
ENDBRANCH  12  16
ENDBRANCH   1  12
TORSDOF 4
ENDMDL
MODEL 3
REMARK VINA RESULT:      -6.7      1.294      2.435
REMARK  Name = 
REMARK  8 active torsions:
REMARK  status: ('A' for Active; 'I' for Inactive)
REMARK    1  A    between atoms: C_1  and  C_2
REMARK    2  A    between atoms: C_2  and  N_3
REMARK    3  A    between atoms: C_6  and  O_7
REMARK    4  A    between atoms: O_7  and  C_8
REMARK    5  A    between atoms: C_8  and  C_10
REMARK    6  A    between atoms: C_11  and  C_12
REMARK    7  A    between atoms: C_14  and  C_15
REMARK    8  A    between atoms: C_16  and  C_17
REMARK                            x       y       z     vdW  Elec       q    Type
REMARK                         _______ _______ _______ _____ _____    ______ ____
ROOT
ATOM      1  C   UNL     1       3.401   4.787  18.036  0.00  0.00    +0.000 C 
ATOM      2  O   UNL     1       2.819   4.285  17.084  0.00  0.00    +0.000 OA
ENDROOT
BRANCH   1   3
ATOM      3  C   UNL     1       2.739   5.477  19.141  0.00  0.00    +0.000 A 
ATOM      4  C   UNL     1       2.424   4.932  20.382  0.00  0.00    +0.000 A 
ATOM      5  C   UNL     1       2.606   3.561  20.929  0.00  0.00    +0.000 C 
ATOM      6  N   UNL     1       1.905   5.934  21.160  0.00  0.00    +0.000 N 
ATOM      7  C   UNL     1       1.851   7.107  20.453  0.00  0.00    +0.000 A 
ATOM      8  C   UNL     1       1.360   8.373  21.061  0.00  0.00    +0.000 C 
ATOM      9  C   UNL     1       2.310   6.854  19.171  0.00  0.00    +0.000 A 
ATOM     10  C   UNL     1       2.340   7.812  18.034  0.00  0.00    +0.000 C 
ATOM     11  H   UNL     1       1.612   5.826  22.125  0.00  0.00    +0.000 HD
ENDBRANCH   1   3
BRANCH   1  12
ATOM     12  O   UNL     1       4.733   4.730  18.250  0.00  0.00    +0.000 OA
BRANCH  12  16
ATOM     13  N   UNL     1       6.990   5.401  15.622  0.00  0.00    +0.000 NA
ATOM     14  C   UNL     1       5.589   5.852  15.619  0.00  0.00    +0.000 C 
ATOM     15  C   UNL     1       5.300   6.704  16.848  0.00  0.00    +0.000 C 
ATOM     16  C   UNL     1       5.556   5.913  18.127  0.00  0.00    +0.000 C 
ATOM     17  C   UNL     1       6.996   5.399  18.102  0.00  0.00    +0.000 C 
ATOM     18  C   UNL     1       7.275   4.593  16.817  0.00  0.00    +0.000 C 
BRANCH  13  20
ATOM     19  C   UNL     1       6.103   3.927  13.770  0.00  0.00    +0.000 C 
ATOM     20  C   UNL     1       7.268   4.720  14.348  0.00  0.00    +0.000 C 
ENDBRANCH  13  20
ENDBRANCH  12  16
ENDBRANCH   1  12
TORSDOF 4
ENDMDL
MODEL 4
REMARK VINA RESULT:      -6.6      1.251      1.446
REMARK  Name = 
REMARK  8 active torsions:
REMARK  status: ('A' for Active; 'I' for Inactive)
REMARK    1  A    between atoms: C_1  and  C_2
REMARK    2  A    between atoms: C_2  and  N_3
REMARK    3  A    between atoms: C_6  and  O_7
REMARK    4  A    between atoms: O_7  and  C_8
REMARK    5  A    between atoms: C_8  and  C_10
REMARK    6  A    between atoms: C_11  and  C_12
REMARK    7  A    between atoms: C_14  and  C_15
REMARK    8  A    between atoms: C_16  and  C_17
REMARK                            x       y       z     vdW  Elec       q    Type
REMARK                         _______ _______ _______ _____ _____    ______ ____
ROOT
ATOM      1  C   UNL     1       2.302   4.752  17.810  0.00  0.00    +0.000 C 
ATOM      2  O   UNL     1       1.501   3.983  17.299  0.00  0.00    +0.000 OA
ENDROOT
BRANCH   1   3
ATOM      3  C   UNL     1       2.029   5.569  18.992  0.00  0.00    +0.000 A 
ATOM      4  C   UNL     1       1.772   5.099  20.276  0.00  0.00    +0.000 A 
ATOM      5  C   UNL     1       1.659   3.717  20.813  0.00  0.00    +0.000 C 
ATOM      6  N   UNL     1       1.669   6.185  21.106  0.00  0.00    +0.000 N 
ATOM      7  C   UNL     1       1.827   7.346  20.395  0.00  0.00    +0.000 A 
ATOM      8  C   UNL     1       1.796   8.682  21.048  0.00  0.00    +0.000 C 
ATOM      9  C   UNL     1       1.998   7.009  19.062  0.00  0.00    +0.000 A 
ATOM     10  C   UNL     1       2.111   7.951  17.916  0.00  0.00    +0.000 C 
ATOM     11  H   UNL     1       1.509   6.136  22.107  0.00  0.00    +0.000 HD
ENDBRANCH   1   3
BRANCH   1  12
ATOM     12  O   UNL     1       3.579   4.925  17.408  0.00  0.00    +0.000 OA
BRANCH  12  16
ATOM     13  N   UNL     1       6.993   5.399  18.164  0.00  0.00    +0.000 NA
ATOM     14  C   UNL     1       5.959   5.188  19.190  0.00  0.00    +0.000 C 
ATOM     15  C   UNL     1       5.226   3.875  18.947  0.00  0.00    +0.000 C 
ATOM     16  C   UNL     1       4.560   3.875  17.574  0.00  0.00    +0.000 C 
ATOM     17  C   UNL     1       5.627   4.150  16.514  0.00  0.00    +0.000 C 
ATOM     18  C   UNL     1       6.393   5.452  16.823  0.00  0.00    +0.000 C 
BRANCH  13  20
ATOM     19  C   UNL     1       7.675   7.754  17.549  0.00  0.00    +0.000 C 
ATOM     20  C   UNL     1       7.779   6.590  18.525  0.00  0.00    +0.000 C 
ENDBRANCH  13  20
ENDBRANCH  12  16
ENDBRANCH   1  12
TORSDOF 4
ENDMDL
MODEL 5
REMARK VINA RESULT:      -6.4      1.589      5.889
REMARK  Name = 
REMARK  8 active torsions:
REMARK  status: ('A' for Active; 'I' for Inactive)
REMARK    1  A    between atoms: C_1  and  C_2
REMARK    2  A    between atoms: C_2  and  N_3
REMARK    3  A    between atoms: C_6  and  O_7
REMARK    4  A    between atoms: O_7  and  C_8
REMARK    5  A    between atoms: C_8  and  C_10
REMARK    6  A    between atoms: C_11  and  C_12
REMARK    7  A    between atoms: C_14  and  C_15
REMARK    8  A    between atoms: C_16  and  C_17
REMARK                            x       y       z     vdW  Elec       q    Type
REMARK                         _______ _______ _______ _____ _____    ______ ____
ROOT
ATOM      1  C   UNL     1       5.429   4.909  18.778  0.00  0.00    +0.000 C 
ATOM      2  O   UNL     1       5.711   3.961  19.497  0.00  0.00    +0.000 OA
ENDROOT
BRANCH   1   3
ATOM      3  C   UNL     1       6.060   5.186  17.488  0.00  0.00    +0.000 A 
ATOM      4  C   UNL     1       7.075   6.108  17.248  0.00  0.00    +0.000 A 
ATOM      5  C   UNL     1       7.765   7.067  18.151  0.00  0.00    +0.000 C 
ATOM      6  N   UNL     1       7.449   5.986  15.935  0.00  0.00    +0.000 N 
ATOM      7  C   UNL     1       6.691   5.031  15.310  0.00  0.00    +0.000 A 
ATOM      8  C   UNL     1       6.902   4.665  13.883  0.00  0.00    +0.000 C 
ATOM      9  C   UNL     1       5.774   4.546  16.228  0.00  0.00    +0.000 A 
ATOM     10  C   UNL     1       4.687   3.565  15.964  0.00  0.00    +0.000 C 
ATOM     11  H   UNL     1       8.189   6.520  15.492  0.00  0.00    +0.000 HD
ENDBRANCH   1   3
BRANCH   1  12
ATOM     12  O   UNL     1       4.455   5.810  19.025  0.00  0.00    +0.000 OA
BRANCH  12  16
ATOM     13  N   UNL     1       1.480   7.182  20.336  0.00  0.00    +0.000 NA
ATOM     14  C   UNL     1       2.300   7.855  19.316  0.00  0.00    +0.000 C 
ATOM     15  C   UNL     1       2.463   6.968  18.090  0.00  0.00    +0.000 C 
ATOM     16  C   UNL     1       3.132   5.648  18.462  0.00  0.00    +0.000 C 
ATOM     17  C   UNL     1       2.308   4.976  19.561  0.00  0.00    +0.000 C 
ATOM     18  C   UNL     1       2.109   5.922  20.763  0.00  0.00    +0.000 C 
BRANCH  13  20
ATOM     19  C   UNL     1      -0.194   8.704  21.462  0.00  0.00    +0.000 C 
ATOM     20  C   UNL     1       1.216   8.129  21.430  0.00  0.00    +0.000 C 
ENDBRANCH  13  20
ENDBRANCH  12  16
ENDBRANCH   1  12
TORSDOF 4
ENDMDL
MODEL 6
REMARK VINA RESULT:      -6.4      0.870      2.313
REMARK  Name = 
REMARK  8 active torsions:
REMARK  status: ('A' for Active; 'I' for Inactive)
REMARK    1  A    between atoms: C_1  and  C_2
REMARK    2  A    between atoms: C_2  and  N_3
REMARK    3  A    between atoms: C_6  and  O_7
REMARK    4  A    between atoms: O_7  and  C_8
REMARK    5  A    between atoms: C_8  and  C_10
REMARK    6  A    between atoms: C_11  and  C_12
REMARK    7  A    between atoms: C_14  and  C_15
REMARK    8  A    between atoms: C_16  and  C_17
REMARK                            x       y       z     vdW  Elec       q    Type
REMARK                         _______ _______ _______ _____ _____    ______ ____
ROOT
ATOM      1  C   UNL     1       3.279   3.957  17.280  0.00  0.00    +0.000 C 
ATOM      2  O   UNL     1       2.570   3.675  16.325  0.00  0.00    +0.000 OA
ENDROOT
BRANCH   1   3
ATOM      3  C   UNL     1       2.814   4.033  18.664  0.00  0.00    +0.000 A 
ATOM      4  C   UNL     1       2.509   5.193  19.368  0.00  0.00    +0.000 A 
ATOM      5  C   UNL     1       2.592   6.627  18.984  0.00  0.00    +0.000 C 
ATOM      6  N   UNL     1       2.016   4.822  20.593  0.00  0.00    +0.000 N 
ATOM      7  C   UNL     1       2.015   3.456  20.713  0.00  0.00    +0.000 A 
ATOM      8  C   UNL     1       1.502   2.771  21.929  0.00  0.00    +0.000 C 
ATOM      9  C   UNL     1       2.558   2.927  19.553  0.00  0.00    +0.000 A 
ATOM     10  C   UNL     1       2.840   1.492  19.281  0.00  0.00    +0.000 C 
ATOM     11  H   UNL     1       1.688   5.466  21.304  0.00  0.00    +0.000 HD
ENDBRANCH   1   3
BRANCH   1  12
ATOM     12  O   UNL     1       4.609   4.182  17.221  0.00  0.00    +0.000 OA
BRANCH  12  16
ATOM     13  N   UNL     1       7.150   6.625  17.052  0.00  0.00    +0.000 NA
ATOM     14  C   UNL     1       7.421   5.180  17.117  0.00  0.00    +0.000 C 
ATOM     15  C   UNL     1       6.737   4.456  15.964  0.00  0.00    +0.000 C 
ATOM     16  C   UNL     1       5.228   4.673  16.009  0.00  0.00    +0.000 C 
ATOM     17  C   UNL     1       4.950   6.177  15.997  0.00  0.00    +0.000 C 
ATOM     18  C   UNL     1       5.705   6.889  17.138  0.00  0.00    +0.000 C 
BRANCH  13  20
ATOM     19  C   UNL     1       8.112   8.805  17.894  0.00  0.00    +0.000 C 
ATOM     20  C   UNL     1       7.953   7.302  18.082  0.00  0.00    +0.000 C 
ENDBRANCH  13  20
ENDBRANCH  12  16
ENDBRANCH   1  12
TORSDOF 4
ENDMDL
MODEL 7
REMARK VINA RESULT:      -6.4      1.355      2.620
REMARK  Name = 
REMARK  8 active torsions:
REMARK  status: ('A' for Active; 'I' for Inactive)
REMARK    1  A    between atoms: C_1  and  C_2
REMARK    2  A    between atoms: C_2  and  N_3
REMARK    3  A    between atoms: C_6  and  O_7
REMARK    4  A    between atoms: O_7  and  C_8
REMARK    5  A    between atoms: C_8  and  C_10
REMARK    6  A    between atoms: C_11  and  C_12
REMARK    7  A    between atoms: C_14  and  C_15
REMARK    8  A    between atoms: C_16  and  C_17
REMARK                            x       y       z     vdW  Elec       q    Type
REMARK                         _______ _______ _______ _____ _____    ______ ____
ROOT
ATOM      1  C   UNL     1       1.976   4.625  17.670  0.00  0.00    +0.000 C 
ATOM      2  O   UNL     1       1.008   4.466  16.940  0.00  0.00    +0.000 OA
ENDROOT
BRANCH   1   3
ATOM      3  C   UNL     1       1.977   4.376  19.111  0.00  0.00    +0.000 A 
ATOM      4  C   UNL     1       2.088   5.335  20.113  0.00  0.00    +0.000 A 
ATOM      5  C   UNL     1       2.270   6.809  20.047  0.00  0.00    +0.000 C 
ATOM      6  N   UNL     1       1.945   4.699  21.319  0.00  0.00    +0.000 N 
ATOM      7  C   UNL     1       1.768   3.353  21.130  0.00  0.00    +0.000 A 
ATOM      8  C   UNL     1       1.554   2.418  22.268  0.00  0.00    +0.000 C 
ATOM      9  C   UNL     1       1.838   3.100  19.770  0.00  0.00    +0.000 A 
ATOM     10  C   UNL     1       1.796   1.767  19.112  0.00  0.00    +0.000 C 
ATOM     11  H   UNL     1       1.956   5.161  22.222  0.00  0.00    +0.000 HD
ENDBRANCH   1   3
BRANCH   1  12
ATOM     12  O   UNL     1       3.209   4.991  17.259  0.00  0.00    +0.000 OA
BRANCH  12  16
ATOM     13  N   UNL     1       6.655   5.717  17.043  0.00  0.00    +0.000 NA
ATOM     14  C   UNL     1       5.966   5.433  18.313  0.00  0.00    +0.000 C 
ATOM     15  C   UNL     1       5.290   4.069  18.260  0.00  0.00    +0.000 C 
ATOM     16  C   UNL     1       4.269   4.016  17.127  0.00  0.00    +0.000 C 
ATOM     17  C   UNL     1       4.976   4.366  15.816  0.00  0.00    +0.000 C 
ATOM     18  C   UNL     1       5.702   5.722  15.923  0.00  0.00    +0.000 C 
BRANCH  13  20
ATOM     19  C   UNL     1       8.076   7.161  18.554  0.00  0.00    +0.000 C 
ATOM     20  C   UNL     1       7.423   6.963  17.192  0.00  0.00    +0.000 C 
ENDBRANCH  13  20
ENDBRANCH  12  16
ENDBRANCH   1  12
TORSDOF 4
ENDMDL
MODEL 8
REMARK VINA RESULT:      -6.2      1.549      5.860
REMARK  Name = 
REMARK  8 active torsions:
REMARK  status: ('A' for Active; 'I' for Inactive)
REMARK    1  A    between atoms: C_1  and  C_2
REMARK    2  A    between atoms: C_2  and  N_3
REMARK    3  A    between atoms: C_6  and  O_7
REMARK    4  A    between atoms: O_7  and  C_8
REMARK    5  A    between atoms: C_8  and  C_10
REMARK    6  A    between atoms: C_11  and  C_12
REMARK    7  A    between atoms: C_14  and  C_15
REMARK    8  A    between atoms: C_16  and  C_17
REMARK                            x       y       z     vdW  Elec       q    Type
REMARK                         _______ _______ _______ _____ _____    ______ ____
ROOT
ATOM      1  C   UNL     1       5.518   4.601  17.793  0.00  0.00    +0.000 C 
ATOM      2  O   UNL     1       5.662   3.592  17.116  0.00  0.00    +0.000 OA
ENDROOT
BRANCH   1   3
ATOM      3  C   UNL     1       6.264   5.843  17.596  0.00  0.00    +0.000 A 
ATOM      4  C   UNL     1       6.050   6.782  16.592  0.00  0.00    +0.000 A 
ATOM      5  C   UNL     1       5.093   6.803  15.453  0.00  0.00    +0.000 C 
ATOM      6  N   UNL     1       6.889   7.840  16.822  0.00  0.00    +0.000 N 
ATOM      7  C   UNL     1       7.659   7.606  17.932  0.00  0.00    +0.000 A 
ATOM      8  C   UNL     1       8.640   8.604  18.437  0.00  0.00    +0.000 C 
ATOM      9  C   UNL     1       7.340   6.347  18.413  0.00  0.00    +0.000 A 
ATOM     10  C   UNL     1       7.994   5.638  19.546  0.00  0.00    +0.000 C 
ATOM     11  H   UNL     1       6.929   8.682  16.258  0.00  0.00    +0.000 HD
ENDBRANCH   1   3
BRANCH   1  12
ATOM     12  O   UNL     1       4.613   4.750  18.783  0.00  0.00    +0.000 OA
BRANCH  12  16
ATOM     13  N   UNL     1       1.312   4.034  19.804  0.00  0.00    +0.000 NA
ATOM     14  C   UNL     1       2.283   4.749  20.649  0.00  0.00    +0.000 C 
ATOM     15  C   UNL     1       2.795   5.994  19.937  0.00  0.00    +0.000 C 
ATOM     16  C   UNL     1       3.471   5.624  18.620  0.00  0.00    +0.000 C 
ATOM     17  C   UNL     1       2.479   4.834  17.767  0.00  0.00    +0.000 C 
ATOM     18  C   UNL     1       1.932   3.615  18.538  0.00  0.00    +0.000 C 
BRANCH  13  20
ATOM     19  C   UNL     1       1.526   2.516  21.814  0.00  0.00    +0.000 C 
ATOM     20  C   UNL     1       0.727   2.934  20.586  0.00  0.00    +0.000 C 
ENDBRANCH  13  20
ENDBRANCH  12  16
ENDBRANCH   1  12
TORSDOF 4
ENDMDL
MODEL 9
REMARK VINA RESULT:      -6.2      1.944      3.844
REMARK  Name = 
REMARK  8 active torsions:
REMARK  status: ('A' for Active; 'I' for Inactive)
REMARK    1  A    between atoms: C_1  and  C_2
REMARK    2  A    between atoms: C_2  and  N_3
REMARK    3  A    between atoms: C_6  and  O_7
REMARK    4  A    between atoms: O_7  and  C_8
REMARK    5  A    between atoms: C_8  and  C_10
REMARK    6  A    between atoms: C_11  and  C_12
REMARK    7  A    between atoms: C_14  and  C_15
REMARK    8  A    between atoms: C_16  and  C_17
REMARK                            x       y       z     vdW  Elec       q    Type
REMARK                         _______ _______ _______ _____ _____    ______ ____
ROOT
ATOM      1  C   UNL     1       5.235   5.070  19.105  0.00  0.00    +0.000 C 
ATOM      2  O   UNL     1       6.233   5.285  19.778  0.00  0.00    +0.000 OA
ENDROOT
BRANCH   1   3
ATOM      3  C   UNL     1       3.912   4.780  19.655  0.00  0.00    +0.000 A 
ATOM      4  C   UNL     1       2.839   5.662  19.731  0.00  0.00    +0.000 A 
ATOM      5  C   UNL     1       2.714   7.093  19.345  0.00  0.00    +0.000 C 
ATOM      6  N   UNL     1       1.760   4.970  20.217  0.00  0.00    +0.000 N 
ATOM      7  C   UNL     1       2.108   3.671  20.482  0.00  0.00    +0.000 A 
ATOM      8  C   UNL     1       1.122   2.678  20.990  0.00  0.00    +0.000 C 
ATOM      9  C   UNL     1       3.455   3.524  20.198  0.00  0.00    +0.000 A 
ATOM     10  C   UNL     1       4.283   2.309  20.426  0.00  0.00    +0.000 C 
ATOM     11  H   UNL     1       0.834   5.361  20.352  0.00  0.00    +0.000 HD
ENDBRANCH   1   3
BRANCH   1  12
ATOM     12  O   UNL     1       5.179   5.127  17.758  0.00  0.00    +0.000 OA
BRANCH  12  16
ATOM     13  N   UNL     1       6.449   4.852  14.477  0.00  0.00    +0.000 NA
ATOM     14  C   UNL     1       5.100   5.358  14.782  0.00  0.00    +0.000 C 
ATOM     15  C   UNL     1       5.178   6.554  15.721  0.00  0.00    +0.000 C 
ATOM     16  C   UNL     1       5.865   6.172  17.029  0.00  0.00    +0.000 C 
ATOM     17  C   UNL     1       7.245   5.596  16.705  0.00  0.00    +0.000 C 
ATOM     18  C   UNL     1       7.137   4.427  15.705  0.00  0.00    +0.000 C 
BRANCH  13  20
ATOM     19  C   UNL     1       7.119   4.072  12.168  0.00  0.00    +0.000 C 
ATOM     20  C   UNL     1       6.338   3.806  13.449  0.00  0.00    +0.000 C 
ENDBRANCH  13  20
ENDBRANCH  12  16
ENDBRANCH   1  12
TORSDOF 4
ENDMDL
