MODEL 1
REMARK VINA RESULT:      -7.2      0.000      0.000
REMARK  Name = 
REMARK  7 active torsions:
REMARK  status: ('A' for Active; 'I' for Inactive)
REMARK    1  A    between atoms: C_1  and  O_2
REMARK    2  A    between atoms: O_2  and  C_3
REMARK    3  A    between atoms: C_3  and  O_4
REMARK    4  A    between atoms: O_4  and  C_5
REMARK    5  A    between atoms: C_8  and  C_9
REMARK    6  A    between atoms: C_16  and  C_17
REMARK    7  A    between atoms: C_19  and  O_20
REMARK                            x       y       z     vdW  Elec       q    Type
REMARK                         _______ _______ _______ _____ _____    ______ ____
ROOT
ATOM      1  C   UNL     1       3.298   6.791  18.366  0.00  0.00    +0.000 A 
ATOM      2  C   UNL     1       4.300   7.019  17.425  0.00  0.00    +0.000 A 
ATOM      3  S   UNL     1       5.369   5.694  17.226  0.00  0.00    +0.000 S 
ATOM      4  C   UNL     1       4.531   4.831  18.389  0.00  0.00    +0.000 A 
ATOM      5  N   UNL     1       4.991   3.594  18.746  0.00  0.00    +0.000 N 
ATOM      6  C   UNL     1       4.350   2.901  19.743  0.00  0.00    +0.000 A 
ATOM      7  O   UNL     1       4.760   1.811  20.126  0.00  0.00    +0.000 OA
ATOM      8  C   UNL     1       3.119   3.527  20.320  0.00  0.00    +0.000 A 
ATOM      9  C   UNL     1       2.675   4.722  19.883  0.00  0.00    +0.000 A 
ATOM     10  C   UNL     1       3.428   5.465  18.907  0.00  0.00    +0.000 A 
ATOM     11  H   UNL     1       5.825   3.206  18.324  0.00  0.00    +0.000 HD
ENDROOT
BRANCH   1  15
ATOM     12  C   UNL     1       0.434   9.862  19.212  0.00  0.00    +0.000 A 
ATOM     13  C   UNL     1       0.895   9.669  17.910  0.00  0.00    +0.000 A 
ATOM     14  C   UNL     1       1.813   8.653  17.640  0.00  0.00    +0.000 A 
ATOM     15  C   UNL     1       2.335   7.855  18.669  0.00  0.00    +0.000 A 
ATOM     16  C   UNL     1       1.925   8.121  19.981  0.00  0.00    +0.000 A 
ATOM     17  C   UNL     1       0.962   9.098  20.248  0.00  0.00    +0.000 A 
BRANCH  12  18
ATOM     18  O   UNL     1      -0.512  10.779  19.575  0.00  0.00    +0.000 OA
BRANCH  18  19
ATOM     19  C   UNL     1      -1.294  11.298  18.502  0.00  0.00    +0.000 C 
BRANCH  19  21
ATOM     20  C   UNL     1      -2.682  10.044  17.079  0.00  0.00    +0.000 C 
ATOM     21  O   UNL     1      -2.535  10.599  18.378  0.00  0.00    +0.000 OA
ENDBRANCH  19  21
ENDBRANCH  18  19
ENDBRANCH  12  18
ENDBRANCH   1  15
BRANCH   8  22
ATOM     22  C   UNL     1       2.368   2.763  21.398  0.00  0.00    +0.000 C 
ATOM     23  N   UNL     1       1.746   2.129  22.293  0.00  0.00    +0.000 NA
ENDBRANCH   8  22
BRANCH   9  24
ATOM     24  O   UNL     1       1.493   5.303  20.294  0.00  0.00    +0.000 OA
ATOM     25  H   UNL     1       1.625   5.895  21.055  0.00  0.00    +0.000 HD
ENDBRANCH   9  24
TORSDOF 6
ENDMDL
MODEL 2
REMARK VINA RESULT:      -7.1      1.103      1.592
REMARK  Name = 
REMARK  7 active torsions:
REMARK  status: ('A' for Active; 'I' for Inactive)
REMARK    1  A    between atoms: C_1  and  O_2
REMARK    2  A    between atoms: O_2  and  C_3
REMARK    3  A    between atoms: C_3  and  O_4
REMARK    4  A    between atoms: O_4  and  C_5
REMARK    5  A    between atoms: C_8  and  C_9
REMARK    6  A    between atoms: C_16  and  C_17
REMARK    7  A    between atoms: C_19  and  O_20
REMARK                            x       y       z     vdW  Elec       q    Type
REMARK                         _______ _______ _______ _____ _____    ______ ____
ROOT
ATOM      1  C   UNL     1       3.198   6.850  18.392  0.00  0.00    +0.000 A 
ATOM      2  C   UNL     1       4.165   7.094  17.419  0.00  0.00    +0.000 A 
ATOM      3  S   UNL     1       5.225   5.771  17.158  0.00  0.00    +0.000 S 
ATOM      4  C   UNL     1       4.427   4.888  18.336  0.00  0.00    +0.000 A 
ATOM      5  N   UNL     1       4.898   3.645  18.655  0.00  0.00    +0.000 N 
ATOM      6  C   UNL     1       4.292   2.935  19.661  0.00  0.00    +0.000 A 
ATOM      7  O   UNL     1       4.714   1.838  20.010  0.00  0.00    +0.000 OA
ATOM      8  C   UNL     1       3.084   3.552  20.294  0.00  0.00    +0.000 A 
ATOM      9  C   UNL     1       2.626   4.756  19.894  0.00  0.00    +0.000 A 
ATOM     10  C   UNL     1       3.345   5.515  18.905  0.00  0.00    +0.000 A 
ATOM     11  H   UNL     1       5.715   3.264  18.195  0.00  0.00    +0.000 HD
ENDROOT
BRANCH   1  15
ATOM     12  C   UNL     1       0.372   9.910  19.395  0.00  0.00    +0.000 A 
ATOM     13  C   UNL     1       0.789   9.741  18.075  0.00  0.00    +0.000 A 
ATOM     14  C   UNL     1       1.695   8.730  17.753  0.00  0.00    +0.000 A 
ATOM     15  C   UNL     1       2.249   7.910  18.748  0.00  0.00    +0.000 A 
ATOM     16  C   UNL     1       1.884   8.151  20.079  0.00  0.00    +0.000 A 
ATOM     17  C   UNL     1       0.933   9.124  20.397  0.00  0.00    +0.000 A 
BRANCH  12  18
ATOM     18  O   UNL     1      -0.558  10.821  19.807  0.00  0.00    +0.000 OA
BRANCH  18  19
ATOM     19  C   UNL     1      -0.062  11.844  20.668  0.00  0.00    +0.000 C 
BRANCH  19  21
ATOM     20  C   UNL     1      -1.054  11.232  22.708  0.00  0.00    +0.000 C 
ATOM     21  O   UNL     1      -1.025  12.195  21.665  0.00  0.00    +0.000 OA
ENDBRANCH  19  21
ENDBRANCH  18  19
ENDBRANCH  12  18
ENDBRANCH   1  15
BRANCH   8  22
ATOM     22  C   UNL     1       2.371   2.771  21.385  0.00  0.00    +0.000 C 
ATOM     23  N   UNL     1       1.780   2.123  22.291  0.00  0.00    +0.000 NA
ENDBRANCH   8  22
BRANCH   9  24
ATOM     24  O   UNL     1       1.462   5.331  20.358  0.00  0.00    +0.000 OA
ATOM     25  H   UNL     1       0.923   4.701  20.868  0.00  0.00    +0.000 HD
ENDBRANCH   9  24
TORSDOF 6
ENDMDL
MODEL 3
REMARK VINA RESULT:      -7.1      1.108      1.926
REMARK  Name = 
REMARK  7 active torsions:
REMARK  status: ('A' for Active; 'I' for Inactive)
REMARK    1  A    between atoms: C_1  and  O_2
REMARK    2  A    between atoms: O_2  and  C_3
REMARK    3  A    between atoms: C_3  and  O_4
REMARK    4  A    between atoms: O_4  and  C_5
REMARK    5  A    between atoms: C_8  and  C_9
REMARK    6  A    between atoms: C_16  and  C_17
REMARK    7  A    between atoms: C_19  and  O_20
REMARK                            x       y       z     vdW  Elec       q    Type
REMARK                         _______ _______ _______ _____ _____    ______ ____
ROOT
ATOM      1  C   UNL     1       3.225   6.811  18.349  0.00  0.00    +0.000 A 
ATOM      2  C   UNL     1       4.183   7.051  17.367  0.00  0.00    +0.000 A 
ATOM      3  S   UNL     1       5.240   5.727  17.100  0.00  0.00    +0.000 S 
ATOM      4  C   UNL     1       4.452   4.848  18.288  0.00  0.00    +0.000 A 
ATOM      5  N   UNL     1       4.926   3.606  18.605  0.00  0.00    +0.000 N 
ATOM      6  C   UNL     1       4.329   2.899  19.620  0.00  0.00    +0.000 A 
ATOM      7  O   UNL     1       4.753   1.803  19.968  0.00  0.00    +0.000 OA
ATOM      8  C   UNL     1       3.127   3.518  20.261  0.00  0.00    +0.000 A 
ATOM      9  C   UNL     1       2.666   4.721  19.862  0.00  0.00    +0.000 A 
ATOM     10  C   UNL     1       3.376   5.477  18.865  0.00  0.00    +0.000 A 
ATOM     11  H   UNL     1       5.739   3.223  18.140  0.00  0.00    +0.000 HD
ENDROOT
BRANCH   1  15
ATOM     12  C   UNL     1       0.517   9.943  19.445  0.00  0.00    +0.000 A 
ATOM     13  C   UNL     1       1.004   9.064  20.411  0.00  0.00    +0.000 A 
ATOM     14  C   UNL     1       1.901   8.059  20.049  0.00  0.00    +0.000 A 
ATOM     15  C   UNL     1       2.279   7.871  18.711  0.00  0.00    +0.000 A 
ATOM     16  C   UNL     1       1.712   8.711  17.743  0.00  0.00    +0.000 A 
ATOM     17  C   UNL     1       0.859   9.755  18.111  0.00  0.00    +0.000 A 
BRANCH  12  18
ATOM     18  O   UNL     1      -0.310  11.001  19.701  0.00  0.00    +0.000 OA
BRANCH  18  19
ATOM     19  C   UNL     1       0.341  12.175  20.182  0.00  0.00    +0.000 C 
BRANCH  19  21
ATOM     20  C   UNL     1      -0.803  11.969  22.224  0.00  0.00    +0.000 C 
ATOM     21  O   UNL     1       0.463  12.155  21.606  0.00  0.00    +0.000 OA
ENDBRANCH  19  21
ENDBRANCH  18  19
ENDBRANCH  12  18
ENDBRANCH   1  15
BRANCH   8  22
ATOM     22  C   UNL     1       2.424   2.740  21.361  0.00  0.00    +0.000 C 
ATOM     23  N   UNL     1       1.841   2.095  22.275  0.00  0.00    +0.000 NA
ENDBRANCH   8  22
BRANCH   9  24
ATOM     24  O   UNL     1       1.506   5.298  20.335  0.00  0.00    +0.000 OA
ATOM     25  H   UNL     1       0.990   5.714  19.622  0.00  0.00    +0.000 HD
ENDBRANCH   9  24
TORSDOF 6
ENDMDL
MODEL 4
REMARK VINA RESULT:      -7.1      0.581      1.341
REMARK  Name = 
REMARK  7 active torsions:
REMARK  status: ('A' for Active; 'I' for Inactive)
REMARK    1  A    between atoms: C_1  and  O_2
REMARK    2  A    between atoms: O_2  and  C_3
REMARK    3  A    between atoms: C_3  and  O_4
REMARK    4  A    between atoms: O_4  and  C_5
REMARK    5  A    between atoms: C_8  and  C_9
REMARK    6  A    between atoms: C_16  and  C_17
REMARK    7  A    between atoms: C_19  and  O_20
REMARK                            x       y       z     vdW  Elec       q    Type
REMARK                         _______ _______ _______ _____ _____    ______ ____
ROOT
ATOM      1  C   UNL     1       3.207   6.862  18.376  0.00  0.00    +0.000 A 
ATOM      2  C   UNL     1       4.195   7.107  17.425  0.00  0.00    +0.000 A 
ATOM      3  S   UNL     1       5.276   5.794  17.205  0.00  0.00    +0.000 S 
ATOM      4  C   UNL     1       4.460   4.914  18.373  0.00  0.00    +0.000 A 
ATOM      5  N   UNL     1       4.938   3.680  18.716  0.00  0.00    +0.000 N 
ATOM      6  C   UNL     1       4.316   2.974  19.715  0.00  0.00    +0.000 A 
ATOM      7  O   UNL     1       4.742   1.886  20.086  0.00  0.00    +0.000 OA
ATOM      8  C   UNL     1       3.085   3.582  20.311  0.00  0.00    +0.000 A 
ATOM      9  C   UNL     1       2.623   4.776  19.887  0.00  0.00    +0.000 A 
ATOM     10  C   UNL     1       3.357   5.533  18.907  0.00  0.00    +0.000 A 
ATOM     11  H   UNL     1       5.771   3.304  18.281  0.00  0.00    +0.000 HD
ENDROOT
BRANCH   1  15
ATOM     12  C   UNL     1       0.425   9.970  19.352  0.00  0.00    +0.000 A 
ATOM     13  C   UNL     1       0.944   9.150  20.353  0.00  0.00    +0.000 A 
ATOM     14  C   UNL     1       1.865   8.153  20.029  0.00  0.00    +0.000 A 
ATOM     15  C   UNL     1       2.237   7.913  18.698  0.00  0.00    +0.000 A 
ATOM     16  C   UNL     1       1.639   8.690  17.697  0.00  0.00    +0.000 A 
ATOM     17  C   UNL     1       0.761   9.728  18.024  0.00  0.00    +0.000 A 
BRANCH  12  18
ATOM     18  O   UNL     1      -0.427  11.016  19.566  0.00  0.00    +0.000 OA
BRANCH  18  19
ATOM     19  C   UNL     1      -1.287  11.329  18.472  0.00  0.00    +0.000 C 
BRANCH  19  21
ATOM     20  C   UNL     1      -2.355  12.606  20.131  0.00  0.00    +0.000 C 
ATOM     21  O   UNL     1      -2.529  11.872  18.927  0.00  0.00    +0.000 OA
ENDBRANCH  19  21
ENDBRANCH  18  19
ENDBRANCH  12  18
ENDBRANCH   1  15
BRANCH   8  22
ATOM     22  C   UNL     1       2.355   2.804  21.392  0.00  0.00    +0.000 C 
ATOM     23  N   UNL     1       1.749   2.157  22.289  0.00  0.00    +0.000 NA
ENDBRANCH   8  22
BRANCH   9  24
ATOM     24  O   UNL     1       1.441   5.342  20.315  0.00  0.00    +0.000 OA
ATOM     25  H   UNL     1       0.795   5.427  19.591  0.00  0.00    +0.000 HD
ENDBRANCH   9  24
TORSDOF 6
ENDMDL
MODEL 5
REMARK VINA RESULT:      -7.1      1.025      1.263
REMARK  Name = 
REMARK  7 active torsions:
REMARK  status: ('A' for Active; 'I' for Inactive)
REMARK    1  A    between atoms: C_1  and  O_2
REMARK    2  A    between atoms: O_2  and  C_3
REMARK    3  A    between atoms: C_3  and  O_4
REMARK    4  A    between atoms: O_4  and  C_5
REMARK    5  A    between atoms: C_8  and  C_9
REMARK    6  A    between atoms: C_16  and  C_17
REMARK    7  A    between atoms: C_19  and  O_20
REMARK                            x       y       z     vdW  Elec       q    Type
REMARK                         _______ _______ _______ _____ _____    ______ ____
ROOT
ATOM      1  C   UNL     1       3.223   6.861  18.373  0.00  0.00    +0.000 A 
ATOM      2  C   UNL     1       4.195   7.107  17.406  0.00  0.00    +0.000 A 
ATOM      3  S   UNL     1       5.264   5.790  17.156  0.00  0.00    +0.000 S 
ATOM      4  C   UNL     1       4.465   4.906  18.332  0.00  0.00    +0.000 A 
ATOM      5  N   UNL     1       4.942   3.667  18.657  0.00  0.00    +0.000 N 
ATOM      6  C   UNL     1       4.334   2.957  19.663  0.00  0.00    +0.000 A 
ATOM      7  O   UNL     1       4.761   1.864  20.018  0.00  0.00    +0.000 OA
ATOM      8  C   UNL     1       3.118   3.568  20.285  0.00  0.00    +0.000 A 
ATOM      9  C   UNL     1       2.655   4.767  19.879  0.00  0.00    +0.000 A 
ATOM     10  C   UNL     1       3.376   5.528  18.891  0.00  0.00    +0.000 A 
ATOM     11  H   UNL     1       5.764   3.290  18.205  0.00  0.00    +0.000 HD
ENDROOT
BRANCH   1  15
ATOM     12  C   UNL     1       0.371   9.905  19.347  0.00  0.00    +0.000 A 
ATOM     13  C   UNL     1       0.799   9.736  18.031  0.00  0.00    +0.000 A 
ATOM     14  C   UNL     1       1.713   8.729  17.719  0.00  0.00    +0.000 A 
ATOM     15  C   UNL     1       2.265   7.915  18.719  0.00  0.00    +0.000 A 
ATOM     16  C   UNL     1       1.889   8.157  20.047  0.00  0.00    +0.000 A 
ATOM     17  C   UNL     1       0.929   9.126  20.355  0.00  0.00    +0.000 A 
BRANCH  12  18
ATOM     18  O   UNL     1      -0.568  10.812  19.751  0.00  0.00    +0.000 OA
BRANCH  18  19
ATOM     19  C   UNL     1      -0.048  12.064  20.191  0.00  0.00    +0.000 C 
BRANCH  19  21
ATOM     20  C   UNL     1      -0.306  13.615  18.444  0.00  0.00    +0.000 C 
ATOM     21  O   UNL     1      -0.823  13.154  19.684  0.00  0.00    +0.000 OA
ENDBRANCH  19  21
ENDBRANCH  18  19
ENDBRANCH  12  18
ENDBRANCH   1  15
BRANCH   8  22
ATOM     22  C   UNL     1       2.403   2.786  21.375  0.00  0.00    +0.000 C 
ATOM     23  N   UNL     1       1.812   2.136  22.279  0.00  0.00    +0.000 NA
ENDBRANCH   8  22
BRANCH   9  24
ATOM     24  O   UNL     1       1.484   5.337  20.333  0.00  0.00    +0.000 OA
ATOM     25  H   UNL     1       0.846   5.481  19.612  0.00  0.00    +0.000 HD
ENDBRANCH   9  24
TORSDOF 6
ENDMDL
MODEL 6
REMARK VINA RESULT:      -7.0      0.945      1.747
REMARK  Name = 
REMARK  7 active torsions:
REMARK  status: ('A' for Active; 'I' for Inactive)
REMARK    1  A    between atoms: C_1  and  O_2
REMARK    2  A    between atoms: O_2  and  C_3
REMARK    3  A    between atoms: C_3  and  O_4
REMARK    4  A    between atoms: O_4  and  C_5
REMARK    5  A    between atoms: C_8  and  C_9
REMARK    6  A    between atoms: C_16  and  C_17
REMARK    7  A    between atoms: C_19  and  O_20
REMARK                            x       y       z     vdW  Elec       q    Type
REMARK                         _______ _______ _______ _____ _____    ______ ____
ROOT
ATOM      1  C   UNL     1       3.221   6.851  18.366  0.00  0.00    +0.000 A 
ATOM      2  C   UNL     1       4.197   7.099  17.405  0.00  0.00    +0.000 A 
ATOM      3  S   UNL     1       5.274   5.786  17.165  0.00  0.00    +0.000 S 
ATOM      4  C   UNL     1       4.470   4.902  18.338  0.00  0.00    +0.000 A 
ATOM      5  N   UNL     1       4.950   3.665  18.669  0.00  0.00    +0.000 N 
ATOM      6  C   UNL     1       4.338   2.955  19.672  0.00  0.00    +0.000 A 
ATOM      7  O   UNL     1       4.767   1.864  20.033  0.00  0.00    +0.000 OA
ATOM      8  C   UNL     1       3.116   3.563  20.286  0.00  0.00    +0.000 A 
ATOM      9  C   UNL     1       2.651   4.759  19.873  0.00  0.00    +0.000 A 
ATOM     10  C   UNL     1       3.375   5.520  18.889  0.00  0.00    +0.000 A 
ATOM     11  H   UNL     1       5.777   3.290  18.223  0.00  0.00    +0.000 HD
ENDROOT
BRANCH   1  15
ATOM     12  C   UNL     1       0.456   9.959  19.393  0.00  0.00    +0.000 A 
ATOM     13  C   UNL     1       0.954   9.106  20.377  0.00  0.00    +0.000 A 
ATOM     14  C   UNL     1       1.869   8.109  20.038  0.00  0.00    +0.000 A 
ATOM     15  C   UNL     1       2.256   7.903  18.705  0.00  0.00    +0.000 A 
ATOM     16  C   UNL     1       1.679   8.714  17.719  0.00  0.00    +0.000 A 
ATOM     17  C   UNL     1       0.807   9.751  18.063  0.00  0.00    +0.000 A 
BRANCH  12  18
ATOM     18  O   UNL     1      -0.389  11.007  19.626  0.00  0.00    +0.000 OA
BRANCH  18  19
ATOM     19  C   UNL     1      -0.399  12.011  18.614  0.00  0.00    +0.000 C 
BRANCH  19  21
ATOM     20  C   UNL     1       1.419  13.495  18.495  0.00  0.00    +0.000 C 
ATOM     21  O   UNL     1       0.157  13.238  19.094  0.00  0.00    +0.000 OA
ENDBRANCH  19  21
ENDBRANCH  18  19
ENDBRANCH  12  18
ENDBRANCH   1  15
BRANCH   8  22
ATOM     22  C   UNL     1       2.397   2.780  21.372  0.00  0.00    +0.000 C 
ATOM     23  N   UNL     1       1.801   2.130  22.273  0.00  0.00    +0.000 NA
ENDBRANCH   8  22
BRANCH   9  24
ATOM     24  O   UNL     1       1.475   5.325  20.319  0.00  0.00    +0.000 OA
ATOM     25  H   UNL     1       0.816   5.402  19.606  0.00  0.00    +0.000 HD
ENDBRANCH   9  24
TORSDOF 6
ENDMDL
MODEL 7
REMARK VINA RESULT:      -6.6      4.003      7.283
REMARK  Name = 
REMARK  7 active torsions:
REMARK  status: ('A' for Active; 'I' for Inactive)
REMARK    1  A    between atoms: C_1  and  O_2
REMARK    2  A    between atoms: O_2  and  C_3
REMARK    3  A    between atoms: C_3  and  O_4
REMARK    4  A    between atoms: O_4  and  C_5
REMARK    5  A    between atoms: C_8  and  C_9
REMARK    6  A    between atoms: C_16  and  C_17
REMARK    7  A    between atoms: C_19  and  O_20
REMARK                            x       y       z     vdW  Elec       q    Type
REMARK                         _______ _______ _______ _____ _____    ______ ____
ROOT
ATOM      1  C   UNL     1       3.819   5.129  18.825  0.00  0.00    +0.000 A 
ATOM      2  C   UNL     1       3.680   4.040  19.683  0.00  0.00    +0.000 A 
ATOM      3  S   UNL     1       2.538   4.295  20.936  0.00  0.00    +0.000 S 
ATOM      4  C   UNL     1       2.242   5.841  20.364  0.00  0.00    +0.000 A 
ATOM      5  N   UNL     1       1.376   6.641  21.056  0.00  0.00    +0.000 N 
ATOM      6  C   UNL     1       1.171   7.931  20.634  0.00  0.00    +0.000 A 
ATOM      7  O   UNL     1       0.440   8.695  21.254  0.00  0.00    +0.000 OA
ATOM      8  C   UNL     1       1.862   8.350  19.374  0.00  0.00    +0.000 A 
ATOM      9  C   UNL     1       2.657   7.496  18.699  0.00  0.00    +0.000 A 
ATOM     10  C   UNL     1       2.926   6.184  19.224  0.00  0.00    +0.000 A 
ATOM     11  H   UNL     1       0.924   6.313  21.900  0.00  0.00    +0.000 HD
ENDROOT
BRANCH   1  15
ATOM     12  C   UNL     1       6.612   4.975  15.580  0.00  0.00    +0.000 A 
ATOM     13  C   UNL     1       5.487   4.151  15.581  0.00  0.00    +0.000 A 
ATOM     14  C   UNL     1       4.572   4.221  16.631  0.00  0.00    +0.000 A 
ATOM     15  C   UNL     1       4.792   5.066  17.730  0.00  0.00    +0.000 A 
ATOM     16  C   UNL     1       5.971   5.822  17.753  0.00  0.00    +0.000 A 
ATOM     17  C   UNL     1       6.860   5.797  16.674  0.00  0.00    +0.000 A 
BRANCH  12  18
ATOM     18  O   UNL     1       7.533   5.035  14.573  0.00  0.00    +0.000 OA
BRANCH  18  19
ATOM     19  C   UNL     1       6.988   5.032  13.255  0.00  0.00    +0.000 C 
BRANCH  19  21
ATOM     20  C   UNL     1       5.906   3.266  12.145  0.00  0.00    +0.000 C 
ATOM     21  O   UNL     1       7.148   3.756  12.630  0.00  0.00    +0.000 OA
ENDBRANCH  19  21
ENDBRANCH  18  19
ENDBRANCH  12  18
ENDBRANCH   1  15
BRANCH   8  22
ATOM     22  C   UNL     1       1.623   9.762  18.865  0.00  0.00    +0.000 C 
ATOM     23  N   UNL     1       1.424  10.932  18.441  0.00  0.00    +0.000 NA
ENDBRANCH   8  22
BRANCH   9  24
ATOM     24  O   UNL     1       3.236   7.782  17.480  0.00  0.00    +0.000 OA
ATOM     25  H   UNL     1       4.207   7.813  17.537  0.00  0.00    +0.000 HD
ENDBRANCH   9  24
TORSDOF 6
ENDMDL
MODEL 8
REMARK VINA RESULT:      -6.6      4.254      7.517
REMARK  Name = 
REMARK  7 active torsions:
REMARK  status: ('A' for Active; 'I' for Inactive)
REMARK    1  A    between atoms: C_1  and  O_2
REMARK    2  A    between atoms: O_2  and  C_3
REMARK    3  A    between atoms: C_3  and  O_4
REMARK    4  A    between atoms: O_4  and  C_5
REMARK    5  A    between atoms: C_8  and  C_9
REMARK    6  A    between atoms: C_16  and  C_17
REMARK    7  A    between atoms: C_19  and  O_20
REMARK                            x       y       z     vdW  Elec       q    Type
REMARK                         _______ _______ _______ _____ _____    ______ ____
ROOT
ATOM      1  C   UNL     1       4.286   4.523  18.130  0.00  0.00    +0.000 A 
ATOM      2  C   UNL     1       4.300   3.399  18.953  0.00  0.00    +0.000 A 
ATOM      3  S   UNL     1       3.325   3.561  20.354  0.00  0.00    +0.000 S 
ATOM      4  C   UNL     1       2.901   5.114  19.890  0.00  0.00    +0.000 A 
ATOM      5  N   UNL     1       2.106   5.851  20.721  0.00  0.00    +0.000 N 
ATOM      6  C   UNL     1       1.801   7.147  20.384  0.00  0.00    +0.000 A 
ATOM      7  O   UNL     1       1.132   7.858  21.125  0.00  0.00    +0.000 OA
ATOM      8  C   UNL     1       2.305   7.640  19.063  0.00  0.00    +0.000 A 
ATOM      9  C   UNL     1       3.033   6.844  18.255  0.00  0.00    +0.000 A 
ATOM     10  C   UNL     1       3.417   5.525  18.686  0.00  0.00    +0.000 A 
ATOM     11  H   UNL     1       1.781   5.475  21.603  0.00  0.00    +0.000 HD
ENDROOT
BRANCH   1  15
ATOM     12  C   UNL     1       6.724   4.513  14.609  0.00  0.00    +0.000 A 
ATOM     13  C   UNL     1       7.289   4.782  15.855  0.00  0.00    +0.000 A 
ATOM     14  C   UNL     1       6.491   4.764  16.999  0.00  0.00    +0.000 A 
ATOM     15  C   UNL     1       5.108   4.540  16.917  0.00  0.00    +0.000 A 
ATOM     16  C   UNL     1       4.546   4.357  15.647  0.00  0.00    +0.000 A 
ATOM     17  C   UNL     1       5.351   4.317  14.505  0.00  0.00    +0.000 A 
BRANCH  12  18
ATOM     18  O   UNL     1       7.423   4.439  13.437  0.00  0.00    +0.000 OA
BRANCH  18  19
ATOM     19  C   UNL     1       6.646   4.105  12.289  0.00  0.00    +0.000 C 
BRANCH  19  21
ATOM     20  C   UNL     1       5.798   2.053  11.519  0.00  0.00    +0.000 C 
ATOM     21  O   UNL     1       6.972   2.800  11.803  0.00  0.00    +0.000 OA
ENDBRANCH  19  21
ENDBRANCH  18  19
ENDBRANCH  12  18
ENDBRANCH   1  15
BRANCH   8  22
ATOM     22  C   UNL     1       1.951   9.058  18.648  0.00  0.00    +0.000 C 
ATOM     23  N   UNL     1       1.657  10.234  18.302  0.00  0.00    +0.000 NA
ENDBRANCH   8  22
BRANCH   9  24
ATOM     24  O   UNL     1       3.436   7.197  16.984  0.00  0.00    +0.000 OA
ATOM     25  H   UNL     1       2.843   6.838  16.301  0.00  0.00    +0.000 HD
ENDBRANCH   9  24
TORSDOF 6
ENDMDL
MODEL 9
REMARK VINA RESULT:      -6.6      3.981      7.334
REMARK  Name = 
REMARK  7 active torsions:
REMARK  status: ('A' for Active; 'I' for Inactive)
REMARK    1  A    between atoms: C_1  and  O_2
REMARK    2  A    between atoms: O_2  and  C_3
REMARK    3  A    between atoms: C_3  and  O_4
REMARK    4  A    between atoms: O_4  and  C_5
REMARK    5  A    between atoms: C_8  and  C_9
REMARK    6  A    between atoms: C_16  and  C_17
REMARK    7  A    between atoms: C_19  and  O_20
REMARK                            x       y       z     vdW  Elec       q    Type
REMARK                         _______ _______ _______ _____ _____    ______ ____
ROOT
ATOM      1  C   UNL     1       3.706   5.099  18.942  0.00  0.00    +0.000 A 
ATOM      2  C   UNL     1       3.536   4.030  19.819  0.00  0.00    +0.000 A 
ATOM      3  S   UNL     1       2.390   4.333  21.057  0.00  0.00    +0.000 S 
ATOM      4  C   UNL     1       2.134   5.874  20.455  0.00  0.00    +0.000 A 
ATOM      5  N   UNL     1       1.280   6.705  21.125  0.00  0.00    +0.000 N 
ATOM      6  C   UNL     1       1.108   7.992  20.679  0.00  0.00    +0.000 A 
ATOM      7  O   UNL     1       0.389   8.784  21.279  0.00  0.00    +0.000 OA
ATOM      8  C   UNL     1       1.818   8.373  19.417  0.00  0.00    +0.000 A 
ATOM      9  C   UNL     1       2.598   7.489  18.764  0.00  0.00    +0.000 A 
ATOM     10  C   UNL     1       2.834   6.181  19.315  0.00  0.00    +0.000 A 
ATOM     11  H   UNL     1       0.815   6.403  21.972  0.00  0.00    +0.000 HD
ENDROOT
BRANCH   1  15
ATOM     12  C   UNL     1       6.617   4.760  15.817  0.00  0.00    +0.000 A 
ATOM     13  C   UNL     1       6.868   5.562  16.929  0.00  0.00    +0.000 A 
ATOM     14  C   UNL     1       5.923   5.652  17.952  0.00  0.00    +0.000 A 
ATOM     15  C   UNL     1       4.686   4.995  17.857  0.00  0.00    +0.000 A 
ATOM     16  C   UNL     1       4.418   4.263  16.693  0.00  0.00    +0.000 A 
ATOM     17  C   UNL     1       5.386   4.124  15.694  0.00  0.00    +0.000 A 
BRANCH  12  18
ATOM     18  O   UNL     1       7.498   4.548  14.795  0.00  0.00    +0.000 OA
BRANCH  18  19
ATOM     19  C   UNL     1       7.200   5.243  13.587  0.00  0.00    +0.000 C 
BRANCH  19  21
ATOM     20  C   UNL     1       6.345   3.470  12.303  0.00  0.00    +0.000 C 
ATOM     21  O   UNL     1       7.402   4.409  12.443  0.00  0.00    +0.000 OA
ENDBRANCH  19  21
ENDBRANCH  18  19
ENDBRANCH  12  18
ENDBRANCH   1  15
BRANCH   8  22
ATOM     22  C   UNL     1       1.614   9.780  18.880  0.00  0.00    +0.000 C 
ATOM     23  N   UNL     1       1.446  10.947  18.434  0.00  0.00    +0.000 NA
ENDBRANCH   8  22
BRANCH   9  24
ATOM     24  O   UNL     1       3.193   7.740  17.545  0.00  0.00    +0.000 OA
ATOM     25  H   UNL     1       2.773   7.236  16.825  0.00  0.00    +0.000 HD
ENDBRANCH   9  24
TORSDOF 6
ENDMDL
