MODEL 1
REMARK VINA RESULT:      -7.7      0.000      0.000
REMARK  Name = 
REMARK  5 active torsions:
REMARK  status: ('A' for Active; 'I' for Inactive)
REMARK    1  A    between atoms: C_1  and  C_2
REMARK    2  A    between atoms: C_4  and  C_5
REMARK    3  A    between atoms: C_4  and  C_6
REMARK    4  A    between atoms: C_9  and  O_10
REMARK    5  A    between atoms: C_9  and  C_11
REMARK                            x       y       z     vdW  Elec       q    Type
REMARK                         _______ _______ _______ _____ _____    ______ ____
ROOT
ATOM      1  C   UNL     1       3.509   1.591  18.715  0.00  0.00    +0.000 C 
ATOM      2  C   UNL     1       4.162   2.955  18.983  0.00  0.00    +0.000 C 
ATOM      3  N   UNL     1       3.439   3.698  20.049  0.00  0.00    +0.000 NA
ATOM      4  C   UNL     1       2.248   4.431  19.551  0.00  0.00    +0.000 C 
ATOM      5  C   UNL     1       1.026   3.497  19.509  0.00  0.00    +0.000 C 
ATOM      6  C   UNL     1       1.942   5.538  20.584  0.00  0.00    +0.000 C 
ATOM      7  C   UNL     1       2.467   5.108  18.170  0.00  0.00    +0.000 C 
ATOM      8  O   UNL     1       3.134   4.285  17.202  0.00  0.00    +0.000 OA
ATOM      9  C   UNL     1       4.401   3.792  17.667  0.00  0.00    +0.000 C 
ATOM     10  H   UNL     1       4.094   4.386  20.427  0.00  0.00    +0.000 HD
ENDROOT
BRANCH   9  11
ATOM     11  C   UNL     1       5.457   4.904  17.759  0.00  0.00    +0.000 A 
ATOM     12  C   UNL     1       5.375   6.092  17.002  0.00  0.00    +0.000 A 
ATOM     13  C   UNL     1       6.342   7.098  17.114  0.00  0.00    +0.000 A 
ATOM     14  C   UNL     1       7.399   6.939  17.997  0.00  0.00    +0.000 A 
ATOM     15  F   UNL     1       8.325   7.903  18.093  0.00  0.00    +0.000 F 
ATOM     16  C   UNL     1       7.487   5.797  18.779  0.00  0.00    +0.000 A 
ATOM     17  F   UNL     1       8.503   5.648  19.639  0.00  0.00    +0.000 F 
ATOM     18  C   UNL     1       6.523   4.793  18.674  0.00  0.00    +0.000 A 
ENDBRANCH   9  11
BRANCH   9  19
ATOM     19  O   UNL     1       4.881   2.939  16.634  0.00  0.00    +0.000 OA
ATOM     20  H   UNL     1       5.600   2.450  17.067  0.00  0.00    +0.000 HD
ENDBRANCH   9  19
TORSDOF 2
ENDMDL
MODEL 2
REMARK VINA RESULT:      -7.3      0.709      1.553
REMARK  Name = 
REMARK  5 active torsions:
REMARK  status: ('A' for Active; 'I' for Inactive)
REMARK    1  A    between atoms: C_1  and  C_2
REMARK    2  A    between atoms: C_4  and  C_5
REMARK    3  A    between atoms: C_4  and  C_6
REMARK    4  A    between atoms: C_9  and  O_10
REMARK    5  A    between atoms: C_9  and  C_11
REMARK                            x       y       z     vdW  Elec       q    Type
REMARK                         _______ _______ _______ _____ _____    ______ ____
ROOT
ATOM      1  C   UNL     1       3.526   1.745  18.347  0.00  0.00    +0.000 C 
ATOM      2  C   UNL     1       4.239   3.009  18.852  0.00  0.00    +0.000 C 
ATOM      3  N   UNL     1       3.473   3.659  19.948  0.00  0.00    +0.000 NA
ATOM      4  C   UNL     1       2.381   4.539  19.460  0.00  0.00    +0.000 C 
ATOM      5  C   UNL     1       1.110   3.714  19.192  0.00  0.00    +0.000 C 
ATOM      6  C   UNL     1       2.056   5.521  20.607  0.00  0.00    +0.000 C 
ATOM      7  C   UNL     1       2.767   5.372  18.207  0.00  0.00    +0.000 C 
ATOM      8  O   UNL     1       3.464   4.635  17.192  0.00  0.00    +0.000 OA
ATOM      9  C   UNL     1       4.649   3.990  17.686  0.00  0.00    +0.000 C 
ATOM     10  H   UNL     1       4.134   4.240  20.467  0.00  0.00    +0.000 HD
ENDROOT
BRANCH   9  11
ATOM     11  C   UNL     1       5.762   4.997  18.014  0.00  0.00    +0.000 A 
ATOM     12  C   UNL     1       6.667   4.806  19.081  0.00  0.00    +0.000 A 
ATOM     13  C   UNL     1       7.682   5.732  19.351  0.00  0.00    +0.000 A 
ATOM     14  C   UNL     1       7.820   6.854  18.549  0.00  0.00    +0.000 A 
ATOM     15  F   UNL     1       8.790   7.739  18.819  0.00  0.00    +0.000 F 
ATOM     16  C   UNL     1       6.967   7.050  17.473  0.00  0.00    +0.000 A 
ATOM     17  F   UNL     1       7.106   8.130  16.693  0.00  0.00    +0.000 F 
ATOM     18  C   UNL     1       5.955   6.129  17.197  0.00  0.00    +0.000 A 
ENDBRANCH   9  11
BRANCH   9  19
ATOM     19  O   UNL     1       5.164   3.246  16.588  0.00  0.00    +0.000 OA
ATOM     20  H   UNL     1       5.147   2.330  16.912  0.00  0.00    +0.000 HD
ENDBRANCH   9  19
TORSDOF 2
ENDMDL
MODEL 3
REMARK VINA RESULT:      -7.3      2.398      2.840
REMARK  Name = 
REMARK  5 active torsions:
REMARK  status: ('A' for Active; 'I' for Inactive)
REMARK    1  A    between atoms: C_1  and  C_2
REMARK    2  A    between atoms: C_4  and  C_5
REMARK    3  A    between atoms: C_4  and  C_6
REMARK    4  A    between atoms: C_9  and  O_10
REMARK    5  A    between atoms: C_9  and  C_11
REMARK                            x       y       z     vdW  Elec       q    Type
REMARK                         _______ _______ _______ _____ _____    ______ ____
ROOT
ATOM      1  C   UNL     1       3.461   2.625  20.593  0.00  0.00    +0.000 C 
ATOM      2  C   UNL     1       4.145   3.620  19.642  0.00  0.00    +0.000 C 
ATOM      3  N   UNL     1       3.793   5.023  19.987  0.00  0.00    +0.000 NA
ATOM      4  C   UNL     1       2.494   5.460  19.418  0.00  0.00    +0.000 C 
ATOM      5  C   UNL     1       1.338   5.046  20.344  0.00  0.00    +0.000 C 
ATOM      6  C   UNL     1       2.521   7.004  19.383  0.00  0.00    +0.000 C 
ATOM      7  C   UNL     1       2.246   4.950  17.971  0.00  0.00    +0.000 C 
ATOM      8  O   UNL     1       2.578   3.570  17.761  0.00  0.00    +0.000 OA
ATOM      9  C   UNL     1       3.934   3.261  18.121  0.00  0.00    +0.000 C 
ATOM     10  H   UNL     1       4.524   5.617  19.591  0.00  0.00    +0.000 HD
ENDROOT
BRANCH   9  11
ATOM     11  C   UNL     1       4.947   3.871  17.139  0.00  0.00    +0.000 A 
ATOM     12  C   UNL     1       6.110   4.544  17.570  0.00  0.00    +0.000 A 
ATOM     13  C   UNL     1       7.025   5.079  16.656  0.00  0.00    +0.000 A 
ATOM     14  C   UNL     1       6.801   4.936  15.296  0.00  0.00    +0.000 A 
ATOM     15  F   UNL     1       7.677   5.458  14.426  0.00  0.00    +0.000 F 
ATOM     16  C   UNL     1       5.683   4.250  14.842  0.00  0.00    +0.000 A 
ATOM     17  F   UNL     1       5.471   4.104  13.528  0.00  0.00    +0.000 F 
ATOM     18  C   UNL     1       4.769   3.711  15.750  0.00  0.00    +0.000 A 
ENDBRANCH   9  11
BRANCH   9  19
ATOM     19  O   UNL     1       4.069   1.857  17.933  0.00  0.00    +0.000 OA
ATOM     20  H   UNL     1       4.803   1.623  18.524  0.00  0.00    +0.000 HD
ENDBRANCH   9  19
TORSDOF 2
ENDMDL
MODEL 4
REMARK VINA RESULT:      -7.2      3.300      4.919
REMARK  Name = 
REMARK  5 active torsions:
REMARK  status: ('A' for Active; 'I' for Inactive)
REMARK    1  A    between atoms: C_1  and  C_2
REMARK    2  A    between atoms: C_4  and  C_5
REMARK    3  A    between atoms: C_4  and  C_6
REMARK    4  A    between atoms: C_9  and  O_10
REMARK    5  A    between atoms: C_9  and  C_11
REMARK                            x       y       z     vdW  Elec       q    Type
REMARK                         _______ _______ _______ _____ _____    ______ ____
ROOT
ATOM      1  C   UNL     1       5.127   3.831  16.037  0.00  0.00    +0.000 C 
ATOM      2  C   UNL     1       4.820   5.203  16.656  0.00  0.00    +0.000 C 
ATOM      3  N   UNL     1       6.047   6.038  16.753  0.00  0.00    +0.000 NA
ATOM      4  C   UNL     1       6.865   5.743  17.956  0.00  0.00    +0.000 C 
ATOM      5  C   UNL     1       7.810   4.559  17.682  0.00  0.00    +0.000 C 
ATOM      6  C   UNL     1       7.749   6.984  18.208  0.00  0.00    +0.000 C 
ATOM      7  C   UNL     1       6.021   5.484  19.234  0.00  0.00    +0.000 C 
ATOM      8  O   UNL     1       4.886   4.629  19.036  0.00  0.00    +0.000 OA
ATOM      9  C   UNL     1       4.005   5.101  18.004  0.00  0.00    +0.000 C 
ATOM     10  H   UNL     1       5.739   7.010  16.816  0.00  0.00    +0.000 HD
ENDROOT
BRANCH   9  11
ATOM     11  C   UNL     1       3.243   6.366  18.426  0.00  0.00    +0.000 A 
ATOM     12  C   UNL     1       3.088   7.479  17.572  0.00  0.00    +0.000 A 
ATOM     13  C   UNL     1       2.376   8.615  17.975  0.00  0.00    +0.000 A 
ATOM     14  C   UNL     1       1.794   8.651  19.232  0.00  0.00    +0.000 A 
ATOM     15  F   UNL     1       1.120   9.745  19.614  0.00  0.00    +0.000 F 
ATOM     16  C   UNL     1       1.900   7.558  20.081  0.00  0.00    +0.000 A 
ATOM     17  F   UNL     1       1.330   7.589  21.292  0.00  0.00    +0.000 F 
ATOM     18  C   UNL     1       2.606   6.421  19.683  0.00  0.00    +0.000 A 
ENDBRANCH   9  11
BRANCH   9  19
ATOM     19  O   UNL     1       2.993   4.108  17.882  0.00  0.00    +0.000 OA
ATOM     20  H   UNL     1       3.242   3.636  17.070  0.00  0.00    +0.000 HD
ENDBRANCH   9  19
TORSDOF 2
ENDMDL
MODEL 5
REMARK VINA RESULT:      -7.1      3.476      5.680
REMARK  Name = 
REMARK  5 active torsions:
REMARK  status: ('A' for Active; 'I' for Inactive)
REMARK    1  A    between atoms: C_1  and  C_2
REMARK    2  A    between atoms: C_4  and  C_5
REMARK    3  A    between atoms: C_4  and  C_6
REMARK    4  A    between atoms: C_9  and  O_10
REMARK    5  A    between atoms: C_9  and  C_11
REMARK                            x       y       z     vdW  Elec       q    Type
REMARK                         _______ _______ _______ _____ _____    ______ ____
ROOT
ATOM      1  C   UNL     1       7.230   5.532  19.143  0.00  0.00    +0.000 C 
ATOM      2  C   UNL     1       6.123   4.612  18.607  0.00  0.00    +0.000 C 
ATOM      3  N   UNL     1       6.485   4.050  17.278  0.00  0.00    +0.000 NA
ATOM      4  C   UNL     1       6.188   4.969  16.151  0.00  0.00    +0.000 C 
ATOM      5  C   UNL     1       7.352   5.954  15.943  0.00  0.00    +0.000 C 
ATOM      6  C   UNL     1       6.095   4.097  14.879  0.00  0.00    +0.000 C 
ATOM      7  C   UNL     1       4.845   5.735  16.310  0.00  0.00    +0.000 C 
ATOM      8  O   UNL     1       4.618   6.273  17.620  0.00  0.00    +0.000 OA
ATOM      9  C   UNL     1       4.693   5.278  18.653  0.00  0.00    +0.000 C 
ATOM     10  H   UNL     1       5.924   3.207  17.150  0.00  0.00    +0.000 HD
ENDROOT
BRANCH   9  11
ATOM     11  C   UNL     1       3.500   4.311  18.615  0.00  0.00    +0.000 A 
ATOM     12  C   UNL     1       3.481   3.161  17.797  0.00  0.00    +0.000 A 
ATOM     13  C   UNL     1       2.387   2.288  17.790  0.00  0.00    +0.000 A 
ATOM     14  C   UNL     1       1.300   2.541  18.612  0.00  0.00    +0.000 A 
ATOM     15  F   UNL     1       0.253   1.705  18.593  0.00  0.00    +0.000 F 
ATOM     16  C   UNL     1       1.304   3.646  19.451  0.00  0.00    +0.000 A 
ATOM     17  F   UNL     1       0.258   3.886  20.251  0.00  0.00    +0.000 F 
ATOM     18  C   UNL     1       2.395   4.519  19.465  0.00  0.00    +0.000 A 
ENDBRANCH   9  11
BRANCH   9  19
ATOM     19  O   UNL     1       4.530   5.985  19.878  0.00  0.00    +0.000 OA
ATOM     20  H   UNL     1       4.543   5.279  20.545  0.00  0.00    +0.000 HD
ENDBRANCH   9  19
TORSDOF 2
ENDMDL
MODEL 6
REMARK VINA RESULT:      -7.1      3.139      5.022
REMARK  Name = 
REMARK  5 active torsions:
REMARK  status: ('A' for Active; 'I' for Inactive)
REMARK    1  A    between atoms: C_1  and  C_2
REMARK    2  A    between atoms: C_4  and  C_5
REMARK    3  A    between atoms: C_4  and  C_6
REMARK    4  A    between atoms: C_9  and  O_10
REMARK    5  A    between atoms: C_9  and  C_11
REMARK                            x       y       z     vdW  Elec       q    Type
REMARK                         _______ _______ _______ _____ _____    ______ ____
ROOT
ATOM      1  C   UNL     1       5.136   4.096  15.697  0.00  0.00    +0.000 C 
ATOM      2  C   UNL     1       4.808   5.355  16.514  0.00  0.00    +0.000 C 
ATOM      3  N   UNL     1       6.032   6.154  16.788  0.00  0.00    +0.000 NA
ATOM      4  C   UNL     1       6.803   5.665  17.959  0.00  0.00    +0.000 C 
ATOM      5  C   UNL     1       7.754   4.532  17.538  0.00  0.00    +0.000 C 
ATOM      6  C   UNL     1       7.679   6.844  18.438  0.00  0.00    +0.000 C 
ATOM      7  C   UNL     1       5.909   5.215  19.148  0.00  0.00    +0.000 C 
ATOM      8  O   UNL     1       4.780   4.411  18.774  0.00  0.00    +0.000 OA
ATOM      9  C   UNL     1       3.942   5.048  17.796  0.00  0.00    +0.000 C 
ATOM     10  H   UNL     1       5.724   7.107  16.992  0.00  0.00    +0.000 HD
ENDROOT
BRANCH   9  11
ATOM     11  C   UNL     1       3.166   6.237  18.385  0.00  0.00    +0.000 A 
ATOM     12  C   UNL     1       2.635   6.223  19.692  0.00  0.00    +0.000 A 
ATOM     13  C   UNL     1       1.944   7.324  20.211  0.00  0.00    +0.000 A 
ATOM     14  C   UNL     1       1.787   8.463  19.438  0.00  0.00    +0.000 A 
ATOM     15  F   UNL     1       1.117   9.510  19.939  0.00  0.00    +0.000 F 
ATOM     16  C   UNL     1       2.327   8.518  18.161  0.00  0.00    +0.000 A 
ATOM     17  F   UNL     1       2.182   9.622  17.417  0.00  0.00    +0.000 F 
ATOM     18  C   UNL     1       3.020   7.424  17.640  0.00  0.00    +0.000 A 
ENDBRANCH   9  11
BRANCH   9  19
ATOM     19  O   UNL     1       2.933   4.095  17.480  0.00  0.00    +0.000 OA
ATOM     20  H   UNL     1       3.430   3.265  17.396  0.00  0.00    +0.000 HD
ENDBRANCH   9  19
TORSDOF 2
ENDMDL
MODEL 7
REMARK VINA RESULT:      -7.1      1.848      2.212
REMARK  Name = 
REMARK  5 active torsions:
REMARK  status: ('A' for Active; 'I' for Inactive)
REMARK    1  A    between atoms: C_1  and  C_2
REMARK    2  A    between atoms: C_4  and  C_5
REMARK    3  A    between atoms: C_4  and  C_6
REMARK    4  A    between atoms: C_9  and  O_10
REMARK    5  A    between atoms: C_9  and  C_11
REMARK                            x       y       z     vdW  Elec       q    Type
REMARK                         _______ _______ _______ _____ _____    ______ ____
ROOT
ATOM      1  C   UNL     1       3.461   2.603  20.588  0.00  0.00    +0.000 C 
ATOM      2  C   UNL     1       4.134   3.602  19.635  0.00  0.00    +0.000 C 
ATOM      3  N   UNL     1       3.784   5.003  19.989  0.00  0.00    +0.000 NA
ATOM      4  C   UNL     1       2.479   5.442  19.435  0.00  0.00    +0.000 C 
ATOM      5  C   UNL     1       1.332   5.022  20.371  0.00  0.00    +0.000 C 
ATOM      6  C   UNL     1       2.504   6.986  19.406  0.00  0.00    +0.000 C 
ATOM      7  C   UNL     1       2.216   4.937  17.989  0.00  0.00    +0.000 C 
ATOM      8  O   UNL     1       2.547   3.558  17.770  0.00  0.00    +0.000 OA
ATOM      9  C   UNL     1       3.907   3.250  18.114  0.00  0.00    +0.000 C 
ATOM     10  H   UNL     1       4.510   5.600  19.588  0.00  0.00    +0.000 HD
ENDROOT
BRANCH   9  11
ATOM     11  C   UNL     1       4.909   3.865  17.124  0.00  0.00    +0.000 A 
ATOM     12  C   UNL     1       4.863   3.604  15.738  0.00  0.00    +0.000 A 
ATOM     13  C   UNL     1       5.778   4.187  14.855  0.00  0.00    +0.000 A 
ATOM     14  C   UNL     1       6.744   5.055  15.340  0.00  0.00    +0.000 A 
ATOM     15  F   UNL     1       7.622   5.604  14.489  0.00  0.00    +0.000 F 
ATOM     16  C   UNL     1       6.793   5.356  16.693  0.00  0.00    +0.000 A 
ATOM     17  F   UNL     1       7.721   6.201  17.161  0.00  0.00    +0.000 F 
ATOM     18  C   UNL     1       5.880   4.780  17.579  0.00  0.00    +0.000 A 
ENDBRANCH   9  11
BRANCH   9  19
ATOM     19  O   UNL     1       4.041   1.846  17.919  0.00  0.00    +0.000 OA
ATOM     20  H   UNL     1       4.656   1.582  18.623  0.00  0.00    +0.000 HD
ENDBRANCH   9  19
TORSDOF 2
ENDMDL
MODEL 8
REMARK VINA RESULT:      -7.1      3.463      4.513
REMARK  Name = 
REMARK  5 active torsions:
REMARK  status: ('A' for Active; 'I' for Inactive)
REMARK    1  A    between atoms: C_1  and  C_2
REMARK    2  A    between atoms: C_4  and  C_5
REMARK    3  A    between atoms: C_4  and  C_6
REMARK    4  A    between atoms: C_9  and  O_10
REMARK    5  A    between atoms: C_9  and  C_11
REMARK                            x       y       z     vdW  Elec       q    Type
REMARK                         _______ _______ _______ _____ _____    ______ ____
ROOT
ATOM      1  C   UNL     1       5.293   4.184  18.805  0.00  0.00    +0.000 C 
ATOM      2  C   UNL     1       4.135   5.039  19.343  0.00  0.00    +0.000 C 
ATOM      3  N   UNL     1       3.206   4.227  20.173  0.00  0.00    +0.000 NA
ATOM      4  C   UNL     1       2.205   3.478  19.373  0.00  0.00    +0.000 C 
ATOM      5  C   UNL     1       2.795   2.138  18.898  0.00  0.00    +0.000 C 
ATOM      6  C   UNL     1       1.032   3.149  20.323  0.00  0.00    +0.000 C 
ATOM      7  C   UNL     1       1.640   4.284  18.171  0.00  0.00    +0.000 C 
ATOM      8  O   UNL     1       2.629   4.993  17.411  0.00  0.00    +0.000 OA
ATOM      9  C   UNL     1       3.419   5.882  18.218  0.00  0.00    +0.000 C 
ATOM     10  H   UNL     1       2.700   4.880  20.775  0.00  0.00    +0.000 HD
ENDROOT
BRANCH   9  11
ATOM     11  C   UNL     1       2.613   7.099  18.699  0.00  0.00    +0.000 A 
ATOM     12  C   UNL     1       2.221   8.140  17.831  0.00  0.00    +0.000 A 
ATOM     13  C   UNL     1       1.474   9.231  18.290  0.00  0.00    +0.000 A 
ATOM     14  C   UNL     1       1.093   9.291  19.621  0.00  0.00    +0.000 A 
ATOM     15  F   UNL     1       0.385  10.343  20.055  0.00  0.00    +0.000 F 
ATOM     16  C   UNL     1       1.435   8.266  20.490  0.00  0.00    +0.000 A 
ATOM     17  F   UNL     1       1.059   8.320  21.774  0.00  0.00    +0.000 F 
ATOM     18  C   UNL     1       2.177   7.173  20.037  0.00  0.00    +0.000 A 
ENDBRANCH   9  11
BRANCH   9  19
ATOM     19  O   UNL     1       4.391   6.434  17.336  0.00  0.00    +0.000 OA
ATOM     20  H   UNL     1       5.035   5.714  17.237  0.00  0.00    +0.000 HD
ENDBRANCH   9  19
TORSDOF 2
ENDMDL
MODEL 9
REMARK VINA RESULT:      -7.0      3.521      5.568
REMARK  Name = 
REMARK  5 active torsions:
REMARK  status: ('A' for Active; 'I' for Inactive)
REMARK    1  A    between atoms: C_1  and  C_2
REMARK    2  A    between atoms: C_4  and  C_5
REMARK    3  A    between atoms: C_4  and  C_6
REMARK    4  A    between atoms: C_9  and  O_10
REMARK    5  A    between atoms: C_9  and  C_11
REMARK                            x       y       z     vdW  Elec       q    Type
REMARK                         _______ _______ _______ _____ _____    ______ ____
ROOT
ATOM      1  C   UNL     1       7.827   4.771  17.850  0.00  0.00    +0.000 C 
ATOM      2  C   UNL     1       6.466   4.139  17.522  0.00  0.00    +0.000 C 
ATOM      3  N   UNL     1       6.439   3.609  16.133  0.00  0.00    +0.000 NA
ATOM      4  C   UNL     1       6.139   4.645  15.114  0.00  0.00    +0.000 C 
ATOM      5  C   UNL     1       7.427   5.380  14.704  0.00  0.00    +0.000 C 
ATOM      6  C   UNL     1       5.619   3.901  13.863  0.00  0.00    +0.000 C 
ATOM      7  C   UNL     1       5.049   5.659  15.559  0.00  0.00    +0.000 C 
ATOM      8  O   UNL     1       5.197   6.141  16.903  0.00  0.00    +0.000 OA
ATOM      9  C   UNL     1       5.250   5.082  17.872  0.00  0.00    +0.000 C 
ATOM     10  H   UNL     1       5.694   2.910  16.097  0.00  0.00    +0.000 HD
ENDROOT
BRANCH   9  11
ATOM     11  C   UNL     1       3.890   4.388  18.048  0.00  0.00    +0.000 A 
ATOM     12  C   UNL     1       2.665   5.058  17.842  0.00  0.00    +0.000 A 
ATOM     13  C   UNL     1       1.439   4.401  17.995  0.00  0.00    +0.000 A 
ATOM     14  C   UNL     1       1.417   3.058  18.338  0.00  0.00    +0.000 A 
ATOM     15  F   UNL     1       0.239   2.438  18.489  0.00  0.00    +0.000 F 
ATOM     16  C   UNL     1       2.605   2.365  18.513  0.00  0.00    +0.000 A 
ATOM     17  F   UNL     1       2.585   1.065  18.837  0.00  0.00    +0.000 F 
ATOM     18  C   UNL     1       3.832   3.015  18.359  0.00  0.00    +0.000 A 
ENDBRANCH   9  11
BRANCH   9  19
ATOM     19  O   UNL     1       5.480   5.721  19.123  0.00  0.00    +0.000 OA
ATOM     20  H   UNL     1       5.485   4.981  19.753  0.00  0.00    +0.000 HD
ENDBRANCH   9  19
TORSDOF 2
ENDMDL
