MODEL 1
REMARK VINA RESULT:      -8.2      0.000      0.000
REMARK  Name = 
REMARK  14 active torsions:
REMARK  status: ('A' for Active; 'I' for Inactive)
REMARK    1  A    between atoms: C_1  and  C_2
REMARK    2  A    between atoms: C_2  and  C_3
REMARK    3  A    between atoms: C_3  and  C_4
REMARK    4  A    between atoms: C_4  and  C_5
REMARK    5  A    between atoms: C_5  and  C_6
REMARK    6  A    between atoms: C_9  and  S_10
REMARK    7  A    between atoms: S_10  and  N_13
REMARK    8  A    between atoms: N_13  and  C_14
REMARK    9  A    between atoms: C_14  and  C_15
REMARK   10  A    between atoms: C_15  and  C_16
REMARK   11  A    between atoms: C_17  and  C_18
REMARK   12  A    between atoms: C_21  and  O_22
REMARK   13  A    between atoms: O_22  and  C_23
REMARK   14  A    between atoms: C_23  and  C_24
REMARK                            x       y       z     vdW  Elec       q    Type
REMARK                         _______ _______ _______ _____ _____    ______ ____
ROOT
ATOM      1  C   UNL     1       1.035   9.755  18.984  0.00  0.00    +0.000 A 
ATOM      2  C   UNL     1       0.284  10.932  18.754  0.00  0.00    +0.000 A 
ATOM      3  N   UNL     1       0.743  11.673  19.842  0.00  0.00    +0.000 N 
ATOM      4  C   UNL     1       0.561  10.833  20.925  0.00  0.00    +0.000 A 
ATOM      5  C   UNL     1       0.240  11.148  22.245  0.00  0.00    +0.000 A 
ATOM      6  C   UNL     1      -0.447  10.159  22.938  0.00  0.00    +0.000 A 
ATOM      7  C   UNL     1      -0.660   8.903  22.360  0.00  0.00    +0.000 A 
ATOM      8  C   UNL     1      -0.089   8.544  21.112  0.00  0.00    +0.000 A 
ATOM      9  C   UNL     1       0.559   9.545  20.353  0.00  0.00    +0.000 A 
ATOM     10  H   UNL     1       1.521  12.315  19.806  0.00  0.00    +0.000 HD
ENDROOT
BRANCH   2  11
ATOM     11  C   UNL     1      -1.181  10.830  18.382  0.00  0.00    +0.000 A 
ATOM     12  C   UNL     1      -2.107  11.762  18.918  0.00  0.00    +0.000 A 
ATOM     13  C   UNL     1      -3.446  11.788  18.553  0.00  0.00    +0.000 A 
ATOM     14  C   UNL     1      -3.902  10.881  17.618  0.00  0.00    +0.000 A 
ATOM     15  C   UNL     1      -3.020   9.927  17.091  0.00  0.00    +0.000 A 
ATOM     16  C   UNL     1      -1.662   9.905  17.465  0.00  0.00    +0.000 A 
BRANCH  14  17
ATOM     17  O   UNL     1      -5.222  11.020  17.305  0.00  0.00    +0.000 OA
BRANCH  17  18
ATOM     18  C   UNL     1      -6.133  10.743  18.361  0.00  0.00    +0.000 C 
ATOM     19  C   UNL     1      -7.152  11.869  18.398  0.00  0.00    +0.000 C 
ENDBRANCH  17  18
ENDBRANCH  14  17
ENDBRANCH   2  11
BRANCH   1  20
ATOM     20  C   UNL     1       1.398   8.994  17.727  0.00  0.00    +0.000 C 
BRANCH  20  21
ATOM     21  C   UNL     1       2.429   7.886  17.635  0.00  0.00    +0.000 C 
BRANCH  21  22
ATOM     22  N   UNL     1       2.750   7.314  18.949  0.00  0.00    +0.000 NA
ATOM     23  H   UNL     1       3.485   7.818  19.443  0.00  0.00    +0.000 HD
BRANCH  22  24
ATOM     24  S   UNL     1       2.990   5.630  18.990  0.00  0.00    +0.000 S 
ATOM     25  O   UNL     1       1.738   4.958  18.720  0.00  0.00    +0.000 OA
ATOM     26  O   UNL     1       3.756   5.350  20.186  0.00  0.00    +0.000 OA
BRANCH  24  30
ATOM     27  C   UNL     1       5.939   4.831  15.555  0.00  0.00    +0.000 A 
ATOM     28  C   UNL     1       6.094   5.933  16.405  0.00  0.00    +0.000 A 
ATOM     29  C   UNL     1       5.185   6.186  17.440  0.00  0.00    +0.000 A 
ATOM     30  C   UNL     1       4.077   5.352  17.611  0.00  0.00    +0.000 A 
ATOM     31  C   UNL     1       3.890   4.249  16.776  0.00  0.00    +0.000 A 
ATOM     32  C   UNL     1       4.811   3.987  15.764  0.00  0.00    +0.000 A 
BRANCH  27  33
ATOM     33  C   UNL     1       6.900   4.562  14.438  0.00  0.00    +0.000 C 
BRANCH  33  34
ATOM     34  C   UNL     1       6.307   4.540  13.022  0.00  0.00    +0.000 C 
BRANCH  34  35
ATOM     35  C   UNL     1       6.704   3.304  12.204  0.00  0.00    +0.000 C 
BRANCH  35  37
ATOM     36  C   UNL     1       4.283   3.421  11.487  0.00  0.00    +0.000 C 
ATOM     37  C   UNL     1       5.467   2.510  11.773  0.00  0.00    +0.000 C 
ENDBRANCH  35  37
ENDBRANCH  34  35
ENDBRANCH  33  34
ENDBRANCH  27  33
ENDBRANCH  24  30
ENDBRANCH  22  24
ENDBRANCH  21  22
ENDBRANCH  20  21
ENDBRANCH   1  20
TORSDOF 12
ENDMDL
MODEL 2
REMARK VINA RESULT:      -8.2      0.634      1.028
REMARK  Name = 
REMARK  14 active torsions:
REMARK  status: ('A' for Active; 'I' for Inactive)
REMARK    1  A    between atoms: C_1  and  C_2
REMARK    2  A    between atoms: C_2  and  C_3
REMARK    3  A    between atoms: C_3  and  C_4
REMARK    4  A    between atoms: C_4  and  C_5
REMARK    5  A    between atoms: C_5  and  C_6
REMARK    6  A    between atoms: C_9  and  S_10
REMARK    7  A    between atoms: S_10  and  N_13
REMARK    8  A    between atoms: N_13  and  C_14
REMARK    9  A    between atoms: C_14  and  C_15
REMARK   10  A    between atoms: C_15  and  C_16
REMARK   11  A    between atoms: C_17  and  C_18
REMARK   12  A    between atoms: C_21  and  O_22
REMARK   13  A    between atoms: O_22  and  C_23
REMARK   14  A    between atoms: C_23  and  C_24
REMARK                            x       y       z     vdW  Elec       q    Type
REMARK                         _______ _______ _______ _____ _____    ______ ____
ROOT
ATOM      1  C   UNL     1       0.987  10.219  19.213  0.00  0.00    +0.000 A 
ATOM      2  C   UNL     1       0.118  11.304  18.948  0.00  0.00    +0.000 A 
ATOM      3  N   UNL     1       0.435  12.085  20.059  0.00  0.00    +0.000 N 
ATOM      4  C   UNL     1       0.299  11.222  21.130  0.00  0.00    +0.000 A 
ATOM      5  C   UNL     1      -0.121  11.489  22.433  0.00  0.00    +0.000 A 
ATOM      6  C   UNL     1      -0.723  10.422  23.090  0.00  0.00    +0.000 A 
ATOM      7  C   UNL     1      -0.762   9.155  22.500  0.00  0.00    +0.000 A 
ATOM      8  C   UNL     1      -0.093   8.872  21.282  0.00  0.00    +0.000 A 
ATOM      9  C   UNL     1       0.472   9.947  20.556  0.00  0.00    +0.000 A 
ATOM     10  H   UNL     1       1.136  12.812  20.062  0.00  0.00    +0.000 HD
ENDROOT
BRANCH   2  11
ATOM     11  C   UNL     1      -1.305  11.038  18.504  0.00  0.00    +0.000 A 
ATOM     12  C   UNL     1      -2.362  11.827  19.028  0.00  0.00    +0.000 A 
ATOM     13  C   UNL     1      -3.677  11.703  18.601  0.00  0.00    +0.000 A 
ATOM     14  C   UNL     1      -3.976  10.784  17.615  0.00  0.00    +0.000 A 
ATOM     15  C   UNL     1      -2.962   9.967  17.098  0.00  0.00    +0.000 A 
ATOM     16  C   UNL     1      -1.628  10.097  17.534  0.00  0.00    +0.000 A 
BRANCH  14  17
ATOM     17  O   UNL     1      -5.289  10.772  17.245  0.00  0.00    +0.000 OA
BRANCH  17  18
ATOM     18  C   UNL     1      -6.187  11.395  18.155  0.00  0.00    +0.000 C 
ATOM     19  C   UNL     1      -6.955  12.458  17.390  0.00  0.00    +0.000 C 
ENDBRANCH  17  18
ENDBRANCH  14  17
ENDBRANCH   2  11
BRANCH   1  20
ATOM     20  C   UNL     1       1.496   9.514  17.974  0.00  0.00    +0.000 C 
BRANCH  20  21
ATOM     21  C   UNL     1       1.551   8.012  17.776  0.00  0.00    +0.000 C 
BRANCH  21  22
ATOM     22  N   UNL     1       2.772   7.420  18.339  0.00  0.00    +0.000 NA
ATOM     23  H   UNL     1       3.629   7.822  17.963  0.00  0.00    +0.000 HD
BRANCH  22  24
ATOM     24  S   UNL     1       2.826   5.720  18.378  0.00  0.00    +0.000 S 
ATOM     25  O   UNL     1       1.610   5.185  17.805  0.00  0.00    +0.000 OA
ATOM     26  O   UNL     1       3.263   5.351  19.708  0.00  0.00    +0.000 OA
BRANCH  24  30
ATOM     27  C   UNL     1       6.165   4.716  15.381  0.00  0.00    +0.000 A 
ATOM     28  C   UNL     1       5.401   3.709  15.983  0.00  0.00    +0.000 A 
ATOM     29  C   UNL     1       4.396   4.014  16.909  0.00  0.00    +0.000 A 
ATOM     30  C   UNL     1       4.171   5.343  17.278  0.00  0.00    +0.000 A 
ATOM     31  C   UNL     1       4.921   6.370  16.701  0.00  0.00    +0.000 A 
ATOM     32  C   UNL     1       5.902   6.063  15.761  0.00  0.00    +0.000 A 
BRANCH  27  33
ATOM     33  C   UNL     1       7.250   4.395  14.400  0.00  0.00    +0.000 C 
BRANCH  33  34
ATOM     34  C   UNL     1       7.123   5.041  13.012  0.00  0.00    +0.000 C 
BRANCH  34  35
ATOM     35  C   UNL     1       6.927   4.030  11.874  0.00  0.00    +0.000 C 
BRANCH  35  37
ATOM     36  C   UNL     1       5.747   1.840  11.431  0.00  0.00    +0.000 C 
ATOM     37  C   UNL     1       5.650   3.210  12.082  0.00  0.00    +0.000 C 
ENDBRANCH  35  37
ENDBRANCH  34  35
ENDBRANCH  33  34
ENDBRANCH  27  33
ENDBRANCH  24  30
ENDBRANCH  22  24
ENDBRANCH  21  22
ENDBRANCH  20  21
ENDBRANCH   1  20
TORSDOF 12
ENDMDL
MODEL 3
REMARK VINA RESULT:      -7.9      2.511      3.880
REMARK  Name = 
REMARK  14 active torsions:
REMARK  status: ('A' for Active; 'I' for Inactive)
REMARK    1  A    between atoms: C_1  and  C_2
REMARK    2  A    between atoms: C_2  and  C_3
REMARK    3  A    between atoms: C_3  and  C_4
REMARK    4  A    between atoms: C_4  and  C_5
REMARK    5  A    between atoms: C_5  and  C_6
REMARK    6  A    between atoms: C_9  and  S_10
REMARK    7  A    between atoms: S_10  and  N_13
REMARK    8  A    between atoms: N_13  and  C_14
REMARK    9  A    between atoms: C_14  and  C_15
REMARK   10  A    between atoms: C_15  and  C_16
REMARK   11  A    between atoms: C_17  and  C_18
REMARK   12  A    between atoms: C_21  and  O_22
REMARK   13  A    between atoms: O_22  and  C_23
REMARK   14  A    between atoms: C_23  and  C_24
REMARK                            x       y       z     vdW  Elec       q    Type
REMARK                         _______ _______ _______ _____ _____    ______ ____
ROOT
ATOM      1  C   UNL     1       1.381   9.431  19.132  0.00  0.00    +0.000 A 
ATOM      2  C   UNL     1       0.706  10.634  18.813  0.00  0.00    +0.000 A 
ATOM      3  N   UNL     1       1.097  11.378  19.924  0.00  0.00    +0.000 N 
ATOM      4  C   UNL     1       0.782  10.571  21.001  0.00  0.00    +0.000 A 
ATOM      5  C   UNL     1       0.357  10.929  22.281  0.00  0.00    +0.000 A 
ATOM      6  C   UNL     1      -0.432   9.984  22.927  0.00  0.00    +0.000 A 
ATOM      7  C   UNL     1      -0.647   8.726  22.355  0.00  0.00    +0.000 A 
ATOM      8  C   UNL     1       0.018   8.316  21.171  0.00  0.00    +0.000 A 
ATOM      9  C   UNL     1       0.775   9.272  20.455  0.00  0.00    +0.000 A 
ATOM     10  H   UNL     1       1.902  11.986  19.948  0.00  0.00    +0.000 HD
ENDROOT
BRANCH   2  11
ATOM     11  C   UNL     1      -0.722  10.585  18.311  0.00  0.00    +0.000 A 
ATOM     12  C   UNL     1      -1.692  11.458  18.869  0.00  0.00    +0.000 A 
ATOM     13  C   UNL     1      -2.995  11.535  18.399  0.00  0.00    +0.000 A 
ATOM     14  C   UNL     1      -3.370  10.740  17.334  0.00  0.00    +0.000 A 
ATOM     15  C   UNL     1      -2.446   9.844  16.779  0.00  0.00    +0.000 A 
ATOM     16  C   UNL     1      -1.124   9.770  17.260  0.00  0.00    +0.000 A 
BRANCH  14  17
ATOM     17  O   UNL     1      -4.659  10.923  16.929  0.00  0.00    +0.000 OA
BRANCH  17  18
ATOM     18  C   UNL     1      -5.623  11.002  17.973  0.00  0.00    +0.000 C 
ATOM     19  C   UNL     1      -6.609  12.097  17.608  0.00  0.00    +0.000 C 
ENDBRANCH  17  18
ENDBRANCH  14  17
ENDBRANCH   2  11
BRANCH   1  20
ATOM     20  C   UNL     1       1.823   8.628  17.927  0.00  0.00    +0.000 C 
BRANCH  20  21
ATOM     21  C   UNL     1       3.046   7.734  17.864  0.00  0.00    +0.000 C 
BRANCH  21  22
ATOM     22  N   UNL     1       3.655   7.718  16.528  0.00  0.00    +0.000 NA
ATOM     23  H   UNL     1       3.005   7.458  15.788  0.00  0.00    +0.000 HD
BRANCH  22  24
ATOM     24  S   UNL     1       5.139   6.895  16.396  0.00  0.00    +0.000 S 
ATOM     25  O   UNL     1       6.195   7.712  16.953  0.00  0.00    +0.000 OA
ATOM     26  O   UNL     1       5.209   6.384  15.044  0.00  0.00    +0.000 OA
BRANCH  24  30
ATOM     27  C   UNL     1       4.401   3.372  19.257  0.00  0.00    +0.000 A 
ATOM     28  C   UNL     1       5.247   4.431  19.610  0.00  0.00    +0.000 A 
ATOM     29  C   UNL     1       5.485   5.495  18.731  0.00  0.00    +0.000 A 
ATOM     30  C   UNL     1       4.906   5.490  17.460  0.00  0.00    +0.000 A 
ATOM     31  C   UNL     1       4.063   4.445  17.075  0.00  0.00    +0.000 A 
ATOM     32  C   UNL     1       3.809   3.401  17.963  0.00  0.00    +0.000 A 
BRANCH  27  33
ATOM     33  C   UNL     1       4.152   2.225  20.187  0.00  0.00    +0.000 C 
BRANCH  33  34
ATOM     34  C   UNL     1       2.963   2.374  21.146  0.00  0.00    +0.000 C 
BRANCH  34  35
ATOM     35  C   UNL     1       2.263   3.736  21.059  0.00  0.00    +0.000 C 
BRANCH  35  37
ATOM     36  C   UNL     1       0.741   2.755  19.295  0.00  0.00    +0.000 C 
ATOM     37  C   UNL     1       0.820   3.581  20.569  0.00  0.00    +0.000 C 
ENDBRANCH  35  37
ENDBRANCH  34  35
ENDBRANCH  33  34
ENDBRANCH  27  33
ENDBRANCH  24  30
ENDBRANCH  22  24
ENDBRANCH  21  22
ENDBRANCH  20  21
ENDBRANCH   1  20
TORSDOF 12
ENDMDL
MODEL 4
REMARK VINA RESULT:      -7.8      2.413      3.989
REMARK  Name = 
REMARK  14 active torsions:
REMARK  status: ('A' for Active; 'I' for Inactive)
REMARK    1  A    between atoms: C_1  and  C_2
REMARK    2  A    between atoms: C_2  and  C_3
REMARK    3  A    between atoms: C_3  and  C_4
REMARK    4  A    between atoms: C_4  and  C_5
REMARK    5  A    between atoms: C_5  and  C_6
REMARK    6  A    between atoms: C_9  and  S_10
REMARK    7  A    between atoms: S_10  and  N_13
REMARK    8  A    between atoms: N_13  and  C_14
REMARK    9  A    between atoms: C_14  and  C_15
REMARK   10  A    between atoms: C_15  and  C_16
REMARK   11  A    between atoms: C_17  and  C_18
REMARK   12  A    between atoms: C_21  and  O_22
REMARK   13  A    between atoms: O_22  and  C_23
REMARK   14  A    between atoms: C_23  and  C_24
REMARK                            x       y       z     vdW  Elec       q    Type
REMARK                         _______ _______ _______ _____ _____    ______ ____
ROOT
ATOM      1  C   UNL     1       1.291   9.553  19.113  0.00  0.00    +0.000 A 
ATOM      2  C   UNL     1       0.568  10.737  18.831  0.00  0.00    +0.000 A 
ATOM      3  N   UNL     1       0.951  11.471  19.952  0.00  0.00    +0.000 N 
ATOM      4  C   UNL     1       0.683  10.630  21.016  0.00  0.00    +0.000 A 
ATOM      5  C   UNL     1       0.268  10.946  22.309  0.00  0.00    +0.000 A 
ATOM      6  C   UNL     1      -0.476   9.960  22.947  0.00  0.00    +0.000 A 
ATOM      7  C   UNL     1      -0.657   8.708  22.352  0.00  0.00    +0.000 A 
ATOM      8  C   UNL     1       0.003   8.347  21.149  0.00  0.00    +0.000 A 
ATOM      9  C   UNL     1       0.713   9.344  20.442  0.00  0.00    +0.000 A 
ATOM     10  H   UNL     1       1.735  12.107  19.975  0.00  0.00    +0.000 HD
ENDROOT
BRANCH   2  11
ATOM     11  C   UNL     1      -0.865  10.647  18.351  0.00  0.00    +0.000 A 
ATOM     12  C   UNL     1      -1.826  11.574  18.834  0.00  0.00    +0.000 A 
ATOM     13  C   UNL     1      -3.134  11.612  18.373  0.00  0.00    +0.000 A 
ATOM     14  C   UNL     1      -3.523  10.723  17.392  0.00  0.00    +0.000 A 
ATOM     15  C   UNL     1      -2.609   9.774  16.914  0.00  0.00    +0.000 A 
ATOM     16  C   UNL     1      -1.281   9.740  17.385  0.00  0.00    +0.000 A 
BRANCH  14  17
ATOM     17  O   UNL     1      -4.816  10.872  16.985  0.00  0.00    +0.000 OA
BRANCH  17  18
ATOM     18  C   UNL     1      -5.692  11.464  17.937  0.00  0.00    +0.000 C 
ATOM     19  C   UNL     1      -6.443  10.342  18.633  0.00  0.00    +0.000 C 
ENDBRANCH  17  18
ENDBRANCH  14  17
ENDBRANCH   2  11
BRANCH   1  20
ATOM     20  C   UNL     1       1.740   8.791  17.884  0.00  0.00    +0.000 C 
BRANCH  20  21
ATOM     21  C   UNL     1       2.868   7.779  17.838  0.00  0.00    +0.000 C 
BRANCH  21  22
ATOM     22  N   UNL     1       3.922   8.164  16.890  0.00  0.00    +0.000 NA
ATOM     23  H   UNL     1       3.564   8.518  16.005  0.00  0.00    +0.000 HD
BRANCH  22  24
ATOM     24  S   UNL     1       5.171   7.030  16.666  0.00  0.00    +0.000 S 
ATOM     25  O   UNL     1       6.339   7.445  17.412  0.00  0.00    +0.000 OA
ATOM     26  O   UNL     1       5.236   6.762  15.245  0.00  0.00    +0.000 OA
BRANCH  24  30
ATOM     27  C   UNL     1       3.634   3.135  18.564  0.00  0.00    +0.000 A 
ATOM     28  C   UNL     1       3.416   3.420  17.211  0.00  0.00    +0.000 A 
ATOM     29  C   UNL     1       3.868   4.614  16.638  0.00  0.00    +0.000 A 
ATOM     30  C   UNL     1       4.516   5.565  17.431  0.00  0.00    +0.000 A 
ATOM     31  C   UNL     1       4.743   5.314  18.786  0.00  0.00    +0.000 A 
ATOM     32  C   UNL     1       4.313   4.113  19.346  0.00  0.00    +0.000 A 
BRANCH  27  33
ATOM     33  C   UNL     1       3.141   1.865  19.187  0.00  0.00    +0.000 C 
BRANCH  33  34
ATOM     34  C   UNL     1       1.618   1.703  19.284  0.00  0.00    +0.000 C 
BRANCH  34  35
ATOM     35  C   UNL     1       0.863   3.028  19.451  0.00  0.00    +0.000 C 
BRANCH  35  37
ATOM     36  C   UNL     1       1.315   2.641  21.907  0.00  0.00    +0.000 C 
ATOM     37  C   UNL     1       1.183   3.676  20.801  0.00  0.00    +0.000 C 
ENDBRANCH  35  37
ENDBRANCH  34  35
ENDBRANCH  33  34
ENDBRANCH  27  33
ENDBRANCH  24  30
ENDBRANCH  22  24
ENDBRANCH  21  22
ENDBRANCH  20  21
ENDBRANCH   1  20
TORSDOF 12
ENDMDL
MODEL 5
REMARK VINA RESULT:      -7.7      2.749      4.302
REMARK  Name = 
REMARK  14 active torsions:
REMARK  status: ('A' for Active; 'I' for Inactive)
REMARK    1  A    between atoms: C_1  and  C_2
REMARK    2  A    between atoms: C_2  and  C_3
REMARK    3  A    between atoms: C_3  and  C_4
REMARK    4  A    between atoms: C_4  and  C_5
REMARK    5  A    between atoms: C_5  and  C_6
REMARK    6  A    between atoms: C_9  and  S_10
REMARK    7  A    between atoms: S_10  and  N_13
REMARK    8  A    between atoms: N_13  and  C_14
REMARK    9  A    between atoms: C_14  and  C_15
REMARK   10  A    between atoms: C_15  and  C_16
REMARK   11  A    between atoms: C_17  and  C_18
REMARK   12  A    between atoms: C_21  and  O_22
REMARK   13  A    between atoms: O_22  and  C_23
REMARK   14  A    between atoms: C_23  and  C_24
REMARK                            x       y       z     vdW  Elec       q    Type
REMARK                         _______ _______ _______ _____ _____    ______ ____
ROOT
ATOM      1  C   UNL     1       0.163   9.889  19.259  0.00  0.00    +0.000 A 
ATOM      2  C   UNL     1       0.315  11.143  19.897  0.00  0.00    +0.000 A 
ATOM      3  N   UNL     1      -0.976  11.260  20.409  0.00  0.00    +0.000 N 
ATOM      4  C   UNL     1      -1.795  11.036  19.317  0.00  0.00    +0.000 A 
ATOM      5  C   UNL     1      -3.042  11.585  19.020  0.00  0.00    +0.000 A 
ATOM      6  C   UNL     1      -3.343  11.666  17.665  0.00  0.00    +0.000 A 
ATOM      7  C   UNL     1      -2.489  11.103  16.712  0.00  0.00    +0.000 A 
ATOM      8  C   UNL     1      -1.360  10.328  17.080  0.00  0.00    +0.000 A 
ATOM      9  C   UNL     1      -0.988  10.281  18.443  0.00  0.00    +0.000 A 
ATOM     10  H   UNL     1      -1.251  10.965  21.334  0.00  0.00    +0.000 HD
ENDROOT
BRANCH   2  11
ATOM     11  C   UNL     1       1.026  12.272  19.180  0.00  0.00    +0.000 A 
ATOM     12  C   UNL     1       0.522  13.594  19.282  0.00  0.00    +0.000 A 
ATOM     13  C   UNL     1       1.168  14.691  18.729  0.00  0.00    +0.000 A 
ATOM     14  C   UNL     1       2.361  14.498  18.061  0.00  0.00    +0.000 A 
ATOM     15  C   UNL     1       2.871  13.200  17.916  0.00  0.00    +0.000 A 
ATOM     16  C   UNL     1       2.211  12.090  18.479  0.00  0.00    +0.000 A 
BRANCH  14  17
ATOM     17  O   UNL     1       2.929  15.645  17.592  0.00  0.00    +0.000 OA
BRANCH  17  18
ATOM     18  C   UNL     1       2.497  16.844  18.224  0.00  0.00    +0.000 C 
ATOM     19  C   UNL     1       1.864  17.724  17.160  0.00  0.00    +0.000 C 
ENDBRANCH  17  18
ENDBRANCH  14  17
ENDBRANCH   2  11
BRANCH   1  20
ATOM     20  C   UNL     1       1.431   9.064  19.199  0.00  0.00    +0.000 C 
BRANCH  20  21
ATOM     21  C   UNL     1       1.866   8.201  18.031  0.00  0.00    +0.000 C 
BRANCH  21  22
ATOM     22  N   UNL     1       3.232   7.687  18.197  0.00  0.00    +0.000 NA
ATOM     23  H   UNL     1       3.885   8.033  17.496  0.00  0.00    +0.000 HD
BRANCH  22  24
ATOM     24  S   UNL     1       3.373   6.007  18.428  0.00  0.00    +0.000 S 
ATOM     25  O   UNL     1       2.064   5.397  18.340  0.00  0.00    +0.000 OA
ATOM     26  O   UNL     1       4.219   5.818  19.587  0.00  0.00    +0.000 OA
BRANCH  24  30
ATOM     27  C   UNL     1       5.995   4.750  14.867  0.00  0.00    +0.000 A 
ATOM     28  C   UNL     1       5.580   6.077  15.032  0.00  0.00    +0.000 A 
ATOM     29  C   UNL     1       4.766   6.456  16.107  0.00  0.00    +0.000 A 
ATOM     30  C   UNL     1       4.321   5.492  17.016  0.00  0.00    +0.000 A 
ATOM     31  C   UNL     1       4.712   4.159  16.875  0.00  0.00    +0.000 A 
ATOM     32  C   UNL     1       5.542   3.792  15.818  0.00  0.00    +0.000 A 
BRANCH  27  33
ATOM     33  C   UNL     1       6.854   4.336  13.713  0.00  0.00    +0.000 C 
BRANCH  33  34
ATOM     34  C   UNL     1       6.207   3.394  12.688  0.00  0.00    +0.000 C 
BRANCH  34  35
ATOM     35  C   UNL     1       4.727   3.695  12.418  0.00  0.00    +0.000 C 
BRANCH  35  37
ATOM     36  C   UNL     1       3.354   3.761  10.297  0.00  0.00    +0.000 C 
ATOM     37  C   UNL     1       4.218   2.904  11.209  0.00  0.00    +0.000 C 
ENDBRANCH  35  37
ENDBRANCH  34  35
ENDBRANCH  33  34
ENDBRANCH  27  33
ENDBRANCH  24  30
ENDBRANCH  22  24
ENDBRANCH  21  22
ENDBRANCH  20  21
ENDBRANCH   1  20
TORSDOF 12
ENDMDL
MODEL 6
REMARK VINA RESULT:      -7.6      1.795      3.124
REMARK  Name = 
REMARK  14 active torsions:
REMARK  status: ('A' for Active; 'I' for Inactive)
REMARK    1  A    between atoms: C_1  and  C_2
REMARK    2  A    between atoms: C_2  and  C_3
REMARK    3  A    between atoms: C_3  and  C_4
REMARK    4  A    between atoms: C_4  and  C_5
REMARK    5  A    between atoms: C_5  and  C_6
REMARK    6  A    between atoms: C_9  and  S_10
REMARK    7  A    between atoms: S_10  and  N_13
REMARK    8  A    between atoms: N_13  and  C_14
REMARK    9  A    between atoms: C_14  and  C_15
REMARK   10  A    between atoms: C_15  and  C_16
REMARK   11  A    between atoms: C_17  and  C_18
REMARK   12  A    between atoms: C_21  and  O_22
REMARK   13  A    between atoms: O_22  and  C_23
REMARK   14  A    between atoms: C_23  and  C_24
REMARK                            x       y       z     vdW  Elec       q    Type
REMARK                         _______ _______ _______ _____ _____    ______ ____
ROOT
ATOM      1  C   UNL     1       0.396  10.211  21.159  0.00  0.00    +0.000 A 
ATOM      2  C   UNL     1       0.331  10.894  19.921  0.00  0.00    +0.000 A 
ATOM      3  N   UNL     1       1.069  12.021  20.280  0.00  0.00    +0.000 N 
ATOM      4  C   UNL     1       0.470  12.461  21.445  0.00  0.00    +0.000 A 
ATOM      5  C   UNL     1       0.315  13.762  21.922  0.00  0.00    +0.000 A 
ATOM      6  C   UNL     1      -0.787  13.962  22.745  0.00  0.00    +0.000 A 
ATOM      7  C   UNL     1      -1.579  12.882  23.148  0.00  0.00    +0.000 A 
ATOM      8  C   UNL     1      -1.229  11.541  22.845  0.00  0.00    +0.000 A 
ATOM      9  C   UNL     1      -0.154  11.307  21.958  0.00  0.00    +0.000 A 
ATOM     10  H   UNL     1       2.063  12.119  20.136  0.00  0.00    +0.000 HD
ENDROOT
BRANCH   2  11
ATOM     11  C   UNL     1      -0.984  10.971  19.172  0.00  0.00    +0.000 A 
ATOM     12  C   UNL     1      -1.389   9.886  18.353  0.00  0.00    +0.000 A 
ATOM     13  C   UNL     1      -2.619   9.845  17.711  0.00  0.00    +0.000 A 
ATOM     14  C   UNL     1      -3.497  10.896  17.881  0.00  0.00    +0.000 A 
ATOM     15  C   UNL     1      -3.117  11.998  18.659  0.00  0.00    +0.000 A 
ATOM     16  C   UNL     1      -1.867  12.035  19.309  0.00  0.00    +0.000 A 
BRANCH  14  17
ATOM     17  O   UNL     1      -4.689  10.736  17.238  0.00  0.00    +0.000 OA
BRANCH  17  18
ATOM     18  C   UNL     1      -5.840  11.129  17.975  0.00  0.00    +0.000 C 
ATOM     19  C   UNL     1      -6.359  12.420  17.367  0.00  0.00    +0.000 C 
ENDBRANCH  17  18
ENDBRANCH  14  17
ENDBRANCH   2  11
BRANCH   1  20
ATOM     20  C   UNL     1       0.367   8.702  21.038  0.00  0.00    +0.000 C 
BRANCH  20  21
ATOM     21  C   UNL     1       1.271   7.872  20.148  0.00  0.00    +0.000 C 
BRANCH  21  22
ATOM     22  N   UNL     1       2.106   6.940  20.919  0.00  0.00    +0.000 NA
ATOM     23  H   UNL     1       3.088   7.211  20.956  0.00  0.00    +0.000 HD
BRANCH  22  24
ATOM     24  S   UNL     1       1.910   5.290  20.555  0.00  0.00    +0.000 S 
ATOM     25  O   UNL     1       0.554   5.051  20.112  0.00  0.00    +0.000 OA
ATOM     26  O   UNL     1       2.487   4.552  21.659  0.00  0.00    +0.000 OA
BRANCH  24  30
ATOM     27  C   UNL     1       4.558   4.624  16.856  0.00  0.00    +0.000 A 
ATOM     28  C   UNL     1       4.201   3.562  17.696  0.00  0.00    +0.000 A 
ATOM     29  C   UNL     1       3.410   3.768  18.832  0.00  0.00    +0.000 A 
ATOM     30  C   UNL     1       2.996   5.060  19.167  0.00  0.00    +0.000 A 
ATOM     31  C   UNL     1       3.341   6.142  18.353  0.00  0.00    +0.000 A 
ATOM     32  C   UNL     1       4.107   5.928  17.210  0.00  0.00    +0.000 A 
BRANCH  27  33
ATOM     33  C   UNL     1       5.415   4.413  15.646  0.00  0.00    +0.000 C 
BRANCH  33  34
ATOM     34  C   UNL     1       6.881   4.852  15.767  0.00  0.00    +0.000 C 
BRANCH  34  35
ATOM     35  C   UNL     1       7.506   4.554  17.136  0.00  0.00    +0.000 C 
BRANCH  35  37
ATOM     36  C   UNL     1       7.121   5.603  19.403  0.00  0.00    +0.000 C 
ATOM     37  C   UNL     1       7.609   5.828  17.981  0.00  0.00    +0.000 C 
ENDBRANCH  35  37
ENDBRANCH  34  35
ENDBRANCH  33  34
ENDBRANCH  27  33
ENDBRANCH  24  30
ENDBRANCH  22  24
ENDBRANCH  21  22
ENDBRANCH  20  21
ENDBRANCH   1  20
TORSDOF 12
ENDMDL
MODEL 7
REMARK VINA RESULT:      -7.6      0.487      1.268
REMARK  Name = 
REMARK  14 active torsions:
REMARK  status: ('A' for Active; 'I' for Inactive)
REMARK    1  A    between atoms: C_1  and  C_2
REMARK    2  A    between atoms: C_2  and  C_3
REMARK    3  A    between atoms: C_3  and  C_4
REMARK    4  A    between atoms: C_4  and  C_5
REMARK    5  A    between atoms: C_5  and  C_6
REMARK    6  A    between atoms: C_9  and  S_10
REMARK    7  A    between atoms: S_10  and  N_13
REMARK    8  A    between atoms: N_13  and  C_14
REMARK    9  A    between atoms: C_14  and  C_15
REMARK   10  A    between atoms: C_15  and  C_16
REMARK   11  A    between atoms: C_17  and  C_18
REMARK   12  A    between atoms: C_21  and  O_22
REMARK   13  A    between atoms: O_22  and  C_23
REMARK   14  A    between atoms: C_23  and  C_24
REMARK                            x       y       z     vdW  Elec       q    Type
REMARK                         _______ _______ _______ _____ _____    ______ ____
ROOT
ATOM      1  C   UNL     1       1.061   9.898  19.041  0.00  0.00    +0.000 A 
ATOM      2  C   UNL     1       0.381  11.134  18.917  0.00  0.00    +0.000 A 
ATOM      3  N   UNL     1       0.865  11.740  20.075  0.00  0.00    +0.000 N 
ATOM      4  C   UNL     1       0.621  10.813  21.071  0.00  0.00    +0.000 A 
ATOM      5  C   UNL     1       0.299  11.021  22.412  0.00  0.00    +0.000 A 
ATOM      6  C   UNL     1      -0.453  10.011  23.002  0.00  0.00    +0.000 A 
ATOM      7  C   UNL     1      -0.729   8.830  22.305  0.00  0.00    +0.000 A 
ATOM      8  C   UNL     1      -0.160   8.558  21.034  0.00  0.00    +0.000 A 
ATOM      9  C   UNL     1       0.554   9.588  20.379  0.00  0.00    +0.000 A 
ATOM     10  H   UNL     1       1.679  12.337  20.107  0.00  0.00    +0.000 HD
ENDROOT
BRANCH   2  11
ATOM     11  C   UNL     1      -1.081  11.152  18.524  0.00  0.00    +0.000 A 
ATOM     12  C   UNL     1      -1.599  10.118  17.701  0.00  0.00    +0.000 A 
ATOM     13  C   UNL     1      -2.944  10.018  17.375  0.00  0.00    +0.000 A 
ATOM     14  C   UNL     1      -3.826  10.952  17.879  0.00  0.00    +0.000 A 
ATOM     15  C   UNL     1      -3.344  12.004  18.670  0.00  0.00    +0.000 A 
ATOM     16  C   UNL     1      -1.977  12.101  18.999  0.00  0.00    +0.000 A 
BRANCH  14  17
ATOM     17  O   UNL     1      -5.126  10.738  17.528  0.00  0.00    +0.000 OA
BRANCH  17  18
ATOM     18  C   UNL     1      -5.984  10.318  18.582  0.00  0.00    +0.000 C 
ATOM     19  C   UNL     1      -7.082  11.357  18.724  0.00  0.00    +0.000 C 
ENDBRANCH  17  18
ENDBRANCH  14  17
ENDBRANCH   2  11
BRANCH   1  20
ATOM     20  C   UNL     1       1.399   9.240  17.720  0.00  0.00    +0.000 C 
BRANCH  20  21
ATOM     21  C   UNL     1       2.112   7.913  17.555  0.00  0.00    +0.000 C 
BRANCH  21  22
ATOM     22  N   UNL     1       2.556   7.356  18.839  0.00  0.00    +0.000 NA
ATOM     23  H   UNL     1       3.363   7.837  19.233  0.00  0.00    +0.000 HD
BRANCH  22  24
ATOM     24  S   UNL     1       2.729   5.664  18.897  0.00  0.00    +0.000 S 
ATOM     25  O   UNL     1       1.528   5.039  18.389  0.00  0.00    +0.000 OA
ATOM     26  O   UNL     1       3.251   5.346  20.209  0.00  0.00    +0.000 OA
BRANCH  24  30
ATOM     27  C   UNL     1       5.987   4.852  15.756  0.00  0.00    +0.000 A 
ATOM     28  C   UNL     1       5.286   3.804  16.365  0.00  0.00    +0.000 A 
ATOM     29  C   UNL     1       4.306   4.051  17.334  0.00  0.00    +0.000 A 
ATOM     30  C   UNL     1       4.044   5.362  17.739  0.00  0.00    +0.000 A 
ATOM     31  C   UNL     1       4.731   6.429  17.157  0.00  0.00    +0.000 A 
ATOM     32  C   UNL     1       5.687   6.180  16.174  0.00  0.00    +0.000 A 
BRANCH  27  33
ATOM     33  C   UNL     1       7.045   4.594  14.728  0.00  0.00    +0.000 C 
BRANCH  33  34
ATOM     34  C   UNL     1       6.563   4.454  13.277  0.00  0.00    +0.000 C 
BRANCH  34  35
ATOM     35  C   UNL     1       5.270   3.641  13.130  0.00  0.00    +0.000 C 
BRANCH  35  37
ATOM     36  C   UNL     1       5.911   1.812  11.509  0.00  0.00    +0.000 C 
ATOM     37  C   UNL     1       5.124   3.097  11.705  0.00  0.00    +0.000 C 
ENDBRANCH  35  37
ENDBRANCH  34  35
ENDBRANCH  33  34
ENDBRANCH  27  33
ENDBRANCH  24  30
ENDBRANCH  22  24
ENDBRANCH  21  22
ENDBRANCH  20  21
ENDBRANCH   1  20
TORSDOF 12
ENDMDL
MODEL 8
REMARK VINA RESULT:      -7.6      1.164      1.627
REMARK  Name = 
REMARK  14 active torsions:
REMARK  status: ('A' for Active; 'I' for Inactive)
REMARK    1  A    between atoms: C_1  and  C_2
REMARK    2  A    between atoms: C_2  and  C_3
REMARK    3  A    between atoms: C_3  and  C_4
REMARK    4  A    between atoms: C_4  and  C_5
REMARK    5  A    between atoms: C_5  and  C_6
REMARK    6  A    between atoms: C_9  and  S_10
REMARK    7  A    between atoms: S_10  and  N_13
REMARK    8  A    between atoms: N_13  and  C_14
REMARK    9  A    between atoms: C_14  and  C_15
REMARK   10  A    between atoms: C_15  and  C_16
REMARK   11  A    between atoms: C_17  and  C_18
REMARK   12  A    between atoms: C_21  and  O_22
REMARK   13  A    between atoms: O_22  and  C_23
REMARK   14  A    between atoms: C_23  and  C_24
REMARK                            x       y       z     vdW  Elec       q    Type
REMARK                         _______ _______ _______ _____ _____    ______ ____
ROOT
ATOM      1  C   UNL     1       0.480  10.027  20.734  0.00  0.00    +0.000 A 
ATOM      2  C   UNL     1       0.214  10.796  19.576  0.00  0.00    +0.000 A 
ATOM      3  N   UNL     1       0.834  11.978  19.979  0.00  0.00    +0.000 N 
ATOM      4  C   UNL     1       0.296  12.235  21.227  0.00  0.00    +0.000 A 
ATOM      5  C   UNL     1       0.023  13.459  21.836  0.00  0.00    +0.000 A 
ATOM      6  C   UNL     1      -1.014  13.440  22.762  0.00  0.00    +0.000 A 
ATOM      7  C   UNL     1      -1.622  12.233  23.123  0.00  0.00    +0.000 A 
ATOM      8  C   UNL     1      -1.136  10.981  22.667  0.00  0.00    +0.000 A 
ATOM      9  C   UNL     1      -0.127  10.969  21.676  0.00  0.00    +0.000 A 
ATOM     10  H   UNL     1       1.790  12.220  19.765  0.00  0.00    +0.000 HD
ENDROOT
BRANCH   2  11
ATOM     11  C   UNL     1      -1.164  10.759  18.948  0.00  0.00    +0.000 A 
ATOM     12  C   UNL     1      -2.101  11.780  19.252  0.00  0.00    +0.000 A 
ATOM     13  C   UNL     1      -3.348  11.863  18.647  0.00  0.00    +0.000 A 
ATOM     14  C   UNL     1      -3.693  10.923  17.698  0.00  0.00    +0.000 A 
ATOM     15  C   UNL     1      -2.804   9.883  17.396  0.00  0.00    +0.000 A 
ATOM     16  C   UNL     1      -1.540   9.803  18.013  0.00  0.00    +0.000 A 
BRANCH  14  17
ATOM     17  O   UNL     1      -4.922  11.120  17.140  0.00  0.00    +0.000 OA
BRANCH  17  18
ATOM     18  C   UNL     1      -5.898  11.698  17.999  0.00  0.00    +0.000 C 
ATOM     19  C   UNL     1      -6.495  12.895  17.279  0.00  0.00    +0.000 C 
ENDBRANCH  17  18
ENDBRANCH  14  17
ENDBRANCH   2  11
BRANCH   1  20
ATOM     20  C   UNL     1       0.630   8.543  20.473  0.00  0.00    +0.000 C 
BRANCH  20  21
ATOM     21  C   UNL     1       1.925   7.760  20.561  0.00  0.00    +0.000 C 
BRANCH  21  22
ATOM     22  N   UNL     1       2.290   7.141  19.280  0.00  0.00    +0.000 NA
ATOM     23  H   UNL     1       1.720   7.461  18.498  0.00  0.00    +0.000 HD
BRANCH  22  24
ATOM     24  S   UNL     1       2.468   5.449  19.294  0.00  0.00    +0.000 S 
ATOM     25  O   UNL     1       1.269   4.834  18.768  0.00  0.00    +0.000 OA
ATOM     26  O   UNL     1       2.989   5.099  20.597  0.00  0.00    +0.000 OA
BRANCH  24  30
ATOM     27  C   UNL     1       5.994   4.879  16.399  0.00  0.00    +0.000 A 
ATOM     28  C   UNL     1       5.208   6.037  16.369  0.00  0.00    +0.000 A 
ATOM     29  C   UNL     1       4.123   6.202  17.238  0.00  0.00    +0.000 A 
ATOM     30  C   UNL     1       3.785   5.181  18.130  0.00  0.00    +0.000 A 
ATOM     31  C   UNL     1       4.544   4.010  18.180  0.00  0.00    +0.000 A 
ATOM     32  C   UNL     1       5.638   3.862  17.330  0.00  0.00    +0.000 A 
BRANCH  27  33
ATOM     33  C   UNL     1       7.147   4.690  15.463  0.00  0.00    +0.000 C 
BRANCH  33  34
ATOM     34  C   UNL     1       6.832   4.804  13.965  0.00  0.00    +0.000 C 
BRANCH  34  35
ATOM     35  C   UNL     1       5.828   3.759  13.461  0.00  0.00    +0.000 C 
BRANCH  35  37
ATOM     36  C   UNL     1       5.846   2.019  11.628  0.00  0.00    +0.000 C 
ATOM     37  C   UNL     1       6.019   3.491  11.965  0.00  0.00    +0.000 C 
ENDBRANCH  35  37
ENDBRANCH  34  35
ENDBRANCH  33  34
ENDBRANCH  27  33
ENDBRANCH  24  30
ENDBRANCH  22  24
ENDBRANCH  21  22
ENDBRANCH  20  21
ENDBRANCH   1  20
TORSDOF 12
ENDMDL
MODEL 9
REMARK VINA RESULT:      -7.6      3.746      9.888
REMARK  Name = 
REMARK  14 active torsions:
REMARK  status: ('A' for Active; 'I' for Inactive)
REMARK    1  A    between atoms: C_1  and  C_2
REMARK    2  A    between atoms: C_2  and  C_3
REMARK    3  A    between atoms: C_3  and  C_4
REMARK    4  A    between atoms: C_4  and  C_5
REMARK    5  A    between atoms: C_5  and  C_6
REMARK    6  A    between atoms: C_9  and  S_10
REMARK    7  A    between atoms: S_10  and  N_13
REMARK    8  A    between atoms: N_13  and  C_14
REMARK    9  A    between atoms: C_14  and  C_15
REMARK   10  A    between atoms: C_15  and  C_16
REMARK   11  A    between atoms: C_17  and  C_18
REMARK   12  A    between atoms: C_21  and  O_22
REMARK   13  A    between atoms: O_22  and  C_23
REMARK   14  A    between atoms: C_23  and  C_24
REMARK                            x       y       z     vdW  Elec       q    Type
REMARK                         _______ _______ _______ _____ _____    ______ ____
ROOT
ATOM      1  C   UNL     1       1.921   4.943  19.751  0.00  0.00    +0.000 A 
ATOM      2  C   UNL     1       2.164   5.400  18.433  0.00  0.00    +0.000 A 
ATOM      3  N   UNL     1       1.579   4.338  17.746  0.00  0.00    +0.000 N 
ATOM      4  C   UNL     1       2.161   3.214  18.300  0.00  0.00    +0.000 A 
ATOM      5  C   UNL     1       2.477   1.995  17.700  0.00  0.00    +0.000 A 
ATOM      6  C   UNL     1       3.543   1.312  18.274  0.00  0.00    +0.000 A 
ATOM      7  C   UNL     1       4.140   1.784  19.448  0.00  0.00    +0.000 A 
ATOM      8  C   UNL     1       3.616   2.891  20.164  0.00  0.00    +0.000 A 
ATOM      9  C   UNL     1       2.576   3.645  19.576  0.00  0.00    +0.000 A 
ATOM     10  H   UNL     1       0.621   4.325  17.429  0.00  0.00    +0.000 HD
ENDROOT
BRANCH   2  11
ATOM     11  C   UNL     1       3.519   5.971  18.073  0.00  0.00    +0.000 A 
ATOM     12  C   UNL     1       4.680   5.495  18.736  0.00  0.00    +0.000 A 
ATOM     13  C   UNL     1       5.962   5.903  18.397  0.00  0.00    +0.000 A 
ATOM     14  C   UNL     1       6.126   6.801  17.362  0.00  0.00    +0.000 A 
ATOM     15  C   UNL     1       5.000   7.315  16.705  0.00  0.00    +0.000 A 
ATOM     16  C   UNL     1       3.700   6.897  17.053  0.00  0.00    +0.000 A 
BRANCH  14  17
ATOM     17  O   UNL     1       7.427   7.105  17.088  0.00  0.00    +0.000 OA
BRANCH  17  18
ATOM     18  C   UNL     1       8.176   7.628  18.178  0.00  0.00    +0.000 C 
ATOM     19  C   UNL     1       8.253   9.134  18.005  0.00  0.00    +0.000 C 
ENDBRANCH  17  18
ENDBRANCH  14  17
ENDBRANCH   2  11
BRANCH   1  20
ATOM     20  C   UNL     1       1.735   6.049  20.768  0.00  0.00    +0.000 C 
BRANCH  20  21
ATOM     21  C   UNL     1       1.691   7.532  20.458  0.00  0.00    +0.000 C 
BRANCH  21  22
ATOM     22  N   UNL     1       1.755   8.356  21.673  0.00  0.00    +0.000 NA
ATOM     23  H   UNL     1       2.198   7.886  22.460  0.00  0.00    +0.000 HD
BRANCH  22  24
ATOM     24  S   UNL     1       0.309   9.133  22.123  0.00  0.00    +0.000 S 
ATOM     25  O   UNL     1       0.439   9.653  23.466  0.00  0.00    +0.000 OA
ATOM     26  O   UNL     1      -0.770   8.241  21.757  0.00  0.00    +0.000 OA
BRANCH  24  30
ATOM     27  C   UNL     1      -0.058  12.750  19.309  0.00  0.00    +0.000 A 
ATOM     28  C   UNL     1      -0.799  11.582  19.092  0.00  0.00    +0.000 A 
ATOM     29  C   UNL     1      -0.673  10.474  19.939  0.00  0.00    +0.000 A 
ATOM     30  C   UNL     1       0.235  10.509  20.999  0.00  0.00    +0.000 A 
ATOM     31  C   UNL     1       0.994  11.657  21.238  0.00  0.00    +0.000 A 
ATOM     32  C   UNL     1       0.847  12.766  20.408  0.00  0.00    +0.000 A 
BRANCH  27  33
ATOM     33  C   UNL     1      -0.178  13.934  18.399  0.00  0.00    +0.000 C 
BRANCH  33  34
ATOM     34  C   UNL     1      -0.445  15.286  19.075  0.00  0.00    +0.000 C 
BRANCH  34  35
ATOM     35  C   UNL     1       0.464  16.417  18.579  0.00  0.00    +0.000 C 
BRANCH  35  37
ATOM     36  C   UNL     1       2.562  16.039  19.936  0.00  0.00    +0.000 C 
ATOM     37  C   UNL     1       1.930  15.973  18.555  0.00  0.00    +0.000 C 
ENDBRANCH  35  37
ENDBRANCH  34  35
ENDBRANCH  33  34
ENDBRANCH  27  33
ENDBRANCH  24  30
ENDBRANCH  22  24
ENDBRANCH  21  22
ENDBRANCH  20  21
ENDBRANCH   1  20
TORSDOF 12
ENDMDL
