MODEL 1
REMARK VINA RESULT:      -8.8      0.000      0.000
REMARK  Name = 
REMARK  5 active torsions:
REMARK  status: ('A' for Active; 'I' for Inactive)
REMARK    1  A    between atoms: C_2  and  C_14
REMARK    2  A    between atoms: N_3  and  C_4
REMARK    3  A    between atoms: C_4  and  C_5
REMARK    4  A    between atoms: N_18  and  S_19
REMARK    5  A    between atoms: S_19  and  C_22
REMARK                            x       y       z     vdW  Elec       q    Type
REMARK                         _______ _______ _______ _____ _____    ______ ____
ROOT
ATOM      1  C   UNL     1       7.089   5.841  18.408  0.00  0.00    +0.000 C 
ATOM      2  C   UNL     1       7.345   4.575  17.589  0.00  0.00    +0.000 C 
ATOM      3  C   UNL     1       6.189   4.267  16.643  0.00  0.00    +0.000 C 
ATOM      4  C   UNL     1       4.834   4.263  17.354  0.00  0.00    +0.000 C 
ATOM      5  N   UNL     1       4.614   5.521  18.144  0.00  0.00    +0.000 NA
ATOM      6  C   UNL     1       5.741   5.760  19.121  0.00  0.00    +0.000 C 
ENDROOT
BRANCH   1   8
ATOM      7  O   UNL     1       6.613   7.260  16.522  0.00  0.00    +0.000 OA
ATOM      8  C   UNL     1       7.259   7.099  17.556  0.00  0.00    +0.000 C 
ATOM      9  N   UNL     1       8.074   8.067  18.083  0.00  0.00    +0.000 N 
ATOM     10  H   UNL     1       8.693   7.800  18.846  0.00  0.00    +0.000 HD
BRANCH   9  11
ATOM     11  C   UNL     1       8.314   9.331  17.434  0.00  0.00    +0.000 C 
BRANCH  11  12
ATOM     12  C   UNL     1       9.042  10.266  18.367  0.00  0.00    +0.000 A 
ATOM     13  C   UNL     1       8.944  10.097  19.766  0.00  0.00    +0.000 A 
ATOM     14  C   UNL     1       9.588  10.973  20.647  0.00  0.00    +0.000 A 
ATOM     15  C   UNL     1      10.302  12.017  20.106  0.00  0.00    +0.000 A 
ATOM     16  C   UNL     1      10.397  12.197  18.746  0.00  0.00    +0.000 A 
ATOM     17  C   UNL     1       9.781  11.343  17.855  0.00  0.00    +0.000 A 
ATOM     18  O   UNL     1      11.145  13.285  18.421  0.00  0.00    +0.000 OA
ATOM     19  C   UNL     1      11.468  13.793  19.732  0.00  0.00    +0.000 C 
ATOM     20  O   UNL     1      10.973  12.969  20.807  0.00  0.00    +0.000 OA
ENDBRANCH  11  12
ENDBRANCH   9  11
ENDBRANCH   1   8
BRANCH   5  21
ATOM     21  S   UNL     1       3.074   5.570  18.967  0.00  0.00    +0.000 S 
ATOM     22  O   UNL     1       2.167   4.758  18.176  0.00  0.00    +0.000 OA
ATOM     23  O   UNL     1       3.307   5.218  20.353  0.00  0.00    +0.000 OA
BRANCH  21  24
ATOM     24  C   UNL     1       2.539   7.260  18.828  0.00  0.00    +0.000 A 
ATOM     25  C   UNL     1       2.862   7.934  17.634  0.00  0.00    +0.000 A 
ATOM     26  C   UNL     1       2.421   9.231  17.420  0.00  0.00    +0.000 A 
ATOM     27  C   UNL     1       1.622   9.842  18.378  0.00  0.00    +0.000 A 
ATOM     28  C   UNL     1       1.251   9.151  19.544  0.00  0.00    +0.000 A 
ATOM     29  C   UNL     1       0.386   9.764  20.462  0.00  0.00    +0.000 A 
ATOM     30  C   UNL     1      -0.020   9.082  21.599  0.00  0.00    +0.000 A 
ATOM     31  C   UNL     1       0.480   7.813  21.790  0.00  0.00    +0.000 A 
ATOM     32  N   UNL     1       1.344   7.212  20.942  0.00  0.00    +0.000 NA
ATOM     33  C   UNL     1       1.717   7.838  19.802  0.00  0.00    +0.000 A 
ENDBRANCH  21  24
ENDBRANCH   5  21
TORSDOF 5
ENDMDL
MODEL 2
REMARK VINA RESULT:      -8.6      4.132      7.969
REMARK  Name = 
REMARK  5 active torsions:
REMARK  status: ('A' for Active; 'I' for Inactive)
REMARK    1  A    between atoms: C_2  and  C_14
REMARK    2  A    between atoms: N_3  and  C_4
REMARK    3  A    between atoms: C_4  and  C_5
REMARK    4  A    between atoms: N_18  and  S_19
REMARK    5  A    between atoms: S_19  and  C_22
REMARK                            x       y       z     vdW  Elec       q    Type
REMARK                         _______ _______ _______ _____ _____    ______ ____
ROOT
ATOM      1  C   UNL     1       1.332   5.120  19.405  0.00  0.00    +0.000 C 
ATOM      2  C   UNL     1       0.618   4.363  20.524  0.00  0.00    +0.000 C 
ATOM      3  C   UNL     1       1.598   3.606  21.415  0.00  0.00    +0.000 C 
ATOM      4  C   UNL     1       2.563   2.730  20.614  0.00  0.00    +0.000 C 
ATOM      5  N   UNL     1       3.250   3.505  19.527  0.00  0.00    +0.000 NA
ATOM      6  C   UNL     1       2.251   4.184  18.620  0.00  0.00    +0.000 C 
ENDROOT
BRANCH   1   8
ATOM      7  O   UNL     1       3.106   6.748  19.463  0.00  0.00    +0.000 OA
ATOM      8  C   UNL     1       2.037   6.367  19.938  0.00  0.00    +0.000 C 
ATOM      9  N   UNL     1       1.344   7.083  20.880  0.00  0.00    +0.000 N 
ATOM     10  H   UNL     1       0.556   6.627  21.336  0.00  0.00    +0.000 HD
BRANCH   9  11
ATOM     11  C   UNL     1       1.840   8.306  21.459  0.00  0.00    +0.000 C 
BRANCH  11  12
ATOM     12  C   UNL     1       0.782   9.380  21.394  0.00  0.00    +0.000 A 
ATOM     13  C   UNL     1       0.436   9.966  20.157  0.00  0.00    +0.000 A 
ATOM     14  C   UNL     1      -0.521  10.984  20.082  0.00  0.00    +0.000 A 
ATOM     15  C   UNL     1      -1.097  11.410  21.256  0.00  0.00    +0.000 A 
ATOM     16  C   UNL     1      -0.761  10.854  22.467  0.00  0.00    +0.000 A 
ATOM     17  C   UNL     1       0.171   9.842  22.570  0.00  0.00    +0.000 A 
ATOM     18  O   UNL     1      -1.443  11.417  23.500  0.00  0.00    +0.000 OA
ATOM     19  C   UNL     1      -2.208  12.422  22.804  0.00  0.00    +0.000 C 
ATOM     20  O   UNL     1      -2.027  12.395  21.374  0.00  0.00    +0.000 OA
ENDBRANCH  11  12
ENDBRANCH   9  11
ENDBRANCH   1   8
BRANCH   5  21
ATOM     21  S   UNL     1       4.371   2.550  18.588  0.00  0.00    +0.000 S 
ATOM     22  O   UNL     1       5.389   2.094  19.517  0.00  0.00    +0.000 OA
ATOM     23  O   UNL     1       3.601   1.571  17.850  0.00  0.00    +0.000 OA
BRANCH  21  24
ATOM     24  C   UNL     1       5.140   3.711  17.482  0.00  0.00    +0.000 A 
ATOM     25  C   UNL     1       4.653   3.751  16.160  0.00  0.00    +0.000 A 
ATOM     26  C   UNL     1       5.152   4.676  15.257  0.00  0.00    +0.000 A 
ATOM     27  C   UNL     1       6.109   5.589  15.680  0.00  0.00    +0.000 A 
ATOM     28  C   UNL     1       6.556   5.588  17.013  0.00  0.00    +0.000 A 
ATOM     29  C   UNL     1       7.470   6.566  17.434  0.00  0.00    +0.000 A 
ATOM     30  C   UNL     1       7.891   6.602  18.755  0.00  0.00    +0.000 A 
ATOM     31  C   UNL     1       7.401   5.636  19.604  0.00  0.00    +0.000 A 
ATOM     32  N   UNL     1       6.550   4.659  19.218  0.00  0.00    +0.000 NA
ATOM     33  C   UNL     1       6.086   4.632  17.947  0.00  0.00    +0.000 A 
ENDBRANCH  21  24
ENDBRANCH   5  21
TORSDOF 5
ENDMDL
MODEL 3
REMARK VINA RESULT:      -8.6      4.115      7.855
REMARK  Name = 
REMARK  5 active torsions:
REMARK  status: ('A' for Active; 'I' for Inactive)
REMARK    1  A    between atoms: C_2  and  C_14
REMARK    2  A    between atoms: N_3  and  C_4
REMARK    3  A    between atoms: C_4  and  C_5
REMARK    4  A    between atoms: N_18  and  S_19
REMARK    5  A    between atoms: S_19  and  C_22
REMARK                            x       y       z     vdW  Elec       q    Type
REMARK                         _______ _______ _______ _____ _____    ______ ____
ROOT
ATOM      1  C   UNL     1       1.316   5.125  19.519  0.00  0.00    +0.000 C 
ATOM      2  C   UNL     1       0.642   4.343  20.647  0.00  0.00    +0.000 C 
ATOM      3  C   UNL     1       1.657   3.606  21.514  0.00  0.00    +0.000 C 
ATOM      4  C   UNL     1       2.627   2.758  20.689  0.00  0.00    +0.000 C 
ATOM      5  N   UNL     1       3.274   3.556  19.594  0.00  0.00    +0.000 NA
ATOM      6  C   UNL     1       2.242   4.216  18.711  0.00  0.00    +0.000 C 
ENDROOT
BRANCH   1   8
ATOM      7  O   UNL     1       3.021   6.825  19.519  0.00  0.00    +0.000 OA
ATOM      8  C   UNL     1       2.001   6.385  20.046  0.00  0.00    +0.000 C 
ATOM      9  N   UNL     1       1.339   7.043  21.051  0.00  0.00    +0.000 N 
ATOM     10  H   UNL     1       0.601   6.540  21.540  0.00  0.00    +0.000 HD
BRANCH   9  11
ATOM     11  C   UNL     1       1.819   8.269  21.636  0.00  0.00    +0.000 C 
BRANCH  11  12
ATOM     12  C   UNL     1       0.789   9.360  21.480  0.00  0.00    +0.000 A 
ATOM     13  C   UNL     1       0.214   9.966  22.619  0.00  0.00    +0.000 A 
ATOM     14  C   UNL     1      -0.765  10.958  22.492  0.00  0.00    +0.000 A 
ATOM     15  C   UNL     1      -1.164  11.308  21.224  0.00  0.00    +0.000 A 
ATOM     16  C   UNL     1      -0.618  10.718  20.108  0.00  0.00    +0.000 A 
ATOM     17  C   UNL     1       0.355   9.745  20.202  0.00  0.00    +0.000 A 
ATOM     18  O   UNL     1      -1.150  11.204  18.955  0.00  0.00    +0.000 OA
ATOM     19  C   UNL     1      -2.126  12.131  19.476  0.00  0.00    +0.000 C 
ATOM     20  O   UNL     1      -2.110  12.234  20.914  0.00  0.00    +0.000 OA
ENDBRANCH  11  12
ENDBRANCH   9  11
ENDBRANCH   1   8
BRANCH   5  21
ATOM     21  S   UNL     1       4.400   2.634  18.628  0.00  0.00    +0.000 S 
ATOM     22  O   UNL     1       5.441   2.188  19.537  0.00  0.00    +0.000 OA
ATOM     23  O   UNL     1       3.639   1.647  17.890  0.00  0.00    +0.000 OA
BRANCH  21  24
ATOM     24  C   UNL     1       5.129   3.822  17.523  0.00  0.00    +0.000 A 
ATOM     25  C   UNL     1       4.590   3.897  16.223  0.00  0.00    +0.000 A 
ATOM     26  C   UNL     1       5.057   4.845  15.325  0.00  0.00    +0.000 A 
ATOM     27  C   UNL     1       6.033   5.745  15.735  0.00  0.00    +0.000 A 
ATOM     28  C   UNL     1       6.530   5.708  17.049  0.00  0.00    +0.000 A 
ATOM     29  C   UNL     1       7.463   6.673  17.459  0.00  0.00    +0.000 A 
ATOM     30  C   UNL     1       7.935   6.674  18.763  0.00  0.00    +0.000 A 
ATOM     31  C   UNL     1       7.476   5.686  19.605  0.00  0.00    +0.000 A 
ATOM     32  N   UNL     1       6.607   4.722  19.227  0.00  0.00    +0.000 NA
ATOM     33  C   UNL     1       6.094   4.729  17.975  0.00  0.00    +0.000 A 
ENDBRANCH  21  24
ENDBRANCH   5  21
TORSDOF 5
ENDMDL
MODEL 4
REMARK VINA RESULT:      -8.4      5.999      9.118
REMARK  Name = 
REMARK  5 active torsions:
REMARK  status: ('A' for Active; 'I' for Inactive)
REMARK    1  A    between atoms: C_2  and  C_14
REMARK    2  A    between atoms: N_3  and  C_4
REMARK    3  A    between atoms: C_4  and  C_5
REMARK    4  A    between atoms: N_18  and  S_19
REMARK    5  A    between atoms: S_19  and  C_22
REMARK                            x       y       z     vdW  Elec       q    Type
REMARK                         _______ _______ _______ _____ _____    ______ ____
ROOT
ATOM      1  C   UNL     1       1.495  10.269  20.271  0.00  0.00    +0.000 C 
ATOM      2  C   UNL     1       1.370   9.512  21.594  0.00  0.00    +0.000 C 
ATOM      3  C   UNL     1      -0.073   9.117  21.890  0.00  0.00    +0.000 C 
ATOM      4  C   UNL     1      -1.039  10.297  21.776  0.00  0.00    +0.000 C 
ATOM      5  N   UNL     1      -0.894  11.015  20.465  0.00  0.00    +0.000 NA
ATOM      6  C   UNL     1       0.533  11.455  20.235  0.00  0.00    +0.000 C 
ENDROOT
BRANCH   1   8
ATOM      7  O   UNL     1       0.636   9.614  18.119  0.00  0.00    +0.000 OA
ATOM      8  C   UNL     1       1.354   9.326  19.076  0.00  0.00    +0.000 C 
ATOM      9  N   UNL     1       2.163   8.220  19.094  0.00  0.00    +0.000 N 
ATOM     10  H   UNL     1       2.600   7.968  19.978  0.00  0.00    +0.000 HD
BRANCH   9  11
ATOM     11  C   UNL     1       2.191   7.249  18.029  0.00  0.00    +0.000 C 
BRANCH  11  12
ATOM     12  C   UNL     1       2.051   5.857  18.590  0.00  0.00    +0.000 A 
ATOM     13  C   UNL     1       1.712   4.778  17.744  0.00  0.00    +0.000 A 
ATOM     14  C   UNL     1       1.548   3.485  18.253  0.00  0.00    +0.000 A 
ATOM     15  C   UNL     1       1.706   3.303  19.606  0.00  0.00    +0.000 A 
ATOM     16  C   UNL     1       2.027   4.347  20.442  0.00  0.00    +0.000 A 
ATOM     17  C   UNL     1       2.205   5.630  19.966  0.00  0.00    +0.000 A 
ATOM     18  O   UNL     1       2.136   3.955  21.739  0.00  0.00    +0.000 OA
ATOM     19  C   UNL     1       1.800   2.556  21.629  0.00  0.00    +0.000 C 
ATOM     20  O   UNL     1       1.569   2.125  20.273  0.00  0.00    +0.000 OA
ENDBRANCH  11  12
ENDBRANCH   9  11
ENDBRANCH   1   8
BRANCH   5  21
ATOM     21  S   UNL     1      -1.984  12.367  20.282  0.00  0.00    +0.000 S 
ATOM     22  O   UNL     1      -2.829  12.367  21.463  0.00  0.00    +0.000 OA
ATOM     23  O   UNL     1      -1.184  13.538  19.989  0.00  0.00    +0.000 OA
BRANCH  21  24
ATOM     24  C   UNL     1      -3.008  11.939  18.893  0.00  0.00    +0.000 A 
ATOM     25  C   UNL     1      -2.354  11.443  17.748  0.00  0.00    +0.000 A 
ATOM     26  C   UNL     1      -3.088  11.022  16.649  0.00  0.00    +0.000 A 
ATOM     27  C   UNL     1      -4.475  11.058  16.706  0.00  0.00    +0.000 A 
ATOM     28  C   UNL     1      -5.130  11.499  17.868  0.00  0.00    +0.000 A 
ATOM     29  C   UNL     1      -6.532  11.458  17.926  0.00  0.00    +0.000 A 
ATOM     30  C   UNL     1      -7.192  11.855  19.079  0.00  0.00    +0.000 A 
ATOM     31  C   UNL     1      -6.423  12.306  20.128  0.00  0.00    +0.000 A 
ATOM     32  N   UNL     1      -5.075  12.392  20.087  0.00  0.00    +0.000 NA
ATOM     33  C   UNL     1      -4.404  11.966  18.992  0.00  0.00    +0.000 A 
ENDBRANCH  21  24
ENDBRANCH   5  21
TORSDOF 5
ENDMDL
MODEL 5
REMARK VINA RESULT:      -8.3      5.184      8.105
REMARK  Name = 
REMARK  5 active torsions:
REMARK  status: ('A' for Active; 'I' for Inactive)
REMARK    1  A    between atoms: C_2  and  C_14
REMARK    2  A    between atoms: N_3  and  C_4
REMARK    3  A    between atoms: C_4  and  C_5
REMARK    4  A    between atoms: N_18  and  S_19
REMARK    5  A    between atoms: S_19  and  C_22
REMARK                            x       y       z     vdW  Elec       q    Type
REMARK                         _______ _______ _______ _____ _____    ______ ____
ROOT
ATOM      1  C   UNL     1       1.236   9.349  21.975  0.00  0.00    +0.000 C 
ATOM      2  C   UNL     1       0.562   9.668  23.310  0.00  0.00    +0.000 C 
ATOM      3  C   UNL     1      -0.899  10.065  23.128  0.00  0.00    +0.000 C 
ATOM      4  C   UNL     1      -1.083  11.164  22.081  0.00  0.00    +0.000 C 
ATOM      5  N   UNL     1      -0.413  10.817  20.783  0.00  0.00    +0.000 NA
ATOM      6  C   UNL     1       1.049  10.498  20.987  0.00  0.00    +0.000 C 
ENDROOT
BRANCH   1   8
ATOM      7  O   UNL     1      -0.408   7.742  21.259  0.00  0.00    +0.000 OA
ATOM      8  C   UNL     1       0.783   7.993  21.433  0.00  0.00    +0.000 C 
ATOM      9  N   UNL     1       1.787   7.142  21.049  0.00  0.00    +0.000 N 
ATOM     10  H   UNL     1       2.731   7.348  21.372  0.00  0.00    +0.000 HD
BRANCH   9  11
ATOM     11  C   UNL     1       1.541   5.842  20.479  0.00  0.00    +0.000 C 
BRANCH  11  12
ATOM     12  C   UNL     1       2.613   5.502  19.473  0.00  0.00    +0.000 A 
ATOM     13  C   UNL     1       3.269   4.253  19.526  0.00  0.00    +0.000 A 
ATOM     14  C   UNL     1       4.286   3.933  18.620  0.00  0.00    +0.000 A 
ATOM     15  C   UNL     1       4.641   4.883  17.691  0.00  0.00    +0.000 A 
ATOM     16  C   UNL     1       4.015   6.106  17.636  0.00  0.00    +0.000 A 
ATOM     17  C   UNL     1       3.003   6.445  18.510  0.00  0.00    +0.000 A 
ATOM     18  O   UNL     1       4.514   6.896  16.649  0.00  0.00    +0.000 OA
ATOM     19  C   UNL     1       5.556   6.049  16.123  0.00  0.00    +0.000 C 
ATOM     20  O   UNL     1       5.614   4.751  16.750  0.00  0.00    +0.000 OA
ENDBRANCH  11  12
ENDBRANCH   9  11
ENDBRANCH   1   8
BRANCH   5  21
ATOM     21  S   UNL     1      -0.603  12.039  19.549  0.00  0.00    +0.000 S 
ATOM     22  O   UNL     1      -1.162  13.202  20.214  0.00  0.00    +0.000 OA
ATOM     23  O   UNL     1       0.664  12.164  18.858  0.00  0.00    +0.000 OA
BRANCH  21  24
ATOM     24  C   UNL     1      -1.852  11.394  18.460  0.00  0.00    +0.000 A 
ATOM     25  C   UNL     1      -1.421  10.524  17.439  0.00  0.00    +0.000 A 
ATOM     26  C   UNL     1      -2.342   9.926  16.593  0.00  0.00    +0.000 A 
ATOM     27  C   UNL     1      -3.696  10.161  16.790  0.00  0.00    +0.000 A 
ATOM     28  C   UNL     1      -4.132  10.983  17.843  0.00  0.00    +0.000 A 
ATOM     29  C   UNL     1      -5.508  11.148  18.065  0.00  0.00    +0.000 A 
ATOM     30  C   UNL     1      -5.954  11.925  19.123  0.00  0.00    +0.000 A 
ATOM     31  C   UNL     1      -5.003  12.535  19.908  0.00  0.00    +0.000 A 
ATOM     32  N   UNL     1      -3.672  12.425  19.696  0.00  0.00    +0.000 NA
ATOM     33  C   UNL     1      -3.210  11.633  18.700  0.00  0.00    +0.000 A 
ENDBRANCH  21  24
ENDBRANCH   5  21
TORSDOF 5
ENDMDL
MODEL 6
REMARK VINA RESULT:      -8.3      5.755      8.794
REMARK  Name = 
REMARK  5 active torsions:
REMARK  status: ('A' for Active; 'I' for Inactive)
REMARK    1  A    between atoms: C_2  and  C_14
REMARK    2  A    between atoms: N_3  and  C_4
REMARK    3  A    between atoms: C_4  and  C_5
REMARK    4  A    between atoms: N_18  and  S_19
REMARK    5  A    between atoms: S_19  and  C_22
REMARK                            x       y       z     vdW  Elec       q    Type
REMARK                         _______ _______ _______ _____ _____    ______ ____
ROOT
ATOM      1  C   UNL     1       1.625   9.790  20.667  0.00  0.00    +0.000 C 
ATOM      2  C   UNL     1       1.176   8.922  21.844  0.00  0.00    +0.000 C 
ATOM      3  C   UNL     1      -0.343   8.851  21.952  0.00  0.00    +0.000 C 
ATOM      4  C   UNL     1      -0.998  10.234  21.938  0.00  0.00    +0.000 C 
ATOM      5  N   UNL     1      -0.539  11.057  20.769  0.00  0.00    +0.000 NA
ATOM      6  C   UNL     1       0.967  11.167  20.731  0.00  0.00    +0.000 C 
ENDROOT
BRANCH   1   8
ATOM      7  O   UNL     1       0.647   9.513  18.485  0.00  0.00    +0.000 OA
ATOM      8  C   UNL     1       1.417   9.071  19.335  0.00  0.00    +0.000 C 
ATOM      9  N   UNL     1       2.228   7.988  19.113  0.00  0.00    +0.000 N 
ATOM     10  H   UNL     1       2.715   7.589  19.914  0.00  0.00    +0.000 HD
BRANCH   9  11
ATOM     11  C   UNL     1       2.197   7.219  17.894  0.00  0.00    +0.000 C 
BRANCH  11  12
ATOM     12  C   UNL     1       2.466   5.764  18.188  0.00  0.00    +0.000 A 
ATOM     13  C   UNL     1       1.512   4.780  17.849  0.00  0.00    +0.000 A 
ATOM     14  C   UNL     1       1.731   3.430  18.141  0.00  0.00    +0.000 A 
ATOM     15  C   UNL     1       2.897   3.095  18.790  0.00  0.00    +0.000 A 
ATOM     16  C   UNL     1       3.829   4.045  19.134  0.00  0.00    +0.000 A 
ATOM     17  C   UNL     1       3.643   5.382  18.849  0.00  0.00    +0.000 A 
ATOM     18  O   UNL     1       4.905   3.507  19.767  0.00  0.00    +0.000 OA
ATOM     19  C   UNL     1       4.520   2.118  19.824  0.00  0.00    +0.000 C 
ATOM     20  O   UNL     1       3.266   1.842  19.167  0.00  0.00    +0.000 OA
ENDBRANCH  11  12
ENDBRANCH   9  11
ENDBRANCH   1   8
BRANCH   5  21
ATOM     21  S   UNL     1      -1.267  12.644  20.702  0.00  0.00    +0.000 S 
ATOM     22  O   UNL     1      -1.367  13.101  22.077  0.00  0.00    +0.000 OA
ATOM     23  O   UNL     1      -0.510  13.433  19.751  0.00  0.00    +0.000 OA
BRANCH  21  24
ATOM     24  C   UNL     1      -2.920  12.361  20.111  0.00  0.00    +0.000 A 
ATOM     25  C   UNL     1      -3.975  12.787  20.942  0.00  0.00    +0.000 A 
ATOM     26  C   UNL     1      -5.291  12.665  20.521  0.00  0.00    +0.000 A 
ATOM     27  C   UNL     1      -5.554  12.154  19.257  0.00  0.00    +0.000 A 
ATOM     28  C   UNL     1      -4.501  11.781  18.405  0.00  0.00    +0.000 A 
ATOM     29  C   UNL     1      -4.790  11.335  17.106  0.00  0.00    +0.000 A 
ATOM     30  C   UNL     1      -3.761  10.999  16.240  0.00  0.00    +0.000 A 
ATOM     31  C   UNL     1      -2.473  11.094  16.717  0.00  0.00    +0.000 A 
ATOM     32  N   UNL     1      -2.166  11.484  17.975  0.00  0.00    +0.000 NA
ATOM     33  C   UNL     1      -3.149  11.865  18.823  0.00  0.00    +0.000 A 
ENDBRANCH  21  24
ENDBRANCH   5  21
TORSDOF 5
ENDMDL
MODEL 7
REMARK VINA RESULT:      -8.3      4.717      8.198
REMARK  Name = 
REMARK  5 active torsions:
REMARK  status: ('A' for Active; 'I' for Inactive)
REMARK    1  A    between atoms: C_2  and  C_14
REMARK    2  A    between atoms: N_3  and  C_4
REMARK    3  A    between atoms: C_4  and  C_5
REMARK    4  A    between atoms: N_18  and  S_19
REMARK    5  A    between atoms: S_19  and  C_22
REMARK                            x       y       z     vdW  Elec       q    Type
REMARK                         _______ _______ _______ _____ _____    ______ ____
ROOT
ATOM      1  C   UNL     1       1.097   4.673  20.131  0.00  0.00    +0.000 C 
ATOM      2  C   UNL     1       1.211   3.654  21.265  0.00  0.00    +0.000 C 
ATOM      3  C   UNL     1       2.627   3.101  21.391  0.00  0.00    +0.000 C 
ATOM      4  C   UNL     1       3.178   2.587  20.060  0.00  0.00    +0.000 C 
ATOM      5  N   UNL     1       3.053   3.613  18.970  0.00  0.00    +0.000 NA
ATOM      6  C   UNL     1       1.627   4.089  18.824  0.00  0.00    +0.000 C 
ENDROOT
BRANCH   1   8
ATOM      7  O   UNL     1       2.885   6.286  20.162  0.00  0.00    +0.000 OA
ATOM      8  C   UNL     1       1.740   6.006  20.514  0.00  0.00    +0.000 C 
ATOM      9  N   UNL     1       0.921   6.897  21.158  0.00  0.00    +0.000 N 
ATOM     10  H   UNL     1       0.054   6.540  21.556  0.00  0.00    +0.000 HD
BRANCH   9  11
ATOM     11  C   UNL     1       1.350   8.214  21.554  0.00  0.00    +0.000 C 
BRANCH  11  12
ATOM     12  C   UNL     1       0.685   9.260  20.694  0.00  0.00    +0.000 A 
ATOM     13  C   UNL     1       1.039   9.395  19.334  0.00  0.00    +0.000 A 
ATOM     14  C   UNL     1       0.454  10.379  18.529  0.00  0.00    +0.000 A 
ATOM     15  C   UNL     1      -0.461  11.224  19.112  0.00  0.00    +0.000 A 
ATOM     16  C   UNL     1      -0.808  11.108  20.438  0.00  0.00    +0.000 A 
ATOM     17  C   UNL     1      -0.255  10.141  21.252  0.00  0.00    +0.000 A 
ATOM     18  O   UNL     1      -1.725  12.038  20.814  0.00  0.00    +0.000 OA
ATOM     19  C   UNL     1      -1.879  12.780  19.587  0.00  0.00    +0.000 C 
ATOM     20  O   UNL     1      -1.113  12.243  18.490  0.00  0.00    +0.000 OA
ENDBRANCH  11  12
ENDBRANCH   9  11
ENDBRANCH   1   8
BRANCH   5  21
ATOM     21  S   UNL     1       3.678   3.078  17.430  0.00  0.00    +0.000 S 
ATOM     22  O   UNL     1       4.199   1.740  17.648  0.00  0.00    +0.000 OA
ATOM     23  O   UNL     1       2.636   3.275  16.443  0.00  0.00    +0.000 OA
BRANCH  21  24
ATOM     24  C   UNL     1       5.063   4.144  17.106  0.00  0.00    +0.000 A 
ATOM     25  C   UNL     1       5.666   4.761  18.220  0.00  0.00    +0.000 A 
ATOM     26  C   UNL     1       6.793   5.552  18.058  0.00  0.00    +0.000 A 
ATOM     27  C   UNL     1       7.344   5.696  16.791  0.00  0.00    +0.000 A 
ATOM     28  C   UNL     1       6.778   5.036  15.688  0.00  0.00    +0.000 A 
ATOM     29  C   UNL     1       7.395   5.139  14.431  0.00  0.00    +0.000 A 
ATOM     30  C   UNL     1       6.870   4.463  13.340  0.00  0.00    +0.000 A 
ATOM     31  C   UNL     1       5.724   3.727  13.541  0.00  0.00    +0.000 A 
ATOM     32  N   UNL     1       5.087   3.639  14.730  0.00  0.00    +0.000 NA
ATOM     33  C   UNL     1       5.607   4.249  15.821  0.00  0.00    +0.000 A 
ENDBRANCH  21  24
ENDBRANCH   5  21
TORSDOF 5
ENDMDL
MODEL 8
REMARK VINA RESULT:      -8.2      5.770      9.004
REMARK  Name = 
REMARK  5 active torsions:
REMARK  status: ('A' for Active; 'I' for Inactive)
REMARK    1  A    between atoms: C_2  and  C_14
REMARK    2  A    between atoms: N_3  and  C_4
REMARK    3  A    between atoms: C_4  and  C_5
REMARK    4  A    between atoms: N_18  and  S_19
REMARK    5  A    between atoms: S_19  and  C_22
REMARK                            x       y       z     vdW  Elec       q    Type
REMARK                         _______ _______ _______ _____ _____    ______ ____
ROOT
ATOM      1  C   UNL     1       1.464  10.242  20.802  0.00  0.00    +0.000 C 
ATOM      2  C   UNL     1       1.203   9.409  22.058  0.00  0.00    +0.000 C 
ATOM      3  C   UNL     1      -0.289   9.255  22.338  0.00  0.00    +0.000 C 
ATOM      4  C   UNL     1      -1.028  10.594  22.338  0.00  0.00    +0.000 C 
ATOM      5  N   UNL     1      -0.753  11.384  21.090  0.00  0.00    +0.000 NA
ATOM      6  C   UNL     1       0.729  11.580  20.879  0.00  0.00    +0.000 C 
ENDROOT
BRANCH   1   8
ATOM      7  O   UNL     1       0.325   9.840  18.719  0.00  0.00    +0.000 OA
ATOM      8  C   UNL     1       1.159   9.447  19.533  0.00  0.00    +0.000 C 
ATOM      9  N   UNL     1       1.954   8.352  19.314  0.00  0.00    +0.000 N 
ATOM     10  H   UNL     1       2.501   8.000  20.098  0.00  0.00    +0.000 HD
BRANCH   9  11
ATOM     11  C   UNL     1       1.833   7.513  18.149  0.00  0.00    +0.000 C 
BRANCH  11  12
ATOM     12  C   UNL     1       2.446   6.161  18.414  0.00  0.00    +0.000 A 
ATOM     13  C   UNL     1       3.585   6.043  19.241  0.00  0.00    +0.000 A 
ATOM     14  C   UNL     1       4.184   4.800  19.473  0.00  0.00    +0.000 A 
ATOM     15  C   UNL     1       3.641   3.700  18.852  0.00  0.00    +0.000 A 
ATOM     16  C   UNL     1       2.537   3.803  18.038  0.00  0.00    +0.000 A 
ATOM     17  C   UNL     1       1.920   5.013  17.800  0.00  0.00    +0.000 A 
ATOM     18  O   UNL     1       2.161   2.602  17.525  0.00  0.00    +0.000 OA
ATOM     19  C   UNL     1       3.183   1.741  18.070  0.00  0.00    +0.000 C 
ATOM     20  O   UNL     1       4.100   2.424  18.950  0.00  0.00    +0.000 OA
ENDBRANCH  11  12
ENDBRANCH   9  11
ENDBRANCH   1   8
BRANCH   5  21
ATOM     21  S   UNL     1      -1.583  12.919  21.037  0.00  0.00    +0.000 S 
ATOM     22  O   UNL     1      -1.702  13.362  22.415  0.00  0.00    +0.000 OA
ATOM     23  O   UNL     1      -0.888  13.760  20.084  0.00  0.00    +0.000 OA
BRANCH  21  24
ATOM     24  C   UNL     1      -3.219  12.531  20.458  0.00  0.00    +0.000 A 
ATOM     25  C   UNL     1      -4.293  12.876  21.303  0.00  0.00    +0.000 A 
ATOM     26  C   UNL     1      -5.601  12.669  20.893  0.00  0.00    +0.000 A 
ATOM     27  C   UNL     1      -5.842  12.155  19.625  0.00  0.00    +0.000 A 
ATOM     28  C   UNL     1      -4.774  11.863  18.760  0.00  0.00    +0.000 A 
ATOM     29  C   UNL     1      -5.045  11.412  17.459  0.00  0.00    +0.000 A 
ATOM     30  C   UNL     1      -4.004  11.155  16.580  0.00  0.00    +0.000 A 
ATOM     31  C   UNL     1      -2.720  11.333  17.047  0.00  0.00    +0.000 A 
ATOM     32  N   UNL     1      -2.428  11.730  18.306  0.00  0.00    +0.000 NA
ATOM     33  C   UNL     1      -3.427  12.034  19.167  0.00  0.00    +0.000 A 
ENDBRANCH  21  24
ENDBRANCH   5  21
TORSDOF 5
ENDMDL
MODEL 9
REMARK VINA RESULT:      -8.2      4.893      8.232
REMARK  Name = 
REMARK  5 active torsions:
REMARK  status: ('A' for Active; 'I' for Inactive)
REMARK    1  A    between atoms: C_2  and  C_14
REMARK    2  A    between atoms: N_3  and  C_4
REMARK    3  A    between atoms: C_4  and  C_5
REMARK    4  A    between atoms: N_18  and  S_19
REMARK    5  A    between atoms: S_19  and  C_22
REMARK                            x       y       z     vdW  Elec       q    Type
REMARK                         _______ _______ _______ _____ _____    ______ ____
ROOT
ATOM      1  C   UNL     1       1.027   4.319  20.217  0.00  0.00    +0.000 C 
ATOM      2  C   UNL     1       1.157   3.209  21.260  0.00  0.00    +0.000 C 
ATOM      3  C   UNL     1       2.579   2.664  21.338  0.00  0.00    +0.000 C 
ATOM      4  C   UNL     1       3.134   2.272  19.967  0.00  0.00    +0.000 C 
ATOM      5  N   UNL     1       2.995   3.385  18.968  0.00  0.00    +0.000 NA
ATOM      6  C   UNL     1       1.563   3.854  18.864  0.00  0.00    +0.000 C 
ENDROOT
BRANCH   1   8
ATOM      7  O   UNL     1       2.255   5.675  21.783  0.00  0.00    +0.000 OA
ATOM      8  C   UNL     1       1.655   5.623  20.710  0.00  0.00    +0.000 C 
ATOM      9  N   UNL     1       1.607   6.674  19.832  0.00  0.00    +0.000 N 
ATOM     10  H   UNL     1       0.962   6.606  19.047  0.00  0.00    +0.000 HD
BRANCH   9  11
ATOM     11  C   UNL     1       2.186   7.962  20.116  0.00  0.00    +0.000 C 
BRANCH  11  12
ATOM     12  C   UNL     1       1.110   8.942  20.513  0.00  0.00    +0.000 A 
ATOM     13  C   UNL     1       0.449   9.712  19.531  0.00  0.00    +0.000 A 
ATOM     14  C   UNL     1      -0.531  10.646  19.884  0.00  0.00    +0.000 A 
ATOM     15  C   UNL     1      -0.813  10.806  21.220  0.00  0.00    +0.000 A 
ATOM     16  C   UNL     1      -0.170  10.068  22.186  0.00  0.00    +0.000 A 
ATOM     17  C   UNL     1       0.793   9.133  21.866  0.00  0.00    +0.000 A 
ATOM     18  O   UNL     1      -0.594  10.379  23.440  0.00  0.00    +0.000 OA
ATOM     19  C   UNL     1      -1.541  11.429  23.154  0.00  0.00    +0.000 C 
ATOM     20  O   UNL     1      -1.718  11.675  21.744  0.00  0.00    +0.000 OA
ENDBRANCH  11  12
ENDBRANCH   9  11
ENDBRANCH   1   8
BRANCH   5  21
ATOM     21  S   UNL     1       3.623   2.990  17.387  0.00  0.00    +0.000 S 
ATOM     22  O   UNL     1       4.160   1.645  17.491  0.00  0.00    +0.000 OA
ATOM     23  O   UNL     1       2.577   3.258  16.422  0.00  0.00    +0.000 OA
BRANCH  21  24
ATOM     24  C   UNL     1       4.994   4.097  17.154  0.00  0.00    +0.000 A 
ATOM     25  C   UNL     1       5.529   4.702  18.310  0.00  0.00    +0.000 A 
ATOM     26  C   UNL     1       6.643   5.523  18.219  0.00  0.00    +0.000 A 
ATOM     27  C   UNL     1       7.248   5.710  16.984  0.00  0.00    +0.000 A 
ATOM     28  C   UNL     1       6.751   5.063  15.840  0.00  0.00    +0.000 A 
ATOM     29  C   UNL     1       7.423   5.212  14.617  0.00  0.00    +0.000 A 
ATOM     30  C   UNL     1       6.967   4.550  13.487  0.00  0.00    +0.000 A 
ATOM     31  C   UNL     1       5.832   3.781  13.616  0.00  0.00    +0.000 A 
ATOM     32  N   UNL     1       5.143   3.650  14.772  0.00  0.00    +0.000 NA
ATOM     33  C   UNL     1       5.595   4.246  15.899  0.00  0.00    +0.000 A 
ENDBRANCH  21  24
ENDBRANCH   5  21
TORSDOF 5
ENDMDL
