MODEL 1
REMARK VINA RESULT:      -7.9      0.000      0.000
REMARK  Name = 
REMARK  3 active torsions:
REMARK  status: ('A' for Active; 'I' for Inactive)
REMARK    1  A    between atoms: C_1  and  C_2
REMARK    2  A    between atoms: C_6  and  C_7
REMARK    3  A    between atoms: C_7  and  N_8
REMARK                            x       y       z     vdW  Elec       q    Type
REMARK                         _______ _______ _______ _____ _____    ______ ____
ROOT
ATOM      1  N   UNL     1       5.413   4.777  18.587  0.00  0.00    +0.000 NA
ATOM      2  C   UNL     1       4.872   3.795  17.625  0.00  0.00    +0.000 C 
ATOM      3  C   UNL     1       4.682   4.265  16.161  0.00  0.00    +0.000 C 
ATOM      4  N   UNL     1       5.893   4.935  15.707  0.00  0.00    +0.000 N 
ATOM      5  C   UNL     1       6.391   4.747  14.443  0.00  0.00    +0.000 A 
ATOM      6  N   UNL     1       5.841   3.812  13.649  0.00  0.00    +0.000 NA
ATOM      7  C   UNL     1       6.408   3.595  12.445  0.00  0.00    +0.000 A 
ATOM      8  C   UNL     1       7.512   4.266  11.990  0.00  0.00    +0.000 A 
ATOM      9  C   UNL     1       8.003   5.208  12.853  0.00  0.00    +0.000 A 
ATOM     10  N   UNL     1       7.463   5.465  14.059  0.00  0.00    +0.000 NA
ATOM     11  C   UNL     1       6.316   6.066  16.518  0.00  0.00    +0.000 C 
ATOM     12  C   UNL     1       6.457   5.636  17.998  0.00  0.00    +0.000 C 
ENDROOT
BRANCH   1  13
ATOM     13  C   UNL     1       4.397   5.496  19.352  0.00  0.00    +0.000 C 
BRANCH  13  19
ATOM     14  C   UNL     1       1.469   2.350  21.995  0.00  0.00    +0.000 C 
ATOM     15  C   UNL     1       1.685   3.177  20.762  0.00  0.00    +0.000 A 
ATOM     16  C   UNL     1       0.806   3.087  19.677  0.00  0.00    +0.000 A 
ATOM     17  C   UNL     1       1.060   3.805  18.509  0.00  0.00    +0.000 A 
ATOM     18  C   UNL     1       2.204   4.602  18.412  0.00  0.00    +0.000 A 
ATOM     19  C   UNL     1       3.097   4.712  19.489  0.00  0.00    +0.000 A 
ATOM     20  C   UNL     1       2.820   3.999  20.663  0.00  0.00    +0.000 A 
ENDBRANCH  13  19
ENDBRANCH   1  13
TORSDOF 2
ENDMDL
MODEL 2
REMARK VINA RESULT:      -7.9      1.487      7.346
REMARK  Name = 
REMARK  3 active torsions:
REMARK  status: ('A' for Active; 'I' for Inactive)
REMARK    1  A    between atoms: C_1  and  C_2
REMARK    2  A    between atoms: C_6  and  C_7
REMARK    3  A    between atoms: C_7  and  N_8
REMARK                            x       y       z     vdW  Elec       q    Type
REMARK                         _______ _______ _______ _____ _____    ______ ____
ROOT
ATOM      1  N   UNL     1       5.761   5.202  16.579  0.00  0.00    +0.000 NA
ATOM      2  C   UNL     1       4.600   4.357  16.231  0.00  0.00    +0.000 C 
ATOM      3  C   UNL     1       4.195   3.256  17.242  0.00  0.00    +0.000 C 
ATOM      4  N   UNL     1       4.131   3.826  18.580  0.00  0.00    +0.000 N 
ATOM      5  C   UNL     1       3.137   3.490  19.463  0.00  0.00    +0.000 A 
ATOM      6  N   UNL     1       2.110   2.731  19.043  0.00  0.00    +0.000 NA
ATOM      7  C   UNL     1       1.109   2.488  19.912  0.00  0.00    +0.000 A 
ATOM      8  C   UNL     1       1.076   2.975  21.192  0.00  0.00    +0.000 A 
ATOM      9  C   UNL     1       2.163   3.728  21.545  0.00  0.00    +0.000 A 
ATOM     10  N   UNL     1       3.190   3.987  20.713  0.00  0.00    +0.000 NA
ATOM     11  C   UNL     1       5.355   4.465  19.039  0.00  0.00    +0.000 C 
ATOM     12  C   UNL     1       5.815   5.532  18.015  0.00  0.00    +0.000 C 
ENDROOT
BRANCH   1  13
ATOM     13  C   UNL     1       7.029   4.749  16.012  0.00  0.00    +0.000 C 
BRANCH  13  19
ATOM     14  C   UNL     1       5.513   2.482  11.768  0.00  0.00    +0.000 C 
ATOM     15  C   UNL     1       6.287   3.581  12.434  0.00  0.00    +0.000 A 
ATOM     16  C   UNL     1       7.123   4.420  11.689  0.00  0.00    +0.000 A 
ATOM     17  C   UNL     1       7.893   5.390  12.332  0.00  0.00    +0.000 A 
ATOM     18  C   UNL     1       7.844   5.514  13.723  0.00  0.00    +0.000 A 
ATOM     19  C   UNL     1       7.008   4.688  14.490  0.00  0.00    +0.000 A 
ATOM     20  C   UNL     1       6.227   3.730  13.829  0.00  0.00    +0.000 A 
ENDBRANCH  13  19
ENDBRANCH   1  13
TORSDOF 2
ENDMDL
MODEL 3
REMARK VINA RESULT:      -7.5      1.068      1.967
REMARK  Name = 
REMARK  3 active torsions:
REMARK  status: ('A' for Active; 'I' for Inactive)
REMARK    1  A    between atoms: C_1  and  C_2
REMARK    2  A    between atoms: C_6  and  C_7
REMARK    3  A    between atoms: C_7  and  N_8
REMARK                            x       y       z     vdW  Elec       q    Type
REMARK                         _______ _______ _______ _____ _____    ______ ____
ROOT
ATOM      1  N   UNL     1       4.584   6.090  17.908  0.00  0.00    +0.000 NA
ATOM      2  C   UNL     1       5.797   6.743  17.373  0.00  0.00    +0.000 C 
ATOM      3  C   UNL     1       6.815   5.846  16.624  0.00  0.00    +0.000 C 
ATOM      4  N   UNL     1       6.111   5.021  15.654  0.00  0.00    +0.000 N 
ATOM      5  C   UNL     1       6.619   4.784  14.402  0.00  0.00    +0.000 A 
ATOM      6  N   UNL     1       7.719   5.446  14.001  0.00  0.00    +0.000 NA
ATOM      7  C   UNL     1       8.144   5.252  12.736  0.00  0.00    +0.000 A 
ATOM      8  C   UNL     1       7.517   4.429  11.839  0.00  0.00    +0.000 A 
ATOM      9  C   UNL     1       6.413   3.785  12.329  0.00  0.00    +0.000 A 
ATOM     10  N   UNL     1       5.959   3.939  13.588  0.00  0.00    +0.000 NA
ATOM     11  C   UNL     1       5.055   4.184  16.203  0.00  0.00    +0.000 C 
ATOM     12  C   UNL     1       4.054   5.049  17.007  0.00  0.00    +0.000 C 
ENDROOT
BRANCH   1  13
ATOM     13  C   UNL     1       4.682   5.687  19.309  0.00  0.00    +0.000 C 
BRANCH  13  19
ATOM     14  C   UNL     1       1.841   1.523  19.496  0.00  0.00    +0.000 C 
ATOM     15  C   UNL     1       2.049   2.957  19.885  0.00  0.00    +0.000 A 
ATOM     16  C   UNL     1       1.038   3.679  20.528  0.00  0.00    +0.000 A 
ATOM     17  C   UNL     1       1.219   5.032  20.817  0.00  0.00    +0.000 A 
ATOM     18  C   UNL     1       2.403   5.674  20.447  0.00  0.00    +0.000 A 
ATOM     19  C   UNL     1       3.434   4.969  19.806  0.00  0.00    +0.000 A 
ATOM     20  C   UNL     1       3.245   3.607  19.538  0.00  0.00    +0.000 A 
ENDBRANCH  13  19
ENDBRANCH   1  13
TORSDOF 2
ENDMDL
MODEL 4
REMARK VINA RESULT:      -7.4      3.434      7.256
REMARK  Name = 
REMARK  3 active torsions:
REMARK  status: ('A' for Active; 'I' for Inactive)
REMARK    1  A    between atoms: C_1  and  C_2
REMARK    2  A    between atoms: C_6  and  C_7
REMARK    3  A    between atoms: C_7  and  N_8
REMARK                            x       y       z     vdW  Elec       q    Type
REMARK                         _______ _______ _______ _____ _____    ______ ____
ROOT
ATOM      1  N   UNL     1       2.301   4.016  18.712  0.00  0.00    +0.000 NA
ATOM      2  C   UNL     1       1.799   4.315  20.069  0.00  0.00    +0.000 C 
ATOM      3  C   UNL     1       2.260   5.642  20.721  0.00  0.00    +0.000 C 
ATOM      4  N   UNL     1       2.086   6.733  19.773  0.00  0.00    +0.000 N 
ATOM      5  C   UNL     1       1.615   7.961  20.164  0.00  0.00    +0.000 A 
ATOM      6  N   UNL     1       1.161   8.125  21.418  0.00  0.00    +0.000 NA
ATOM      7  C   UNL     1       0.627   9.320  21.744  0.00  0.00    +0.000 A 
ATOM      8  C   UNL     1       0.517  10.369  20.870  0.00  0.00    +0.000 A 
ATOM      9  C   UNL     1       1.012  10.124  19.618  0.00  0.00    +0.000 A 
ATOM     10  N   UNL     1       1.562   8.950  19.252  0.00  0.00    +0.000 NA
ATOM     11  C   UNL     1       2.773   6.565  18.502  0.00  0.00    +0.000 C 
ATOM     12  C   UNL     1       2.374   5.216  17.856  0.00  0.00    +0.000 C 
ENDROOT
BRANCH   1  13
ATOM     13  C   UNL     1       3.494   3.175  18.680  0.00  0.00    +0.000 C 
BRANCH  13  19
ATOM     14  C   UNL     1       6.123   4.045  14.463  0.00  0.00    +0.000 C 
ATOM     15  C   UNL     1       5.953   4.253  15.939  0.00  0.00    +0.000 A 
ATOM     16  C   UNL     1       6.947   4.887  16.692  0.00  0.00    +0.000 A 
ATOM     17  C   UNL     1       6.808   5.007  18.075  0.00  0.00    +0.000 A 
ATOM     18  C   UNL     1       5.683   4.478  18.714  0.00  0.00    +0.000 A 
ATOM     19  C   UNL     1       4.670   3.844  17.978  0.00  0.00    +0.000 A 
ATOM     20  C   UNL     1       4.815   3.746  16.588  0.00  0.00    +0.000 A 
ENDBRANCH  13  19
ENDBRANCH   1  13
TORSDOF 2
ENDMDL
MODEL 5
REMARK VINA RESULT:      -7.3      2.113      6.822
REMARK  Name = 
REMARK  3 active torsions:
REMARK  status: ('A' for Active; 'I' for Inactive)
REMARK    1  A    between atoms: C_1  and  C_2
REMARK    2  A    between atoms: C_6  and  C_7
REMARK    3  A    between atoms: C_7  and  N_8
REMARK                            x       y       z     vdW  Elec       q    Type
REMARK                         _______ _______ _______ _____ _____    ______ ____
ROOT
ATOM      1  N   UNL     1       5.180   5.403  15.809  0.00  0.00    +0.000 NA
ATOM      2  C   UNL     1       4.855   3.976  16.016  0.00  0.00    +0.000 C 
ATOM      3  C   UNL     1       4.660   3.496  17.475  0.00  0.00    +0.000 C 
ATOM      4  N   UNL     1       3.768   4.413  18.171  0.00  0.00    +0.000 N 
ATOM      5  C   UNL     1       2.803   3.965  19.037  0.00  0.00    +0.000 A 
ATOM      6  N   UNL     1       2.569   2.645  19.138  0.00  0.00    +0.000 NA
ATOM      7  C   UNL     1       1.557   2.243  19.934  0.00  0.00    +0.000 A 
ATOM      8  C   UNL     1       0.755   3.102  20.638  0.00  0.00    +0.000 A 
ATOM      9  C   UNL     1       1.066   4.427  20.489  0.00  0.00    +0.000 A 
ATOM     10  N   UNL     1       2.073   4.872  19.713  0.00  0.00    +0.000 NA
ATOM     11  C   UNL     1       4.195   5.804  18.181  0.00  0.00    +0.000 C 
ATOM     12  C   UNL     1       4.454   6.292  16.735  0.00  0.00    +0.000 C 
ENDROOT
BRANCH   1  13
ATOM     13  C   UNL     1       6.608   5.686  15.690  0.00  0.00    +0.000 C 
BRANCH  13  19
ATOM     14  C   UNL     1       8.541   9.602  18.215  0.00  0.00    +0.000 C 
ATOM     15  C   UNL     1       8.155   8.153  18.188  0.00  0.00    +0.000 A 
ATOM     16  C   UNL     1       8.505   7.299  19.241  0.00  0.00    +0.000 A 
ATOM     17  C   UNL     1       8.204   5.939  19.167  0.00  0.00    +0.000 A 
ATOM     18  C   UNL     1       7.570   5.422  18.035  0.00  0.00    +0.000 A 
ATOM     19  C   UNL     1       7.205   6.260  16.969  0.00  0.00    +0.000 A 
ATOM     20  C   UNL     1       7.497   7.627  17.064  0.00  0.00    +0.000 A 
ENDBRANCH  13  19
ENDBRANCH   1  13
TORSDOF 2
ENDMDL
MODEL 6
REMARK VINA RESULT:      -7.3      0.984      1.340
REMARK  Name = 
REMARK  3 active torsions:
REMARK  status: ('A' for Active; 'I' for Inactive)
REMARK    1  A    between atoms: C_1  and  C_2
REMARK    2  A    between atoms: C_6  and  C_7
REMARK    3  A    between atoms: C_7  and  N_8
REMARK                            x       y       z     vdW  Elec       q    Type
REMARK                         _______ _______ _______ _____ _____    ______ ____
ROOT
ATOM      1  N   UNL     1       6.452   4.506  18.679  0.00  0.00    +0.000 NA
ATOM      2  C   UNL     1       5.769   3.557  17.776  0.00  0.00    +0.000 C 
ATOM      3  C   UNL     1       5.316   4.092  16.394  0.00  0.00    +0.000 C 
ATOM      4  N   UNL     1       6.415   4.814  15.770  0.00  0.00    +0.000 N 
ATOM      5  C   UNL     1       6.686   4.701  14.431  0.00  0.00    +0.000 A 
ATOM      6  N   UNL     1       6.022   3.790  13.698  0.00  0.00    +0.000 NA
ATOM      7  C   UNL     1       6.372   3.646  12.403  0.00  0.00    +0.000 A 
ATOM      8  C   UNL     1       7.366   4.369  11.798  0.00  0.00    +0.000 A 
ATOM      9  C   UNL     1       7.985   5.281  12.610  0.00  0.00    +0.000 A 
ATOM     10  N   UNL     1       7.661   5.465  13.904  0.00  0.00    +0.000 NA
ATOM     11  C   UNL     1       6.954   5.916  16.553  0.00  0.00    +0.000 C 
ATOM     12  C   UNL     1       7.361   5.420  17.961  0.00  0.00    +0.000 C 
ENDROOT
BRANCH   1  13
ATOM     13  C   UNL     1       5.574   5.160  19.645  0.00  0.00    +0.000 C 
BRANCH  13  19
ATOM     14  C   UNL     1       1.247   2.589  19.298  0.00  0.00    +0.000 C 
ATOM     15  C   UNL     1       2.014   3.856  19.057  0.00  0.00    +0.000 A 
ATOM     16  C   UNL     1       1.456   4.900  18.310  0.00  0.00    +0.000 A 
ATOM     17  C   UNL     1       2.209   6.041  18.032  0.00  0.00    +0.000 A 
ATOM     18  C   UNL     1       3.528   6.136  18.484  0.00  0.00    +0.000 A 
ATOM     19  C   UNL     1       4.106   5.105  19.240  0.00  0.00    +0.000 A 
ATOM     20  C   UNL     1       3.332   3.973  19.526  0.00  0.00    +0.000 A 
ENDBRANCH  13  19
ENDBRANCH   1  13
TORSDOF 2
ENDMDL
MODEL 7
REMARK VINA RESULT:      -7.3      1.478      7.444
REMARK  Name = 
REMARK  3 active torsions:
REMARK  status: ('A' for Active; 'I' for Inactive)
REMARK    1  A    between atoms: C_1  and  C_2
REMARK    2  A    between atoms: C_6  and  C_7
REMARK    3  A    between atoms: C_7  and  N_8
REMARK                            x       y       z     vdW  Elec       q    Type
REMARK                         _______ _______ _______ _____ _____    ______ ____
ROOT
ATOM      1  N   UNL     1       6.156   4.300  16.754  0.00  0.00    +0.000 NA
ATOM      2  C   UNL     1       6.277   4.508  18.212  0.00  0.00    +0.000 C 
ATOM      3  C   UNL     1       5.022   5.016  18.964  0.00  0.00    +0.000 C 
ATOM      4  N   UNL     1       3.868   4.218  18.575  0.00  0.00    +0.000 N 
ATOM      5  C   UNL     1       2.925   3.818  19.487  0.00  0.00    +0.000 A 
ATOM      6  N   UNL     1       3.139   4.035  20.796  0.00  0.00    +0.000 NA
ATOM      7  C   UNL     1       2.232   3.556  21.671  0.00  0.00    +0.000 A 
ATOM      8  C   UNL     1       1.113   2.856  21.303  0.00  0.00    +0.000 A 
ATOM      9  C   UNL     1       0.964   2.687  19.952  0.00  0.00    +0.000 A 
ATOM     10  N   UNL     1       1.838   3.158  19.043  0.00  0.00    +0.000 NA
ATOM     11  C   UNL     1       3.588   4.190  17.147  0.00  0.00    +0.000 C 
ATOM     12  C   UNL     1       4.847   3.742  16.366  0.00  0.00    +0.000 C 
ENDROOT
BRANCH   1  13
ATOM     13  C   UNL     1       6.597   5.432  15.944  0.00  0.00    +0.000 C 
BRANCH  13  19
ATOM     14  C   UNL     1       5.426   2.520  11.995  0.00  0.00    +0.000 C 
ATOM     15  C   UNL     1       6.230   3.651  12.566  0.00  0.00    +0.000 A 
ATOM     16  C   UNL     1       7.264   4.238  11.829  0.00  0.00    +0.000 A 
ATOM     17  C   UNL     1       8.051   5.238  12.402  0.00  0.00    +0.000 A 
ATOM     18  C   UNL     1       7.820   5.641  13.719  0.00  0.00    +0.000 A 
ATOM     19  C   UNL     1       6.785   5.070  14.476  0.00  0.00    +0.000 A 
ATOM     20  C   UNL     1       5.992   4.080  13.882  0.00  0.00    +0.000 A 
ENDBRANCH  13  19
ENDBRANCH   1  13
TORSDOF 2
ENDMDL
MODEL 8
REMARK VINA RESULT:      -7.3      3.522      7.734
REMARK  Name = 
REMARK  3 active torsions:
REMARK  status: ('A' for Active; 'I' for Inactive)
REMARK    1  A    between atoms: C_1  and  C_2
REMARK    2  A    between atoms: C_6  and  C_7
REMARK    3  A    between atoms: C_7  and  N_8
REMARK                            x       y       z     vdW  Elec       q    Type
REMARK                         _______ _______ _______ _____ _____    ______ ____
ROOT
ATOM      1  N   UNL     1       4.512   5.724  18.365  0.00  0.00    +0.000 NA
ATOM      2  C   UNL     1       4.099   7.002  17.750  0.00  0.00    +0.000 C 
ATOM      3  C   UNL     1       2.636   7.459  17.975  0.00  0.00    +0.000 C 
ATOM      4  N   UNL     1       2.307   7.349  19.388  0.00  0.00    +0.000 N 
ATOM      5  C   UNL     1       1.565   8.306  20.033  0.00  0.00    +0.000 A 
ATOM      6  N   UNL     1       1.258   9.446  19.392  0.00  0.00    +0.000 NA
ATOM      7  C   UNL     1       0.600  10.400  20.082  0.00  0.00    +0.000 A 
ATOM      8  C   UNL     1       0.235  10.275  21.396  0.00  0.00    +0.000 A 
ATOM      9  C   UNL     1       0.575   9.080  21.972  0.00  0.00    +0.000 A 
ATOM     10  N   UNL     1       1.222   8.097  21.319  0.00  0.00    +0.000 NA
ATOM     11  C   UNL     1       2.485   6.025  19.964  0.00  0.00    +0.000 C 
ATOM     12  C   UNL     1       3.924   5.520  19.702  0.00  0.00    +0.000 C 
ENDROOT
BRANCH   1  13
ATOM     13  C   UNL     1       4.417   4.568  17.478  0.00  0.00    +0.000 C 
BRANCH  13  19
ATOM     14  C   UNL     1       5.468   3.480  12.665  0.00  0.00    +0.000 C 
ATOM     15  C   UNL     1       5.879   4.119  13.959  0.00  0.00    +0.000 A 
ATOM     16  C   UNL     1       7.173   4.623  14.130  0.00  0.00    +0.000 A 
ATOM     17  C   UNL     1       7.562   5.147  15.363  0.00  0.00    +0.000 A 
ATOM     18  C   UNL     1       6.667   5.153  16.435  0.00  0.00    +0.000 A 
ATOM     19  C   UNL     1       5.362   4.659  16.285  0.00  0.00    +0.000 A 
ATOM     20  C   UNL     1       4.979   4.151  15.037  0.00  0.00    +0.000 A 
ENDBRANCH  13  19
ENDBRANCH   1  13
TORSDOF 2
ENDMDL
MODEL 9
REMARK VINA RESULT:      -7.2      0.565      1.417
REMARK  Name = 
REMARK  3 active torsions:
REMARK  status: ('A' for Active; 'I' for Inactive)
REMARK    1  A    between atoms: C_1  and  C_2
REMARK    2  A    between atoms: C_6  and  C_7
REMARK    3  A    between atoms: C_7  and  N_8
REMARK                            x       y       z     vdW  Elec       q    Type
REMARK                         _______ _______ _______ _____ _____    ______ ____
ROOT
ATOM      1  N   UNL     1       5.290   4.720  18.584  0.00  0.00    +0.000 NA
ATOM      2  C   UNL     1       4.812   3.714  17.612  0.00  0.00    +0.000 C 
ATOM      3  C   UNL     1       4.631   4.174  16.144  0.00  0.00    +0.000 C 
ATOM      4  N   UNL     1       5.819   4.895  15.712  0.00  0.00    +0.000 N 
ATOM      5  C   UNL     1       6.350   4.728  14.459  0.00  0.00    +0.000 A 
ATOM      6  N   UNL     1       5.857   3.769  13.656  0.00  0.00    +0.000 NA
ATOM      7  C   UNL     1       6.456   3.576  12.463  0.00  0.00    +0.000 A 
ATOM      8  C   UNL     1       7.538   4.294  12.029  0.00  0.00    +0.000 A 
ATOM      9  C   UNL     1       7.971   5.258  12.900  0.00  0.00    +0.000 A 
ATOM     10  N   UNL     1       7.397   5.492  14.095  0.00  0.00    +0.000 NA
ATOM     11  C   UNL     1       6.177   6.044  16.530  0.00  0.00    +0.000 C 
ATOM     12  C   UNL     1       6.308   5.623  18.013  0.00  0.00    +0.000 C 
ENDROOT
BRANCH   1  13
ATOM     13  C   UNL     1       4.229   5.394  19.327  0.00  0.00    +0.000 C 
BRANCH  13  19
ATOM     14  C   UNL     1       0.392   2.196  18.621  0.00  0.00    +0.000 C 
ATOM     15  C   UNL     1       1.334   2.887  19.562  0.00  0.00    +0.000 A 
ATOM     16  C   UNL     1       1.158   2.796  20.947  0.00  0.00    +0.000 A 
ATOM     17  C   UNL     1       1.997   3.504  21.807  0.00  0.00    +0.000 A 
ATOM     18  C   UNL     1       3.004   4.322  21.286  0.00  0.00    +0.000 A 
ATOM     19  C   UNL     1       3.202   4.425  19.901  0.00  0.00    +0.000 A 
ATOM     20  C   UNL     1       2.363   3.694  19.050  0.00  0.00    +0.000 A 
ENDBRANCH  13  19
ENDBRANCH   1  13
TORSDOF 2
ENDMDL
