MODEL 1
REMARK VINA RESULT:      -6.7      0.000      0.000
REMARK  Name = 
REMARK  6 active torsions:
REMARK  status: ('A' for Active; 'I' for Inactive)
REMARK    1  A    between atoms: C_1  and  C_2
REMARK    2  A    between atoms: C_2  and  C_3
REMARK    3  A    between atoms: C_3  and  C_4
REMARK    4  A    between atoms: C_4  and  S_5
REMARK    5  A    between atoms: S_5  and  C_6
REMARK    6  A    between atoms: N_10  and  C_11
REMARK                            x       y       z     vdW  Elec       q    Type
REMARK                         _______ _______ _______ _____ _____    ______ ____
ROOT
ATOM      1  C   UNL     1       6.444   4.737  16.458  0.00  0.00    +0.000 A 
ATOM      2  N   UNL     1       7.719   4.715  16.793  0.00  0.00    +0.000 NA
ATOM      3  N   UNL     1       7.798   4.620  18.156  0.00  0.00    +0.000 NA
ATOM      4  C   UNL     1       6.569   4.587  18.618  0.00  0.00    +0.000 A 
ATOM      5  N   UNL     1       5.655   4.600  17.586  0.00  0.00    +0.000 N 
ENDROOT
BRANCH   5   6
ATOM      6  C   UNL     1       4.255   4.419  17.745  0.00  0.00    +0.000 A 
ATOM      7  C   UNL     1       3.690   3.155  17.516  0.00  0.00    +0.000 A 
ATOM      8  C   UNL     1       2.305   2.982  17.576  0.00  0.00    +0.000 A 
ATOM      9  C   UNL     1       1.478   4.069  17.849  0.00  0.00    +0.000 A 
ATOM     10  C   UNL     1       2.033   5.325  18.081  0.00  0.00    +0.000 A 
ATOM     11  C   UNL     1       3.418   5.504  18.038  0.00  0.00    +0.000 A 
ENDBRANCH   5   6
BRANCH   1  12
ATOM     12  S   UNL     1       5.872   5.131  14.860  0.00  0.00    +0.000 S 
BRANCH  12  13
ATOM     13  C   UNL     1       6.030   3.512  14.045  0.00  0.00    +0.000 C 
BRANCH  13  14
ATOM     14  C   UNL     1       6.434   3.659  12.577  0.00  0.00    +0.000 C 
BRANCH  14  16
ATOM     15  C   UNL     1       4.192   3.328  11.433  0.00  0.00    +0.000 C 
ATOM     16  C   UNL     1       5.571   2.746  11.699  0.00  0.00    +0.000 C 
ENDBRANCH  14  16
ENDBRANCH  13  14
ENDBRANCH  12  13
ENDBRANCH   1  12
TORSDOF 5
ENDMDL
MODEL 2
REMARK VINA RESULT:      -6.6      0.528      1.438
REMARK  Name = 
REMARK  6 active torsions:
REMARK  status: ('A' for Active; 'I' for Inactive)
REMARK    1  A    between atoms: C_1  and  C_2
REMARK    2  A    between atoms: C_2  and  C_3
REMARK    3  A    between atoms: C_3  and  C_4
REMARK    4  A    between atoms: C_4  and  S_5
REMARK    5  A    between atoms: S_5  and  C_6
REMARK    6  A    between atoms: N_10  and  C_11
REMARK                            x       y       z     vdW  Elec       q    Type
REMARK                         _______ _______ _______ _____ _____    ______ ____
ROOT
ATOM      1  C   UNL     1       6.612   4.742  16.290  0.00  0.00    +0.000 A 
ATOM      2  N   UNL     1       7.861   4.603  16.687  0.00  0.00    +0.000 NA
ATOM      3  N   UNL     1       7.866   4.541  18.055  0.00  0.00    +0.000 NA
ATOM      4  C   UNL     1       6.620   4.643  18.456  0.00  0.00    +0.000 A 
ATOM      5  N   UNL     1       5.761   4.717  17.380  0.00  0.00    +0.000 N 
ENDROOT
BRANCH   5   6
ATOM      6  C   UNL     1       4.344   4.681  17.474  0.00  0.00    +0.000 A 
ATOM      7  C   UNL     1       3.651   5.814  17.931  0.00  0.00    +0.000 A 
ATOM      8  C   UNL     1       2.269   5.763  18.120  0.00  0.00    +0.000 A 
ATOM      9  C   UNL     1       1.573   4.583  17.871  0.00  0.00    +0.000 A 
ATOM     10  C   UNL     1       2.254   3.458  17.414  0.00  0.00    +0.000 A 
ATOM     11  C   UNL     1       3.635   3.503  17.207  0.00  0.00    +0.000 A 
ENDBRANCH   5   6
BRANCH   1  12
ATOM     12  S   UNL     1       6.158   5.144  14.656  0.00  0.00    +0.000 S 
BRANCH  12  13
ATOM     13  C   UNL     1       6.220   3.498  13.882  0.00  0.00    +0.000 C 
BRANCH  13  14
ATOM     14  C   UNL     1       6.384   3.598  12.364  0.00  0.00    +0.000 C 
BRANCH  14  16
ATOM     15  C   UNL     1       6.249   1.358  11.175  0.00  0.00    +0.000 C 
ATOM     16  C   UNL     1       5.480   2.573  11.668  0.00  0.00    +0.000 C 
ENDBRANCH  14  16
ENDBRANCH  13  14
ENDBRANCH  12  13
ENDBRANCH   1  12
TORSDOF 5
ENDMDL
MODEL 3
REMARK VINA RESULT:      -6.3      0.814      1.345
REMARK  Name = 
REMARK  6 active torsions:
REMARK  status: ('A' for Active; 'I' for Inactive)
REMARK    1  A    between atoms: C_1  and  C_2
REMARK    2  A    between atoms: C_2  and  C_3
REMARK    3  A    between atoms: C_3  and  C_4
REMARK    4  A    between atoms: C_4  and  S_5
REMARK    5  A    between atoms: S_5  and  C_6
REMARK    6  A    between atoms: N_10  and  C_11
REMARK                            x       y       z     vdW  Elec       q    Type
REMARK                         _______ _______ _______ _____ _____    ______ ____
ROOT
ATOM      1  C   UNL     1       6.234   4.267  16.465  0.00  0.00    +0.000 A 
ATOM      2  N   UNL     1       7.510   4.475  16.718  0.00  0.00    +0.000 NA
ATOM      3  N   UNL     1       7.646   4.688  18.064  0.00  0.00    +0.000 NA
ATOM      4  C   UNL     1       6.449   4.604  18.597  0.00  0.00    +0.000 A 
ATOM      5  N   UNL     1       5.508   4.281  17.642  0.00  0.00    +0.000 N 
ENDROOT
BRANCH   5   6
ATOM      6  C   UNL     1       4.151   3.967  17.921  0.00  0.00    +0.000 A 
ATOM      7  C   UNL     1       3.145   4.890  17.594  0.00  0.00    +0.000 A 
ATOM      8  C   UNL     1       1.817   4.639  17.948  0.00  0.00    +0.000 A 
ATOM      9  C   UNL     1       1.488   3.477  18.641  0.00  0.00    +0.000 A 
ATOM     10  C   UNL     1       2.481   2.556  18.965  0.00  0.00    +0.000 A 
ATOM     11  C   UNL     1       3.810   2.791  18.603  0.00  0.00    +0.000 A 
ENDBRANCH   5   6
BRANCH   1  12
ATOM     12  S   UNL     1       5.561   4.232  14.858  0.00  0.00    +0.000 S 
BRANCH  12  13
ATOM     13  C   UNL     1       7.057   4.542  13.868  0.00  0.00    +0.000 C 
BRANCH  13  14
ATOM     14  C   UNL     1       6.825   4.232  12.388  0.00  0.00    +0.000 C 
BRANCH  14  16
ATOM     15  C   UNL     1       4.594   3.305  11.605  0.00  0.00    +0.000 C 
ATOM     16  C   UNL     1       5.937   2.990  12.243  0.00  0.00    +0.000 C 
ENDBRANCH  14  16
ENDBRANCH  13  14
ENDBRANCH  12  13
ENDBRANCH   1  12
TORSDOF 5
ENDMDL
MODEL 4
REMARK VINA RESULT:      -6.3      1.339      1.862
REMARK  Name = 
REMARK  6 active torsions:
REMARK  status: ('A' for Active; 'I' for Inactive)
REMARK    1  A    between atoms: C_1  and  C_2
REMARK    2  A    between atoms: C_2  and  C_3
REMARK    3  A    between atoms: C_3  and  C_4
REMARK    4  A    between atoms: C_4  and  S_5
REMARK    5  A    between atoms: S_5  and  C_6
REMARK    6  A    between atoms: N_10  and  C_11
REMARK                            x       y       z     vdW  Elec       q    Type
REMARK                         _______ _______ _______ _____ _____    ______ ____
ROOT
ATOM      1  C   UNL     1       6.362   5.228  15.703  0.00  0.00    +0.000 A 
ATOM      2  N   UNL     1       7.541   5.814  15.769  0.00  0.00    +0.000 NA
ATOM      3  N   UNL     1       7.512   6.709  16.805  0.00  0.00    +0.000 NA
ATOM      4  C   UNL     1       6.316   6.645  17.344  0.00  0.00    +0.000 A 
ATOM      5  N   UNL     1       5.550   5.680  16.727  0.00  0.00    +0.000 N 
ENDROOT
BRANCH   5   6
ATOM      6  C   UNL     1       4.268   5.260  17.174  0.00  0.00    +0.000 A 
ATOM      7  C   UNL     1       3.418   6.183  17.804  0.00  0.00    +0.000 A 
ATOM      8  C   UNL     1       2.195   5.764  18.334  0.00  0.00    +0.000 A 
ATOM      9  C   UNL     1       1.821   4.426  18.252  0.00  0.00    +0.000 A 
ATOM     10  C   UNL     1       2.658   3.507  17.624  0.00  0.00    +0.000 A 
ATOM     11  C   UNL     1       3.877   3.918  17.078  0.00  0.00    +0.000 A 
ENDBRANCH   5   6
BRANCH   1  12
ATOM     12  S   UNL     1       5.855   4.227  14.370  0.00  0.00    +0.000 S 
BRANCH  12  13
ATOM     13  C   UNL     1       7.110   4.671  13.129  0.00  0.00    +0.000 C 
BRANCH  13  14
ATOM     14  C   UNL     1       7.016   3.776  11.891  0.00  0.00    +0.000 C 
BRANCH  14  16
ATOM     15  C   UNL     1       5.940   1.543  11.338  0.00  0.00    +0.000 C 
ATOM     16  C   UNL     1       5.747   2.918  11.957  0.00  0.00    +0.000 C 
ENDBRANCH  14  16
ENDBRANCH  13  14
ENDBRANCH  12  13
ENDBRANCH   1  12
TORSDOF 5
ENDMDL
MODEL 5
REMARK VINA RESULT:      -6.2      1.116      1.247
REMARK  Name = 
REMARK  6 active torsions:
REMARK  status: ('A' for Active; 'I' for Inactive)
REMARK    1  A    between atoms: C_1  and  C_2
REMARK    2  A    between atoms: C_2  and  C_3
REMARK    3  A    between atoms: C_3  and  C_4
REMARK    4  A    between atoms: C_4  and  S_5
REMARK    5  A    between atoms: S_5  and  C_6
REMARK    6  A    between atoms: N_10  and  C_11
REMARK                            x       y       z     vdW  Elec       q    Type
REMARK                         _______ _______ _______ _____ _____    ______ ____
ROOT
ATOM      1  C   UNL     1       6.448   4.380  17.215  0.00  0.00    +0.000 A 
ATOM      2  N   UNL     1       7.685   4.706  17.534  0.00  0.00    +0.000 NA
ATOM      3  N   UNL     1       7.662   5.304  18.765  0.00  0.00    +0.000 NA
ATOM      4  C   UNL     1       6.411   5.328  19.166  0.00  0.00    +0.000 A 
ATOM      5  N   UNL     1       5.590   4.704  18.251  0.00  0.00    +0.000 N 
ENDROOT
BRANCH   5   6
ATOM      6  C   UNL     1       4.213   4.428  18.460  0.00  0.00    +0.000 A 
ATOM      7  C   UNL     1       3.838   3.400  19.340  0.00  0.00    +0.000 A 
ATOM      8  C   UNL     1       2.493   3.053  19.484  0.00  0.00    +0.000 A 
ATOM      9  C   UNL     1       1.518   3.717  18.744  0.00  0.00    +0.000 A 
ATOM     10  C   UNL     1       1.883   4.741  17.873  0.00  0.00    +0.000 A 
ATOM     11  C   UNL     1       3.225   5.105  17.733  0.00  0.00    +0.000 A 
ENDBRANCH   5   6
BRANCH   1  12
ATOM     12  S   UNL     1       5.967   3.854  15.625  0.00  0.00    +0.000 S 
BRANCH  12  13
ATOM     13  C   UNL     1       7.106   4.832  14.596  0.00  0.00    +0.000 C 
BRANCH  13  14
ATOM     14  C   UNL     1       6.969   4.476  13.114  0.00  0.00    +0.000 C 
BRANCH  14  16
ATOM     15  C   UNL     1       5.839   2.648  11.761  0.00  0.00    +0.000 C 
ATOM     16  C   UNL     1       5.691   3.662  12.885  0.00  0.00    +0.000 C 
ENDBRANCH  14  16
ENDBRANCH  13  14
ENDBRANCH  12  13
ENDBRANCH   1  12
TORSDOF 5
ENDMDL
MODEL 6
REMARK VINA RESULT:      -6.2      2.216      3.216
REMARK  Name = 
REMARK  6 active torsions:
REMARK  status: ('A' for Active; 'I' for Inactive)
REMARK    1  A    between atoms: C_1  and  C_2
REMARK    2  A    between atoms: C_2  and  C_3
REMARK    3  A    between atoms: C_3  and  C_4
REMARK    4  A    between atoms: C_4  and  S_5
REMARK    5  A    between atoms: S_5  and  C_6
REMARK    6  A    between atoms: N_10  and  C_11
REMARK                            x       y       z     vdW  Elec       q    Type
REMARK                         _______ _______ _______ _____ _____    ______ ____
ROOT
ATOM      1  C   UNL     1       4.330   5.668  17.727  0.00  0.00    +0.000 A 
ATOM      2  N   UNL     1       4.654   6.849  17.240  0.00  0.00    +0.000 NA
ATOM      3  N   UNL     1       3.623   7.712  17.497  0.00  0.00    +0.000 NA
ATOM      4  C   UNL     1       2.695   7.035  18.134  0.00  0.00    +0.000 A 
ATOM      5  N   UNL     1       3.105   5.739  18.366  0.00  0.00    +0.000 N 
ENDROOT
BRANCH   5   6
ATOM      6  C   UNL     1       2.397   4.800  19.164  0.00  0.00    +0.000 A 
ATOM      7  C   UNL     1       2.588   4.790  20.555  0.00  0.00    +0.000 A 
ATOM      8  C   UNL     1       1.974   3.813  21.342  0.00  0.00    +0.000 A 
ATOM      9  C   UNL     1       1.181   2.835  20.747  0.00  0.00    +0.000 A 
ATOM     10  C   UNL     1       0.985   2.842  19.368  0.00  0.00    +0.000 A 
ATOM     11  C   UNL     1       1.583   3.824  18.574  0.00  0.00    +0.000 A 
ENDBRANCH   5   6
BRANCH   1  12
ATOM     12  S   UNL     1       5.214   4.206  17.386  0.00  0.00    +0.000 S 
BRANCH  12  13
ATOM     13  C   UNL     1       6.202   4.745  15.956  0.00  0.00    +0.000 C 
BRANCH  13  14
ATOM     14  C   UNL     1       5.470   4.484  14.637  0.00  0.00    +0.000 C 
BRANCH  14  16
ATOM     15  C   UNL     1       5.796   3.328  12.400  0.00  0.00    +0.000 C 
ATOM     16  C   UNL     1       6.468   4.046  13.559  0.00  0.00    +0.000 C 
ENDBRANCH  14  16
ENDBRANCH  13  14
ENDBRANCH  12  13
ENDBRANCH   1  12
TORSDOF 5
ENDMDL
MODEL 7
REMARK VINA RESULT:      -6.2      1.429      1.854
REMARK  Name = 
REMARK  6 active torsions:
REMARK  status: ('A' for Active; 'I' for Inactive)
REMARK    1  A    between atoms: C_1  and  C_2
REMARK    2  A    between atoms: C_2  and  C_3
REMARK    3  A    between atoms: C_3  and  C_4
REMARK    4  A    between atoms: C_4  and  S_5
REMARK    5  A    between atoms: S_5  and  C_6
REMARK    6  A    between atoms: N_10  and  C_11
REMARK                            x       y       z     vdW  Elec       q    Type
REMARK                         _______ _______ _______ _____ _____    ______ ____
ROOT
ATOM      1  C   UNL     1       6.472   5.137  16.314  0.00  0.00    +0.000 A 
ATOM      2  N   UNL     1       7.475   5.934  16.004  0.00  0.00    +0.000 NA
ATOM      3  N   UNL     1       7.302   7.114  16.675  0.00  0.00    +0.000 NA
ATOM      4  C   UNL     1       6.197   7.007  17.378  0.00  0.00    +0.000 A 
ATOM      5  N   UNL     1       5.647   5.750  17.239  0.00  0.00    +0.000 N 
ENDROOT
BRANCH   5   6
ATOM      6  C   UNL     1       4.540   5.268  17.987  0.00  0.00    +0.000 A 
ATOM      7  C   UNL     1       3.286   5.884  17.843  0.00  0.00    +0.000 A 
ATOM      8  C   UNL     1       2.211   5.484  18.640  0.00  0.00    +0.000 A 
ATOM      9  C   UNL     1       2.382   4.482  19.592  0.00  0.00    +0.000 A 
ATOM     10  C   UNL     1       3.622   3.865  19.736  0.00  0.00    +0.000 A 
ATOM     11  C   UNL     1       4.700   4.247  18.933  0.00  0.00    +0.000 A 
ENDBRANCH   5   6
BRANCH   1  12
ATOM     12  S   UNL     1       6.131   3.645  15.481  0.00  0.00    +0.000 S 
BRANCH  12  13
ATOM     13  C   UNL     1       5.604   4.285  13.861  0.00  0.00    +0.000 C 
BRANCH  13  14
ATOM     14  C   UNL     1       6.488   3.750  12.732  0.00  0.00    +0.000 C 
BRANCH  14  16
ATOM     15  C   UNL     1       4.297   3.308  11.526  0.00  0.00    +0.000 C 
ATOM     16  C   UNL     1       5.688   2.785  11.850  0.00  0.00    +0.000 C 
ENDBRANCH  14  16
ENDBRANCH  13  14
ENDBRANCH  12  13
ENDBRANCH   1  12
TORSDOF 5
ENDMDL
MODEL 8
REMARK VINA RESULT:      -6.2      0.926      1.602
REMARK  Name = 
REMARK  6 active torsions:
REMARK  status: ('A' for Active; 'I' for Inactive)
REMARK    1  A    between atoms: C_1  and  C_2
REMARK    2  A    between atoms: C_2  and  C_3
REMARK    3  A    between atoms: C_3  and  C_4
REMARK    4  A    between atoms: C_4  and  S_5
REMARK    5  A    between atoms: S_5  and  C_6
REMARK    6  A    between atoms: N_10  and  C_11
REMARK                            x       y       z     vdW  Elec       q    Type
REMARK                         _______ _______ _______ _____ _____    ______ ____
ROOT
ATOM      1  C   UNL     1       6.208   5.543  17.243  0.00  0.00    +0.000 A 
ATOM      2  N   UNL     1       7.372   5.811  17.802  0.00  0.00    +0.000 NA
ATOM      3  N   UNL     1       7.285   5.500  19.132  0.00  0.00    +0.000 NA
ATOM      4  C   UNL     1       6.070   5.050  19.350  0.00  0.00    +0.000 A 
ATOM      5  N   UNL     1       5.348   4.997  18.177  0.00  0.00    +0.000 N 
ENDROOT
BRANCH   5   6
ATOM      6  C   UNL     1       4.058   4.414  18.050  0.00  0.00    +0.000 A 
ATOM      7  C   UNL     1       2.918   5.190  18.315  0.00  0.00    +0.000 A 
ATOM      8  C   UNL     1       1.649   4.607  18.288  0.00  0.00    +0.000 A 
ATOM      9  C   UNL     1       1.510   3.250  18.011  0.00  0.00    +0.000 A 
ATOM     10  C   UNL     1       2.637   2.476  17.744  0.00  0.00    +0.000 A 
ATOM     11  C   UNL     1       3.910   3.053  17.754  0.00  0.00    +0.000 A 
ENDBRANCH   5   6
BRANCH   1  12
ATOM     12  S   UNL     1       5.773   6.044  15.632  0.00  0.00    +0.000 S 
BRANCH  12  13
ATOM     13  C   UNL     1       6.728   4.849  14.646  0.00  0.00    +0.000 C 
BRANCH  13  14
ATOM     14  C   UNL     1       5.826   3.766  14.049  0.00  0.00    +0.000 C 
BRANCH  14  16
ATOM     15  C   UNL     1       4.961   3.138  11.746  0.00  0.00    +0.000 C 
ATOM     16  C   UNL     1       6.169   3.552  12.570  0.00  0.00    +0.000 C 
ENDBRANCH  14  16
ENDBRANCH  13  14
ENDBRANCH  12  13
ENDBRANCH   1  12
TORSDOF 5
ENDMDL
MODEL 9
REMARK VINA RESULT:      -6.1      1.594      2.019
REMARK  Name = 
REMARK  6 active torsions:
REMARK  status: ('A' for Active; 'I' for Inactive)
REMARK    1  A    between atoms: C_1  and  C_2
REMARK    2  A    between atoms: C_2  and  C_3
REMARK    3  A    between atoms: C_3  and  C_4
REMARK    4  A    between atoms: C_4  and  S_5
REMARK    5  A    between atoms: S_5  and  C_6
REMARK    6  A    between atoms: N_10  and  C_11
REMARK                            x       y       z     vdW  Elec       q    Type
REMARK                         _______ _______ _______ _____ _____    ______ ____
ROOT
ATOM      1  C   UNL     1       5.999   4.439  17.526  0.00  0.00    +0.000 A 
ATOM      2  N   UNL     1       7.308   4.586  17.514  0.00  0.00    +0.000 NA
ATOM      3  N   UNL     1       7.682   5.151  18.704  0.00  0.00    +0.000 NA
ATOM      4  C   UNL     1       6.591   5.334  19.411  0.00  0.00    +0.000 A 
ATOM      5  N   UNL     1       5.486   4.850  18.743  0.00  0.00    +0.000 N 
ENDROOT
BRANCH   5   6
ATOM      6  C   UNL     1       4.183   4.758  19.301  0.00  0.00    +0.000 A 
ATOM      7  C   UNL     1       3.405   5.919  19.440  0.00  0.00    +0.000 A 
ATOM      8  C   UNL     1       2.162   5.862  20.073  0.00  0.00    +0.000 A 
ATOM      9  C   UNL     1       1.694   4.653  20.583  0.00  0.00    +0.000 A 
ATOM     10  C   UNL     1       2.459   3.498  20.445  0.00  0.00    +0.000 A 
ATOM     11  C   UNL     1       3.698   3.542  19.800  0.00  0.00    +0.000 A 
ENDBRANCH   5   6
BRANCH   1  12
ATOM     12  S   UNL     1       5.061   4.023  16.118  0.00  0.00    +0.000 S 
BRANCH  12  13
ATOM     13  C   UNL     1       6.382   3.876  14.874  0.00  0.00    +0.000 C 
BRANCH  13  14
ATOM     14  C   UNL     1       5.932   4.412  13.512  0.00  0.00    +0.000 C 
BRANCH  14  16
ATOM     15  C   UNL     1       4.607   3.253  11.682  0.00  0.00    +0.000 C 
ATOM     16  C   UNL     1       5.898   3.274  12.485  0.00  0.00    +0.000 C 
ENDBRANCH  14  16
ENDBRANCH  13  14
ENDBRANCH  12  13
ENDBRANCH   1  12
TORSDOF 5
ENDMDL
