MODEL 1
REMARK VINA RESULT:      -7.6      0.000      0.000
REMARK  Name = 
REMARK  7 active torsions:
REMARK  status: ('A' for Active; 'I' for Inactive)
REMARK    1  A    between atoms: C_1  and  C_2
REMARK    2  A    between atoms: C_2  and  C_3
REMARK    3  A    between atoms: C_2  and  C_4
REMARK    4  A    between atoms: C_2  and  N_5
REMARK    5  A    between atoms: C_6  and  C_8
REMARK    6  A    between atoms: C_8  and  C_10
REMARK    7  A    between atoms: C_11  and  C_12
REMARK                            x       y       z     vdW  Elec       q    Type
REMARK                         _______ _______ _______ _____ _____    ______ ____
ROOT
ATOM      1  C   UNL     1       0.476   8.568  21.404  0.00  0.00    +0.000 C 
ATOM      2  C   UNL     1       1.687   8.079  21.096  0.00  0.00    +0.000 C 
ENDROOT
BRANCH   2   3
ATOM      3  C   UNL     1       1.878   6.946  20.172  0.00  0.00    +0.000 A 
ATOM      4  C   UNL     1       2.457   7.108  18.906  0.00  0.00    +0.000 A 
ATOM      5  C   UNL     1       2.651   6.015  18.058  0.00  0.00    +0.000 A 
ATOM      6  C   UNL     1       2.286   4.725  18.460  0.00  0.00    +0.000 A 
ATOM      7  C   UNL     1       2.491   3.618  17.621  0.00  0.00    +0.000 A 
ATOM      8  C   UNL     1       2.132   2.336  18.035  0.00  0.00    +0.000 A 
ATOM      9  C   UNL     1       1.558   2.146  19.289  0.00  0.00    +0.000 A 
ATOM     10  C   UNL     1       1.347   3.240  20.133  0.00  0.00    +0.000 A 
ATOM     11  C   UNL     1       1.709   4.538  19.736  0.00  0.00    +0.000 A 
ATOM     12  C   UNL     1       1.516   5.652  20.578  0.00  0.00    +0.000 A 
ENDBRANCH   2   3
BRANCH   1  13
ATOM     13  C   UNL     1       0.273   9.727  22.316  0.00  0.00    +0.000 C 
ATOM     14  O   UNL     1       0.463   9.702  23.524  0.00  0.00    +0.000 OA
BRANCH  13  16
ATOM     15  N   UNL     1      -0.800  10.834  20.387  0.00  0.00    +0.000 N 
ATOM     16  C   UNL     1      -0.215  11.015  21.627  0.00  0.00    +0.000 C 
ATOM     17  O   UNL     1      -0.069  12.092  22.190  0.00  0.00    +0.000 OA
ATOM     18  H   UNL     1      -0.850   9.876  20.049  0.00  0.00    +0.000 HD
BRANCH  15  20
ATOM     19  C   UNL     1      -0.180  12.891  19.157  0.00  0.00    +0.000 C 
ATOM     20  C   UNL     1      -1.317  11.941  19.570  0.00  0.00    +0.000 C 
ATOM     21  C   UNL     1      -2.389  12.731  20.340  0.00  0.00    +0.000 C 
ATOM     22  C   UNL     1      -1.950  11.374  18.285  0.00  0.00    +0.000 C 
ENDBRANCH  15  20
ENDBRANCH  13  16
ENDBRANCH   1  13
TORSDOF 4
ENDMDL
MODEL 2
REMARK VINA RESULT:      -7.6      4.209      7.883
REMARK  Name = 
REMARK  7 active torsions:
REMARK  status: ('A' for Active; 'I' for Inactive)
REMARK    1  A    between atoms: C_1  and  C_2
REMARK    2  A    between atoms: C_2  and  C_3
REMARK    3  A    between atoms: C_2  and  C_4
REMARK    4  A    between atoms: C_2  and  N_5
REMARK    5  A    between atoms: C_6  and  C_8
REMARK    6  A    between atoms: C_8  and  C_10
REMARK    7  A    between atoms: C_11  and  C_12
REMARK                            x       y       z     vdW  Elec       q    Type
REMARK                         _______ _______ _______ _____ _____    ______ ____
ROOT
ATOM      1  C   UNL     1       2.377   5.800  18.264  0.00  0.00    +0.000 C 
ATOM      2  C   UNL     1       2.795   7.073  18.316  0.00  0.00    +0.000 C 
ENDROOT
BRANCH   2   3
ATOM      3  C   UNL     1       2.002   8.149  18.938  0.00  0.00    +0.000 A 
ATOM      4  C   UNL     1       1.517   9.238  18.200  0.00  0.00    +0.000 A 
ATOM      5  C   UNL     1       0.746  10.232  18.807  0.00  0.00    +0.000 A 
ATOM      6  C   UNL     1       0.423  10.156  20.167  0.00  0.00    +0.000 A 
ATOM      7  C   UNL     1      -0.365  11.142  20.782  0.00  0.00    +0.000 A 
ATOM      8  C   UNL     1      -0.687  11.052  22.135  0.00  0.00    +0.000 A 
ATOM      9  C   UNL     1      -0.222   9.980  22.890  0.00  0.00    +0.000 A 
ATOM     10  C   UNL     1       0.564   8.991  22.291  0.00  0.00    +0.000 A 
ATOM     11  C   UNL     1       0.894   9.061  20.927  0.00  0.00    +0.000 A 
ATOM     12  C   UNL     1       1.674   8.069  20.301  0.00  0.00    +0.000 A 
ENDBRANCH   2   3
BRANCH   1  13
ATOM     13  C   UNL     1       3.180   4.701  17.661  0.00  0.00    +0.000 C 
ATOM     14  O   UNL     1       2.770   3.564  17.473  0.00  0.00    +0.000 OA
BRANCH  13  16
ATOM     15  N   UNL     1       5.493   5.246  18.331  0.00  0.00    +0.000 N 
ATOM     16  C   UNL     1       4.618   5.089  17.271  0.00  0.00    +0.000 C 
ATOM     17  O   UNL     1       4.905   5.230  16.090  0.00  0.00    +0.000 OA
ATOM     18  H   UNL     1       5.106   5.095  19.259  0.00  0.00    +0.000 HD
BRANCH  15  20
ATOM     19  C   UNL     1       7.621   5.671  19.522  0.00  0.00    +0.000 C 
ATOM     20  C   UNL     1       6.903   5.624  18.163  0.00  0.00    +0.000 C 
ATOM     21  C   UNL     1       7.021   6.996  17.477  0.00  0.00    +0.000 C 
ATOM     22  C   UNL     1       7.612   4.573  17.289  0.00  0.00    +0.000 C 
ENDBRANCH  15  20
ENDBRANCH  13  16
ENDBRANCH   1  13
TORSDOF 4
ENDMDL
MODEL 3
REMARK VINA RESULT:      -7.6      3.551      7.880
REMARK  Name = 
REMARK  7 active torsions:
REMARK  status: ('A' for Active; 'I' for Inactive)
REMARK    1  A    between atoms: C_1  and  C_2
REMARK    2  A    between atoms: C_2  and  C_3
REMARK    3  A    between atoms: C_2  and  C_4
REMARK    4  A    between atoms: C_2  and  N_5
REMARK    5  A    between atoms: C_6  and  C_8
REMARK    6  A    between atoms: C_8  and  C_10
REMARK    7  A    between atoms: C_11  and  C_12
REMARK                            x       y       z     vdW  Elec       q    Type
REMARK                         _______ _______ _______ _____ _____    ______ ____
ROOT
ATOM      1  C   UNL     1       2.901   6.876  18.553  0.00  0.00    +0.000 C 
ATOM      2  C   UNL     1       2.347   7.993  18.059  0.00  0.00    +0.000 C 
ENDROOT
BRANCH   2   3
ATOM      3  C   UNL     1       1.533   8.909  18.878  0.00  0.00    +0.000 A 
ATOM      4  C   UNL     1       0.920  10.047  18.335  0.00  0.00    +0.000 A 
ATOM      5  C   UNL     1       0.132  10.887  19.126  0.00  0.00    +0.000 A 
ATOM      6  C   UNL     1      -0.079  10.602  20.479  0.00  0.00    +0.000 A 
ATOM      7  C   UNL     1      -0.883  11.431  21.279  0.00  0.00    +0.000 A 
ATOM      8  C   UNL     1      -1.094  11.134  22.624  0.00  0.00    +0.000 A 
ATOM      9  C   UNL     1      -0.500  10.008  23.188  0.00  0.00    +0.000 A 
ATOM     10  C   UNL     1       0.302   9.175  22.404  0.00  0.00    +0.000 A 
ATOM     11  C   UNL     1       0.521   9.455  21.045  0.00  0.00    +0.000 A 
ATOM     12  C   UNL     1       1.317   8.621  20.235  0.00  0.00    +0.000 A 
ENDBRANCH   2   3
BRANCH   1  13
ATOM     13  C   UNL     1       3.746   5.956  17.742  0.00  0.00    +0.000 C 
ATOM     14  O   UNL     1       4.447   6.304  16.803  0.00  0.00    +0.000 OA
BRANCH  13  16
ATOM     15  N   UNL     1       3.113   4.244  19.405  0.00  0.00    +0.000 N 
ATOM     16  C   UNL     1       3.685   4.477  18.167  0.00  0.00    +0.000 C 
ATOM     17  O   UNL     1       4.126   3.616  17.417  0.00  0.00    +0.000 OA
ATOM     18  H   UNL     1       2.792   5.063  19.914  0.00  0.00    +0.000 HD
BRANCH  15  20
ATOM     19  C   UNL     1       2.356   2.979  21.394  0.00  0.00    +0.000 C 
ATOM     20  C   UNL     1       2.975   2.901  19.988  0.00  0.00    +0.000 C 
ATOM     21  C   UNL     1       4.342   2.200  20.071  0.00  0.00    +0.000 C 
ATOM     22  C   UNL     1       2.040   2.055  19.104  0.00  0.00    +0.000 C 
ENDBRANCH  15  20
ENDBRANCH  13  16
ENDBRANCH   1  13
TORSDOF 4
ENDMDL
MODEL 4
REMARK VINA RESULT:      -7.6      2.434      3.083
REMARK  Name = 
REMARK  7 active torsions:
REMARK  status: ('A' for Active; 'I' for Inactive)
REMARK    1  A    between atoms: C_1  and  C_2
REMARK    2  A    between atoms: C_2  and  C_3
REMARK    3  A    between atoms: C_2  and  C_4
REMARK    4  A    between atoms: C_2  and  N_5
REMARK    5  A    between atoms: C_6  and  C_8
REMARK    6  A    between atoms: C_8  and  C_10
REMARK    7  A    between atoms: C_11  and  C_12
REMARK                            x       y       z     vdW  Elec       q    Type
REMARK                         _______ _______ _______ _____ _____    ______ ____
ROOT
ATOM      1  C   UNL     1       1.495   8.741  18.107  0.00  0.00    +0.000 C 
ATOM      2  C   UNL     1       2.767   8.317  18.059  0.00  0.00    +0.000 C 
ENDROOT
BRANCH   2   3
ATOM      3  C   UNL     1       3.129   6.899  17.879  0.00  0.00    +0.000 A 
ATOM      4  C   UNL     1       4.355   6.509  17.324  0.00  0.00    +0.000 A 
ATOM      5  C   UNL     1       4.686   5.159  17.188  0.00  0.00    +0.000 A 
ATOM      6  C   UNL     1       3.806   4.160  17.619  0.00  0.00    +0.000 A 
ATOM      7  C   UNL     1       4.137   2.801  17.501  0.00  0.00    +0.000 A 
ATOM      8  C   UNL     1       3.256   1.814  17.942  0.00  0.00    +0.000 A 
ATOM      9  C   UNL     1       2.033   2.174  18.500  0.00  0.00    +0.000 A 
ATOM     10  C   UNL     1       1.691   3.523  18.624  0.00  0.00    +0.000 A 
ATOM     11  C   UNL     1       2.568   4.532  18.191  0.00  0.00    +0.000 A 
ATOM     12  C   UNL     1       2.248   5.898  18.317  0.00  0.00    +0.000 A 
ENDBRANCH   2   3
BRANCH   1  13
ATOM     13  C   UNL     1       1.117  10.172  18.262  0.00  0.00    +0.000 C 
ATOM     14  O   UNL     1       1.911  11.103  18.270  0.00  0.00    +0.000 OA
BRANCH  13  16
ATOM     15  N   UNL     1      -1.113  10.457  17.242  0.00  0.00    +0.000 N 
ATOM     16  C   UNL     1      -0.392  10.430  18.422  0.00  0.00    +0.000 C 
ATOM     17  O   UNL     1      -0.861  10.590  19.542  0.00  0.00    +0.000 OA
ATOM     18  H   UNL     1      -0.582  10.308  16.388  0.00  0.00    +0.000 HD
BRANCH  15  20
ATOM     19  C   UNL     1      -3.338   9.495  17.745  0.00  0.00    +0.000 C 
ATOM     20  C   UNL     1      -2.561  10.700  17.187  0.00  0.00    +0.000 C 
ATOM     21  C   UNL     1      -3.014  10.975  15.743  0.00  0.00    +0.000 C 
ATOM     22  C   UNL     1      -2.905  11.926  18.053  0.00  0.00    +0.000 C 
ENDBRANCH  15  20
ENDBRANCH  13  16
ENDBRANCH   1  13
TORSDOF 4
ENDMDL
MODEL 5
REMARK VINA RESULT:      -7.5      4.025      7.878
REMARK  Name = 
REMARK  7 active torsions:
REMARK  status: ('A' for Active; 'I' for Inactive)
REMARK    1  A    between atoms: C_1  and  C_2
REMARK    2  A    between atoms: C_2  and  C_3
REMARK    3  A    between atoms: C_2  and  C_4
REMARK    4  A    between atoms: C_2  and  N_5
REMARK    5  A    between atoms: C_6  and  C_8
REMARK    6  A    between atoms: C_8  and  C_10
REMARK    7  A    between atoms: C_11  and  C_12
REMARK                            x       y       z     vdW  Elec       q    Type
REMARK                         _______ _______ _______ _____ _____    ______ ____
ROOT
ATOM      1  C   UNL     1       2.988   5.881  19.783  0.00  0.00    +0.000 C 
ATOM      2  C   UNL     1       2.581   6.873  18.977  0.00  0.00    +0.000 C 
ENDROOT
BRANCH   2   3
ATOM      3  C   UNL     1       1.836   8.045  19.469  0.00  0.00    +0.000 A 
ATOM      4  C   UNL     1       1.534   9.136  18.641  0.00  0.00    +0.000 A 
ATOM      5  C   UNL     1       0.804  10.225  19.124  0.00  0.00    +0.000 A 
ATOM      6  C   UNL     1       0.340  10.246  20.444  0.00  0.00    +0.000 A 
ATOM      7  C   UNL     1      -0.408  11.329  20.933  0.00  0.00    +0.000 A 
ATOM      8  C   UNL     1      -0.872  11.336  22.247  0.00  0.00    +0.000 A 
ATOM      9  C   UNL     1      -0.590  10.265  23.089  0.00  0.00    +0.000 A 
ATOM     10  C   UNL     1       0.154   9.181  22.615  0.00  0.00    +0.000 A 
ATOM     11  C   UNL     1       0.625   9.153  21.292  0.00  0.00    +0.000 A 
ATOM     12  C   UNL     1       1.367   8.064  20.792  0.00  0.00    +0.000 A 
ENDBRANCH   2   3
BRANCH   1  13
ATOM     13  C   UNL     1       3.763   4.704  19.302  0.00  0.00    +0.000 C 
ATOM     14  O   UNL     1       3.312   3.573  19.192  0.00  0.00    +0.000 OA
BRANCH  13  16
ATOM     15  N   UNL     1       5.483   5.136  17.584  0.00  0.00    +0.000 N 
ATOM     16  C   UNL     1       5.230   5.000  18.937  0.00  0.00    +0.000 C 
ATOM     17  O   UNL     1       6.064   5.098  19.827  0.00  0.00    +0.000 OA
ATOM     18  H   UNL     1       4.685   5.027  16.964  0.00  0.00    +0.000 HD
BRANCH  15  20
ATOM     19  C   UNL     1       7.868   4.480  17.672  0.00  0.00    +0.000 C 
ATOM     20  C   UNL     1       6.820   5.409  17.038  0.00  0.00    +0.000 C 
ATOM     21  C   UNL     1       7.220   6.874  17.283  0.00  0.00    +0.000 C 
ATOM     22  C   UNL     1       6.813   5.148  15.519  0.00  0.00    +0.000 C 
ENDBRANCH  15  20
ENDBRANCH  13  16
ENDBRANCH   1  13
TORSDOF 4
ENDMDL
MODEL 6
REMARK VINA RESULT:      -7.5      2.662      3.876
REMARK  Name = 
REMARK  7 active torsions:
REMARK  status: ('A' for Active; 'I' for Inactive)
REMARK    1  A    between atoms: C_1  and  C_2
REMARK    2  A    between atoms: C_2  and  C_3
REMARK    3  A    between atoms: C_2  and  C_4
REMARK    4  A    between atoms: C_2  and  N_5
REMARK    5  A    between atoms: C_6  and  C_8
REMARK    6  A    between atoms: C_8  and  C_10
REMARK    7  A    between atoms: C_11  and  C_12
REMARK                            x       y       z     vdW  Elec       q    Type
REMARK                         _______ _______ _______ _____ _____    ______ ____
ROOT
ATOM      1  C   UNL     1       1.581   9.133  17.912  0.00  0.00    +0.000 C 
ATOM      2  C   UNL     1       2.279   8.275  18.670  0.00  0.00    +0.000 C 
ENDROOT
BRANCH   2   3
ATOM      3  C   UNL     1       2.906   7.058  18.125  0.00  0.00    +0.000 A 
ATOM      4  C   UNL     1       2.338   5.788  18.294  0.00  0.00    +0.000 A 
ATOM      5  C   UNL     1       2.939   4.651  17.746  0.00  0.00    +0.000 A 
ATOM      6  C   UNL     1       4.117   4.757  16.998  0.00  0.00    +0.000 A 
ATOM      7  C   UNL     1       4.720   3.623  16.430  0.00  0.00    +0.000 A 
ATOM      8  C   UNL     1       5.889   3.739  15.680  0.00  0.00    +0.000 A 
ATOM      9  C   UNL     1       6.473   4.989  15.494  0.00  0.00    +0.000 A 
ATOM     10  C   UNL     1       5.884   6.126  16.054  0.00  0.00    +0.000 A 
ATOM     11  C   UNL     1       4.702   6.029  16.808  0.00  0.00    +0.000 A 
ATOM     12  C   UNL     1       4.086   7.164  17.371  0.00  0.00    +0.000 A 
ENDBRANCH   2   3
BRANCH   1  13
ATOM     13  C   UNL     1       0.964  10.378  18.447  0.00  0.00    +0.000 C 
ATOM     14  O   UNL     1       1.592  11.351  18.842  0.00  0.00    +0.000 OA
BRANCH  13  16
ATOM     15  N   UNL     1      -1.190  10.666  17.273  0.00  0.00    +0.000 N 
ATOM     16  C   UNL     1      -0.576  10.376  18.479  0.00  0.00    +0.000 C 
ATOM     17  O   UNL     1      -1.157  10.126  19.526  0.00  0.00    +0.000 OA
ATOM     18  H   UNL     1      -0.572  10.853  16.488  0.00  0.00    +0.000 HD
BRANCH  15  20
ATOM     19  C   UNL     1      -3.020  10.936  15.628  0.00  0.00    +0.000 C 
ATOM     20  C   UNL     1      -2.649  10.722  17.105  0.00  0.00    +0.000 C 
ATOM     21  C   UNL     1      -3.252  11.855  17.953  0.00  0.00    +0.000 C 
ATOM     22  C   UNL     1      -3.266   9.385  17.559  0.00  0.00    +0.000 C 
ENDBRANCH  15  20
ENDBRANCH  13  16
ENDBRANCH   1  13
TORSDOF 4
ENDMDL
MODEL 7
REMARK VINA RESULT:      -7.5      4.026      7.849
REMARK  Name = 
REMARK  7 active torsions:
REMARK  status: ('A' for Active; 'I' for Inactive)
REMARK    1  A    between atoms: C_1  and  C_2
REMARK    2  A    between atoms: C_2  and  C_3
REMARK    3  A    between atoms: C_2  and  C_4
REMARK    4  A    between atoms: C_2  and  N_5
REMARK    5  A    between atoms: C_6  and  C_8
REMARK    6  A    between atoms: C_8  and  C_10
REMARK    7  A    between atoms: C_11  and  C_12
REMARK                            x       y       z     vdW  Elec       q    Type
REMARK                         _______ _______ _______ _____ _____    ______ ____
ROOT
ATOM      1  C   UNL     1       2.481   5.485  18.811  0.00  0.00    +0.000 C 
ATOM      2  C   UNL     1       2.710   6.340  19.819  0.00  0.00    +0.000 C 
ENDROOT
BRANCH   2   3
ATOM      3  C   UNL     1       1.954   7.594  19.987  0.00  0.00    +0.000 A 
ATOM      4  C   UNL     1       1.772   8.500  18.933  0.00  0.00    +0.000 A 
ATOM      5  C   UNL     1       1.030   9.671  19.110  0.00  0.00    +0.000 A 
ATOM      6  C   UNL     1       0.435   9.960  20.344  0.00  0.00    +0.000 A 
ATOM      7  C   UNL     1      -0.326  11.125  20.527  0.00  0.00    +0.000 A 
ATOM      8  C   UNL     1      -0.921  11.400  21.757  0.00  0.00    +0.000 A 
ATOM      9  C   UNL     1      -0.759  10.516  22.820  0.00  0.00    +0.000 A 
ATOM     10  C   UNL     1      -0.003   9.352  22.651  0.00  0.00    +0.000 A 
ATOM     11  C   UNL     1       0.599   9.055  21.417  0.00  0.00    +0.000 A 
ATOM     12  C   UNL     1       1.354   7.882  21.223  0.00  0.00    +0.000 A 
ENDBRANCH   2   3
BRANCH   1  13
ATOM     13  C   UNL     1       3.221   4.203  18.645  0.00  0.00    +0.000 C 
ATOM     14  O   UNL     1       2.694   3.119  18.436  0.00  0.00    +0.000 OA
BRANCH  13  16
ATOM     15  N   UNL     1       5.314   5.376  18.063  0.00  0.00    +0.000 N 
ATOM     16  C   UNL     1       4.752   4.320  18.758  0.00  0.00    +0.000 C 
ATOM     17  O   UNL     1       5.370   3.506  19.431  0.00  0.00    +0.000 OA
ATOM     18  H   UNL     1       4.670   5.968  17.547  0.00  0.00    +0.000 HD
BRANCH  15  20
ATOM     19  C   UNL     1       7.502   4.572  17.227  0.00  0.00    +0.000 C 
ATOM     20  C   UNL     1       6.759   5.646  18.039  0.00  0.00    +0.000 C 
ATOM     21  C   UNL     1       7.328   5.692  19.468  0.00  0.00    +0.000 C 
ATOM     22  C   UNL     1       7.011   7.008  17.364  0.00  0.00    +0.000 C 
ENDBRANCH  15  20
ENDBRANCH  13  16
ENDBRANCH   1  13
TORSDOF 4
ENDMDL
MODEL 8
REMARK VINA RESULT:      -7.5      4.097      7.879
REMARK  Name = 
REMARK  7 active torsions:
REMARK  status: ('A' for Active; 'I' for Inactive)
REMARK    1  A    between atoms: C_1  and  C_2
REMARK    2  A    between atoms: C_2  and  C_3
REMARK    3  A    between atoms: C_2  and  C_4
REMARK    4  A    between atoms: C_2  and  N_5
REMARK    5  A    between atoms: C_6  and  C_8
REMARK    6  A    between atoms: C_8  and  C_10
REMARK    7  A    between atoms: C_11  and  C_12
REMARK                            x       y       z     vdW  Elec       q    Type
REMARK                         _______ _______ _______ _____ _____    ______ ____
ROOT
ATOM      1  C   UNL     1       2.593   5.741  19.337  0.00  0.00    +0.000 C 
ATOM      2  C   UNL     1       2.587   6.950  18.756  0.00  0.00    +0.000 C 
ENDROOT
BRANCH   2   3
ATOM      3  C   UNL     1       1.871   8.105  19.326  0.00  0.00    +0.000 A 
ATOM      4  C   UNL     1       1.589   9.252  18.571  0.00  0.00    +0.000 A 
ATOM      5  C   UNL     1       0.886  10.324  19.126  0.00  0.00    +0.000 A 
ATOM      6  C   UNL     1       0.431  10.272  20.449  0.00  0.00    +0.000 A 
ATOM      7  C   UNL     1      -0.290  11.337  21.011  0.00  0.00    +0.000 A 
ATOM      8  C   UNL     1      -0.746  11.272  22.326  0.00  0.00    +0.000 A 
ATOM      9  C   UNL     1      -0.483  10.144  23.097  0.00  0.00    +0.000 A 
ATOM     10  C   UNL     1       0.234   9.076  22.551  0.00  0.00    +0.000 A 
ATOM     11  C   UNL     1       0.697   9.121  21.225  0.00  0.00    +0.000 A 
ATOM     12  C   UNL     1       1.411   8.050  20.651  0.00  0.00    +0.000 A 
ENDBRANCH   2   3
BRANCH   1  13
ATOM     13  C   UNL     1       3.334   4.573  18.784  0.00  0.00    +0.000 C 
ATOM     14  O   UNL     1       2.999   3.406  18.929  0.00  0.00    +0.000 OA
BRANCH  13  16
ATOM     15  N   UNL     1       5.700   5.277  18.749  0.00  0.00    +0.000 N 
ATOM     16  C   UNL     1       4.601   4.929  17.984  0.00  0.00    +0.000 C 
ATOM     17  O   UNL     1       4.574   4.886  16.762  0.00  0.00    +0.000 OA
ATOM     18  H   UNL     1       5.568   5.267  19.757  0.00  0.00    +0.000 HD
BRANCH  15  20
ATOM     19  C   UNL     1       6.876   6.976  17.386  0.00  0.00    +0.000 C 
ATOM     20  C   UNL     1       6.996   5.659  18.170  0.00  0.00    +0.000 C 
ATOM     21  C   UNL     1       7.522   4.555  17.237  0.00  0.00    +0.000 C 
ATOM     22  C   UNL     1       8.017   5.874  19.303  0.00  0.00    +0.000 C 
ENDBRANCH  15  20
ENDBRANCH  13  16
ENDBRANCH   1  13
TORSDOF 4
ENDMDL
MODEL 9
REMARK VINA RESULT:      -7.5      7.633     10.399
REMARK  Name = 
REMARK  7 active torsions:
REMARK  status: ('A' for Active; 'I' for Inactive)
REMARK    1  A    between atoms: C_1  and  C_2
REMARK    2  A    between atoms: C_2  and  C_3
REMARK    3  A    between atoms: C_2  and  C_4
REMARK    4  A    between atoms: C_2  and  N_5
REMARK    5  A    between atoms: C_6  and  C_8
REMARK    6  A    between atoms: C_8  and  C_10
REMARK    7  A    between atoms: C_11  and  C_12
REMARK                            x       y       z     vdW  Elec       q    Type
REMARK                         _______ _______ _______ _____ _____    ______ ____
ROOT
ATOM      1  C   UNL     1       7.971   7.805  18.118  0.00  0.00    +0.000 C 
ATOM      2  C   UNL     1       8.105   9.050  17.637  0.00  0.00    +0.000 C 
ENDROOT
BRANCH   2   3
ATOM      3  C   UNL     1       8.736  10.138  18.405  0.00  0.00    +0.000 A 
ATOM      4  C   UNL     1       9.215   9.949  19.709  0.00  0.00    +0.000 A 
ATOM      5  C   UNL     1       9.832  10.989  20.408  0.00  0.00    +0.000 A 
ATOM      6  C   UNL     1      10.002  12.245  19.815  0.00  0.00    +0.000 A 
ATOM      7  C   UNL     1      10.635  13.293  20.503  0.00  0.00    +0.000 A 
ATOM      8  C   UNL     1      10.807  14.538  19.901  0.00  0.00    +0.000 A 
ATOM      9  C   UNL     1      10.344  14.753  18.606  0.00  0.00    +0.000 A 
ATOM     10  C   UNL     1       9.712  13.719  17.910  0.00  0.00    +0.000 A 
ATOM     11  C   UNL     1       9.535  12.456  18.498  0.00  0.00    +0.000 A 
ATOM     12  C   UNL     1       8.911  11.397  17.809  0.00  0.00    +0.000 A 
ENDBRANCH   2   3
BRANCH   1  13
ATOM     13  C   UNL     1       7.359   6.692  17.342  0.00  0.00    +0.000 C 
ATOM     14  O   UNL     1       7.577   6.467  16.160  0.00  0.00    +0.000 OA
BRANCH  13  16
ATOM     15  N   UNL     1       5.088   5.784  17.681  0.00  0.00    +0.000 N 
ATOM     16  C   UNL     1       6.392   5.799  18.142  0.00  0.00    +0.000 C 
ATOM     17  O   UNL     1       6.809   5.171  19.106  0.00  0.00    +0.000 OA
ATOM     18  H   UNL     1       4.892   6.359  16.866  0.00  0.00    +0.000 HD
BRANCH  15  20
ATOM     19  C   UNL     1       2.642   5.411  17.764  0.00  0.00    +0.000 C 
ATOM     20  C   UNL     1       4.017   5.002  18.317  0.00  0.00    +0.000 C 
ATOM     21  C   UNL     1       4.034   5.198  19.843  0.00  0.00    +0.000 C 
ATOM     22  C   UNL     1       4.226   3.508  18.009  0.00  0.00    +0.000 C 
ENDBRANCH  15  20
ENDBRANCH  13  16
ENDBRANCH   1  13
TORSDOF 4
ENDMDL
