MODEL 1
REMARK VINA RESULT:      -6.2      0.000      0.000
REMARK  Name = 
REMARK  3 active torsions:
REMARK  status: ('A' for Active; 'I' for Inactive)
REMARK    1  A    between atoms: N_6  and  S_7
REMARK    2  A    between atoms: S_7  and  C_10
REMARK    3  A    between atoms: C_21  and  C_22
REMARK                            x       y       z     vdW  Elec       q    Type
REMARK                         _______ _______ _______ _____ _____    ______ ____
ROOT
ATOM      1  O   UNL     1      -3.695  13.998  21.360  0.00  0.00    +0.000 OA
ATOM      2  S   UNL     1      -2.359  13.694  21.845  0.00  0.00    +0.000 S 
ATOM      3  O   UNL     1      -1.785  14.572  22.852  0.00  0.00    +0.000 OA
ATOM      4  C   UNL     1      -2.412  12.077  22.565  0.00  0.00    +0.000 C 
ATOM      5  C   UNL     1      -1.041  11.580  22.978  0.00  0.00    +0.000 C 
ATOM      6  N   UNL     1      -0.324  11.071  21.779  0.00  0.00    +0.000 NA
ATOM      7  C   UNL     1       0.721  12.009  21.264  0.00  0.00    +0.000 C 
ATOM      8  C   UNL     1       0.230  13.425  20.965  0.00  0.00    +0.000 C 
ATOM      9  C   UNL     1      -1.204  13.610  20.438  0.00  0.00    +0.000 C 
ENDROOT
BRANCH   9  10
ATOM     10  C   UNL     1      -1.656  12.649  19.348  0.00  0.00    +0.000 A 
ATOM     11  C   UNL     1      -2.699  11.736  19.312  0.00  0.00    +0.000 A 
ATOM     12  C   UNL     1      -2.727  10.962  18.115  0.00  0.00    +0.000 A 
ATOM     13  C   UNL     1      -1.736  11.330  17.241  0.00  0.00    +0.000 A 
ATOM     14  S   UNL     1      -0.894  12.702  17.793  0.00  0.00    +0.000 S 
ENDBRANCH   9  10
BRANCH   6  15
ATOM     15  S   UNL     1       0.328   9.472  21.914  0.00  0.00    +0.000 S 
ATOM     16  O   UNL     1       1.386   9.476  22.895  0.00  0.00    +0.000 OA
ATOM     17  O   UNL     1      -0.825   8.607  22.082  0.00  0.00    +0.000 OA
BRANCH  15  18
ATOM     18  C   UNL     1       1.035   9.094  20.356  0.00  0.00    +0.000 A 
ATOM     19  C   UNL     1       1.032  10.069  19.329  0.00  0.00    +0.000 A 
ATOM     20  C   UNL     1       1.605   9.854  18.056  0.00  0.00    +0.000 A 
ATOM     21  C   UNL     1       2.230   8.650  17.698  0.00  0.00    +0.000 A 
ATOM     22  C   UNL     1       2.255   7.638  18.685  0.00  0.00    +0.000 A 
ATOM     23  N   UNL     1       2.812   6.427  18.539  0.00  0.00    +0.000 NA
ATOM     24  S   UNL     1       2.563   5.621  19.963  0.00  0.00    +0.000 S 
ATOM     25  N   UNL     1       1.777   6.785  20.843  0.00  0.00    +0.000 NA
ATOM     26  C   UNL     1       1.639   7.857  20.050  0.00  0.00    +0.000 A 
ENDBRANCH  15  18
ENDBRANCH   6  15
TORSDOF 3
ENDMDL
MODEL 2
REMARK VINA RESULT:      -6.1      2.689      3.655
REMARK  Name = 
REMARK  3 active torsions:
REMARK  status: ('A' for Active; 'I' for Inactive)
REMARK    1  A    between atoms: N_6  and  S_7
REMARK    2  A    between atoms: S_7  and  C_10
REMARK    3  A    between atoms: C_21  and  C_22
REMARK                            x       y       z     vdW  Elec       q    Type
REMARK                         _______ _______ _______ _____ _____    ______ ____
ROOT
ATOM      1  O   UNL     1      -5.463  12.365  22.854  0.00  0.00    +0.000 OA
ATOM      2  S   UNL     1      -4.551  13.494  22.790  0.00  0.00    +0.000 S 
ATOM      3  O   UNL     1      -4.781  14.606  23.698  0.00  0.00    +0.000 OA
ATOM      4  C   UNL     1      -2.926  12.885  23.148  0.00  0.00    +0.000 C 
ATOM      5  C   UNL     1      -1.857  13.944  22.965  0.00  0.00    +0.000 C 
ATOM      6  N   UNL     1      -1.538  14.073  21.519  0.00  0.00    +0.000 NA
ATOM      7  C   UNL     1      -2.139  15.284  20.881  0.00  0.00    +0.000 C 
ATOM      8  C   UNL     1      -3.651  15.425  21.054  0.00  0.00    +0.000 C 
ATOM      9  C   UNL     1      -4.509  14.147  21.090  0.00  0.00    +0.000 C 
ENDROOT
BRANCH   9  10
ATOM     10  C   UNL     1      -4.189  13.086  20.047  0.00  0.00    +0.000 A 
ATOM     11  C   UNL     1      -3.050  12.322  19.843  0.00  0.00    +0.000 A 
ATOM     12  C   UNL     1      -3.130  11.491  18.687  0.00  0.00    +0.000 A 
ATOM     13  C   UNL     1      -4.344  11.600  18.058  0.00  0.00    +0.000 A 
ATOM     14  S   UNL     1      -5.426  12.566  18.950  0.00  0.00    +0.000 S 
ENDBRANCH   9  10
BRANCH   6  15
ATOM     15  S   UNL     1       0.139  13.955  21.105  0.00  0.00    +0.000 S 
ATOM     16  O   UNL     1       0.423  14.866  20.023  0.00  0.00    +0.000 OA
ATOM     17  O   UNL     1       0.849  14.070  22.366  0.00  0.00    +0.000 OA
BRANCH  15  18
ATOM     18  C   UNL     1       0.389  12.322  20.517  0.00  0.00    +0.000 A 
ATOM     19  C   UNL     1       0.753  12.112  19.166  0.00  0.00    +0.000 A 
ATOM     20  C   UNL     1       0.999  10.832  18.621  0.00  0.00    +0.000 A 
ATOM     21  C   UNL     1       0.903   9.654  19.377  0.00  0.00    +0.000 A 
ATOM     22  C   UNL     1       0.536   9.806  20.733  0.00  0.00    +0.000 A 
ATOM     23  N   UNL     1       0.402   8.807  21.616  0.00  0.00    +0.000 NA
ATOM     24  S   UNL     1      -0.051   9.503  23.049  0.00  0.00    +0.000 S 
ATOM     25  N   UNL     1      -0.057  11.105  22.624  0.00  0.00    +0.000 NA
ATOM     26  C   UNL     1       0.265  11.173  21.325  0.00  0.00    +0.000 A 
ENDBRANCH  15  18
ENDBRANCH   6  15
TORSDOF 3
ENDMDL
MODEL 3
REMARK VINA RESULT:      -6.1      3.364      6.017
REMARK  Name = 
REMARK  3 active torsions:
REMARK  status: ('A' for Active; 'I' for Inactive)
REMARK    1  A    between atoms: N_6  and  S_7
REMARK    2  A    between atoms: S_7  and  C_10
REMARK    3  A    between atoms: C_21  and  C_22
REMARK                            x       y       z     vdW  Elec       q    Type
REMARK                         _______ _______ _______ _____ _____    ______ ____
ROOT
ATOM      1  O   UNL     1       2.366  13.860  17.968  0.00  0.00    +0.000 OA
ATOM      2  S   UNL     1       1.640  14.398  19.106  0.00  0.00    +0.000 S 
ATOM      3  O   UNL     1       2.050  15.694  19.623  0.00  0.00    +0.000 OA
ATOM      4  C   UNL     1      -0.055  14.569  18.621  0.00  0.00    +0.000 C 
ATOM      5  C   UNL     1      -0.949  14.984  19.773  0.00  0.00    +0.000 C 
ATOM      6  N   UNL     1      -1.261  13.792  20.604  0.00  0.00    +0.000 NA
ATOM      7  C   UNL     1      -0.486  13.735  21.882  0.00  0.00    +0.000 C 
ATOM      8  C   UNL     1       1.031  13.828  21.724  0.00  0.00    +0.000 C 
ATOM      9  C   UNL     1       1.680  13.200  20.477  0.00  0.00    +0.000 C 
ENDROOT
BRANCH   9  10
ATOM     10  C   UNL     1       1.187  11.816  20.080  0.00  0.00    +0.000 A 
ATOM     11  C   UNL     1       1.114  11.196  18.841  0.00  0.00    +0.000 A 
ATOM     12  C   UNL     1       0.505   9.908  18.893  0.00  0.00    +0.000 A 
ATOM     13  C   UNL     1       0.167   9.550  20.174  0.00  0.00    +0.000 A 
ATOM     14  S   UNL     1       0.734  10.683  21.310  0.00  0.00    +0.000 S 
ENDBRANCH   9  10
BRANCH   6  15
ATOM     15  S   UNL     1      -2.941  13.510  20.916  0.00  0.00    +0.000 S 
ATOM     16  O   UNL     1      -3.077  12.816  22.173  0.00  0.00    +0.000 OA
ATOM     17  O   UNL     1      -3.583  14.796  20.715  0.00  0.00    +0.000 OA
BRANCH  15  18
ATOM     18  C   UNL     1      -3.508  12.445  19.645  0.00  0.00    +0.000 A 
ATOM     19  C   UNL     1      -2.571  11.780  18.818  0.00  0.00    +0.000 A 
ATOM     20  C   UNL     1      -2.944  10.885  17.790  0.00  0.00    +0.000 A 
ATOM     21  C   UNL     1      -4.282  10.578  17.500  0.00  0.00    +0.000 A 
ATOM     22  C   UNL     1      -5.260  11.220  18.293  0.00  0.00    +0.000 A 
ATOM     23  N   UNL     1      -6.585  11.050  18.177  0.00  0.00    +0.000 NA
ATOM     24  S   UNL     1      -7.285  12.027  19.315  0.00  0.00    +0.000 S 
ATOM     25  N   UNL     1      -5.940  12.677  20.033  0.00  0.00    +0.000 NA
ATOM     26  C   UNL     1      -4.871  12.185  19.392  0.00  0.00    +0.000 A 
ENDBRANCH  15  18
ENDBRANCH   6  15
TORSDOF 3
ENDMDL
MODEL 4
REMARK VINA RESULT:      -6.1      4.039      6.908
REMARK  Name = 
REMARK  3 active torsions:
REMARK  status: ('A' for Active; 'I' for Inactive)
REMARK    1  A    between atoms: N_6  and  S_7
REMARK    2  A    between atoms: S_7  and  C_10
REMARK    3  A    between atoms: C_21  and  C_22
REMARK                            x       y       z     vdW  Elec       q    Type
REMARK                         _______ _______ _______ _____ _____    ______ ____
ROOT
ATOM      1  O   UNL     1      -2.792  11.628  18.527  0.00  0.00    +0.000 OA
ATOM      2  S   UNL     1      -1.353  11.539  18.708  0.00  0.00    +0.000 S 
ATOM      3  O   UNL     1      -0.642  10.489  17.996  0.00  0.00    +0.000 OA
ATOM      4  C   UNL     1      -0.654  13.073  18.163  0.00  0.00    +0.000 C 
ATOM      5  C   UNL     1       0.834  13.164  18.440  0.00  0.00    +0.000 C 
ATOM      6  N   UNL     1       1.044  13.523  19.867  0.00  0.00    +0.000 NA
ATOM      7  C   UNL     1       1.464  12.368  20.719  0.00  0.00    +0.000 C 
ATOM      8  C   UNL     1       0.541  11.151  20.661  0.00  0.00    +0.000 C 
ATOM      9  C   UNL     1      -0.971  11.383  20.482  0.00  0.00    +0.000 C 
ENDROOT
BRANCH   9  10
ATOM     10  C   UNL     1      -1.593  12.484  21.329  0.00  0.00    +0.000 A 
ATOM     11  C   UNL     1      -2.362  13.582  20.975  0.00  0.00    +0.000 A 
ATOM     12  C   UNL     1      -2.680  14.425  22.080  0.00  0.00    +0.000 A 
ATOM     13  C   UNL     1      -2.190  13.931  23.262  0.00  0.00    +0.000 A 
ATOM     14  S   UNL     1      -1.502  12.388  23.057  0.00  0.00    +0.000 S 
ENDBRANCH   9  10
BRANCH   6  15
ATOM     15  S   UNL     1       2.081  14.880  20.156  0.00  0.00    +0.000 S 
ATOM     16  O   UNL     1       1.817  15.402  21.475  0.00  0.00    +0.000 OA
ATOM     17  O   UNL     1       3.411  14.421  19.802  0.00  0.00    +0.000 OA
BRANCH  15  18
ATOM     18  C   UNL     1       1.628  16.105  18.988  0.00  0.00    +0.000 A 
ATOM     19  C   UNL     1       2.554  16.502  17.994  0.00  0.00    +0.000 A 
ATOM     20  C   UNL     1       2.259  17.462  17.000  0.00  0.00    +0.000 A 
ATOM     21  C   UNL     1       1.016  18.107  16.913  0.00  0.00    +0.000 A 
ATOM     22  C   UNL     1       0.055  17.752  17.887  0.00  0.00    +0.000 A 
ATOM     23  N   UNL     1      -1.189  18.247  17.964  0.00  0.00    +0.000 NA
ATOM     24  S   UNL     1      -1.901  17.527  19.274  0.00  0.00    +0.000 S 
ATOM     25  N   UNL     1      -0.680  16.525  19.776  0.00  0.00    +0.000 NA
ATOM     26  C   UNL     1       0.363  16.729  18.959  0.00  0.00    +0.000 A 
ENDBRANCH  15  18
ENDBRANCH   6  15
TORSDOF 3
ENDMDL
MODEL 5
REMARK VINA RESULT:      -6.0      1.709      3.070
REMARK  Name = 
REMARK  3 active torsions:
REMARK  status: ('A' for Active; 'I' for Inactive)
REMARK    1  A    between atoms: N_6  and  S_7
REMARK    2  A    between atoms: S_7  and  C_10
REMARK    3  A    between atoms: C_21  and  C_22
REMARK                            x       y       z     vdW  Elec       q    Type
REMARK                         _______ _______ _______ _____ _____    ______ ____
ROOT
ATOM      1  O   UNL     1      -0.392  15.024  19.944  0.00  0.00    +0.000 OA
ATOM      2  S   UNL     1      -0.304  13.714  19.322  0.00  0.00    +0.000 S 
ATOM      3  O   UNL     1      -0.030  13.657  17.895  0.00  0.00    +0.000 OA
ATOM      4  C   UNL     1       1.014  12.837  20.118  0.00  0.00    +0.000 C 
ATOM      5  C   UNL     1       1.112  11.396  19.658  0.00  0.00    +0.000 C 
ATOM      6  N   UNL     1       0.086  10.586  20.366  0.00  0.00    +0.000 NA
ATOM      7  C   UNL     1      -1.100  10.251  19.518  0.00  0.00    +0.000 C 
ATOM      8  C   UNL     1      -1.795  11.450  18.873  0.00  0.00    +0.000 C 
ATOM      9  C   UNL     1      -1.834  12.780  19.647  0.00  0.00    +0.000 C 
ENDROOT
BRANCH   9  10
ATOM     10  C   UNL     1      -2.183  12.695  21.126  0.00  0.00    +0.000 A 
ATOM     11  C   UNL     1      -1.378  12.720  22.255  0.00  0.00    +0.000 A 
ATOM     12  C   UNL     1      -2.105  12.528  23.466  0.00  0.00    +0.000 A 
ATOM     13  C   UNL     1      -3.453  12.408  23.244  0.00  0.00    +0.000 A 
ATOM     14  S   UNL     1      -3.846  12.693  21.613  0.00  0.00    +0.000 S 
ENDBRANCH   9  10
BRANCH   6  15
ATOM     15  S   UNL     1       0.668   9.162  21.161  0.00  0.00    +0.000 S 
ATOM     16  O   UNL     1       1.608   9.544  22.186  0.00  0.00    +0.000 OA
ATOM     17  O   UNL     1      -0.524   8.407  21.504  0.00  0.00    +0.000 OA
BRANCH  15  18
ATOM     18  C   UNL     1       1.533   8.239  19.949  0.00  0.00    +0.000 A 
ATOM     19  C   UNL     1       1.961   8.873  18.758  0.00  0.00    +0.000 A 
ATOM     20  C   UNL     1       2.687   8.208  17.744  0.00  0.00    +0.000 A 
ATOM     21  C   UNL     1       3.048   6.855  17.833  0.00  0.00    +0.000 A 
ATOM     22  C   UNL     1       2.640   6.171  19.000  0.00  0.00    +0.000 A 
ATOM     23  N   UNL     1       2.896   4.883  19.273  0.00  0.00    +0.000 NA
ATOM     24  S   UNL     1       2.197   4.566  20.740  0.00  0.00    +0.000 S 
ATOM     25  N   UNL     1       1.576   6.056  21.114  0.00  0.00    +0.000 NA
ATOM     26  C   UNL     1       1.857   6.873  20.089  0.00  0.00    +0.000 A 
ENDBRANCH  15  18
ENDBRANCH   6  15
TORSDOF 3
ENDMDL
MODEL 6
REMARK VINA RESULT:      -5.9      3.577      6.533
REMARK  Name = 
REMARK  3 active torsions:
REMARK  status: ('A' for Active; 'I' for Inactive)
REMARK    1  A    between atoms: N_6  and  S_7
REMARK    2  A    between atoms: S_7  and  C_10
REMARK    3  A    between atoms: C_21  and  C_22
REMARK                            x       y       z     vdW  Elec       q    Type
REMARK                         _______ _______ _______ _____ _____    ______ ____
ROOT
ATOM      1  O   UNL     1       1.130  13.302  18.987  0.00  0.00    +0.000 OA
ATOM      2  S   UNL     1       0.903  12.895  20.363  0.00  0.00    +0.000 S 
ATOM      3  O   UNL     1       2.062  12.754  21.231  0.00  0.00    +0.000 OA
ATOM      4  C   UNL     1      -0.137  14.117  21.114  0.00  0.00    +0.000 C 
ATOM      5  C   UNL     1      -0.570  13.729  22.514  0.00  0.00    +0.000 C 
ATOM      6  N   UNL     1      -1.696  12.762  22.427  0.00  0.00    +0.000 NA
ATOM      7  C   UNL     1      -1.291  11.348  22.700  0.00  0.00    +0.000 C 
ATOM      8  C   UNL     1      -0.140  10.826  21.841  0.00  0.00    +0.000 C 
ATOM      9  C   UNL     1      -0.022  11.325  20.389  0.00  0.00    +0.000 C 
ENDROOT
BRANCH   9  10
ATOM     10  C   UNL     1      -1.310  11.374  19.581  0.00  0.00    +0.000 A 
ATOM     11  C   UNL     1      -2.357  12.284  19.588  0.00  0.00    +0.000 A 
ATOM     12  C   UNL     1      -3.428  11.914  18.724  0.00  0.00    +0.000 A 
ATOM     13  C   UNL     1      -3.161  10.756  18.039  0.00  0.00    +0.000 A 
ATOM     14  S   UNL     1      -1.569  10.220  18.314  0.00  0.00    +0.000 S 
ENDBRANCH   9  10
BRANCH   6  15
ATOM     15  S   UNL     1      -3.106  13.163  23.347  0.00  0.00    +0.000 S 
ATOM     16  O   UNL     1      -3.742  11.946  23.790  0.00  0.00    +0.000 OA
ATOM     17  O   UNL     1      -2.659  14.150  24.313  0.00  0.00    +0.000 OA
BRANCH  15  18
ATOM     18  C   UNL     1      -4.200  13.976  22.245  0.00  0.00    +0.000 A 
ATOM     19  C   UNL     1      -3.977  15.333  21.910  0.00  0.00    +0.000 A 
ATOM     20  C   UNL     1      -4.795  16.052  21.010  0.00  0.00    +0.000 A 
ATOM     21  C   UNL     1      -5.903  15.480  20.368  0.00  0.00    +0.000 A 
ATOM     22  C   UNL     1      -6.176  14.127  20.673  0.00  0.00    +0.000 A 
ATOM     23  N   UNL     1      -7.180  13.404  20.156  0.00  0.00    +0.000 NA
ATOM     24  S   UNL     1      -7.073  11.898  20.837  0.00  0.00    +0.000 S 
ATOM     25  N   UNL     1      -5.726  12.083  21.784  0.00  0.00    +0.000 NA
ATOM     26  C   UNL     1      -5.309  13.349  21.640  0.00  0.00    +0.000 A 
ENDBRANCH  15  18
ENDBRANCH   6  15
TORSDOF 3
ENDMDL
MODEL 7
REMARK VINA RESULT:      -5.9      2.804      4.240
REMARK  Name = 
REMARK  3 active torsions:
REMARK  status: ('A' for Active; 'I' for Inactive)
REMARK    1  A    between atoms: N_6  and  S_7
REMARK    2  A    between atoms: S_7  and  C_10
REMARK    3  A    between atoms: C_21  and  C_22
REMARK                            x       y       z     vdW  Elec       q    Type
REMARK                         _______ _______ _______ _____ _____    ______ ____
ROOT
ATOM      1  O   UNL     1      -4.965  12.227  24.400  0.00  0.00    +0.000 OA
ATOM      2  S   UNL     1      -3.985  13.287  24.231  0.00  0.00    +0.000 S 
ATOM      3  O   UNL     1      -3.561  14.016  25.416  0.00  0.00    +0.000 OA
ATOM      4  C   UNL     1      -2.524  12.554  23.548  0.00  0.00    +0.000 C 
ATOM      5  C   UNL     1      -1.474  13.585  23.185  0.00  0.00    +0.000 C 
ATOM      6  N   UNL     1      -1.827  14.205  21.880  0.00  0.00    +0.000 NA
ATOM      7  C   UNL     1      -2.409  15.576  22.009  0.00  0.00    +0.000 C 
ATOM      8  C   UNL     1      -3.621  15.682  22.935  0.00  0.00    +0.000 C 
ATOM      9  C   UNL     1      -4.594  14.492  23.009  0.00  0.00    +0.000 C 
ENDROOT
BRANCH   9  10
ATOM     10  C   UNL     1      -4.991  13.856  21.685  0.00  0.00    +0.000 A 
ATOM     11  C   UNL     1      -4.708  12.607  21.153  0.00  0.00    +0.000 A 
ATOM     12  C   UNL     1      -5.208  12.434  19.829  0.00  0.00    +0.000 A 
ATOM     13  C   UNL     1      -5.902  13.534  19.393  0.00  0.00    +0.000 A 
ATOM     14  S   UNL     1      -6.087  14.687  20.631  0.00  0.00    +0.000 S 
ENDBRANCH   9  10
BRANCH   6  15
ATOM     15  S   UNL     1      -0.577  14.201  20.682  0.00  0.00    +0.000 S 
ATOM     16  O   UNL     1      -0.863  15.217  19.699  0.00  0.00    +0.000 OA
ATOM     17  O   UNL     1       0.666  14.236  21.432  0.00  0.00    +0.000 OA
BRANCH  15  18
ATOM     18  C   UNL     1      -0.658  12.640  19.889  0.00  0.00    +0.000 A 
ATOM     19  C   UNL     1      -1.296  12.526  18.631  0.00  0.00    +0.000 A 
ATOM     20  C   UNL     1      -1.381  11.312  17.913  0.00  0.00    +0.000 A 
ATOM     21  C   UNL     1      -0.837  10.110  18.389  0.00  0.00    +0.000 A 
ATOM     22  C   UNL     1      -0.192  10.166  19.646  0.00  0.00    +0.000 A 
ATOM     23  N   UNL     1       0.396   9.130  20.261  0.00  0.00    +0.000 NA
ATOM     24  S   UNL     1       0.984   9.710  21.697  0.00  0.00    +0.000 S 
ATOM     25  N   UNL     1       0.556  11.307  21.583  0.00  0.00    +0.000 NA
ATOM     26  C   UNL     1      -0.101  11.461  20.425  0.00  0.00    +0.000 A 
ENDBRANCH  15  18
ENDBRANCH   6  15
TORSDOF 3
ENDMDL
MODEL 8
REMARK VINA RESULT:      -5.9      3.597      4.964
REMARK  Name = 
REMARK  3 active torsions:
REMARK  status: ('A' for Active; 'I' for Inactive)
REMARK    1  A    between atoms: N_6  and  S_7
REMARK    2  A    between atoms: S_7  and  C_10
REMARK    3  A    between atoms: C_21  and  C_22
REMARK                            x       y       z     vdW  Elec       q    Type
REMARK                         _______ _______ _______ _____ _____    ______ ____
ROOT
ATOM      1  O   UNL     1       3.213  17.134  20.923  0.00  0.00    +0.000 OA
ATOM      2  S   UNL     1       3.119  15.760  20.459  0.00  0.00    +0.000 S 
ATOM      3  O   UNL     1       4.291  14.911  20.604  0.00  0.00    +0.000 OA
ATOM      4  C   UNL     1       1.822  14.978  21.378  0.00  0.00    +0.000 C 
ATOM      5  C   UNL     1       1.522  13.577  20.883  0.00  0.00    +0.000 C 
ATOM      6  N   UNL     1       0.671  13.660  19.667  0.00  0.00    +0.000 NA
ATOM      7  C   UNL     1       1.419  13.411  18.396  0.00  0.00    +0.000 C 
ATOM      8  C   UNL     1       2.648  14.294  18.183  0.00  0.00    +0.000 C 
ATOM      9  C   UNL     1       2.613  15.740  18.709  0.00  0.00    +0.000 C 
ENDROOT
BRANCH   9  10
ATOM     10  C   UNL     1       1.339  16.529  18.443  0.00  0.00    +0.000 A 
ATOM     11  C   UNL     1       0.103  16.501  19.071  0.00  0.00    +0.000 A 
ATOM     12  C   UNL     1      -0.860  17.352  18.452  0.00  0.00    +0.000 A 
ATOM     13  C   UNL     1      -0.329  18.046  17.395  0.00  0.00    +0.000 A 
ATOM     14  S   UNL     1       1.350  17.797  17.263  0.00  0.00    +0.000 S 
ENDBRANCH   9  10
BRANCH   6  15
ATOM     15  S   UNL     1      -0.779  12.714  19.697  0.00  0.00    +0.000 S 
ATOM     16  O   UNL     1      -1.866  13.533  20.174  0.00  0.00    +0.000 OA
ATOM     17  O   UNL     1      -0.850  12.090  18.388  0.00  0.00    +0.000 OA
BRANCH  15  18
ATOM     18  C   UNL     1      -0.510  11.436  20.866  0.00  0.00    +0.000 A 
ATOM     19  C   UNL     1      -1.104  11.522  22.148  0.00  0.00    +0.000 A 
ATOM     20  C   UNL     1      -0.960  10.523  23.136  0.00  0.00    +0.000 A 
ATOM     21  C   UNL     1      -0.212   9.354  22.931  0.00  0.00    +0.000 A 
ATOM     22  C   UNL     1       0.410   9.220  21.668  0.00  0.00    +0.000 A 
ATOM     23  N   UNL     1       1.155   8.176  21.279  0.00  0.00    +0.000 NA
ATOM     24  S   UNL     1       1.657   8.507  19.736  0.00  0.00    +0.000 S 
ATOM     25  N   UNL     1       0.919   9.968  19.479  0.00  0.00    +0.000 NA
ATOM     26  C   UNL     1       0.266  10.288  20.604  0.00  0.00    +0.000 A 
ENDBRANCH  15  18
ENDBRANCH   6  15
TORSDOF 3
ENDMDL
MODEL 9
REMARK VINA RESULT:      -5.9      8.874     11.108
REMARK  Name = 
REMARK  3 active torsions:
REMARK  status: ('A' for Active; 'I' for Inactive)
REMARK    1  A    between atoms: N_6  and  S_7
REMARK    2  A    between atoms: S_7  and  C_10
REMARK    3  A    between atoms: C_21  and  C_22
REMARK                            x       y       z     vdW  Elec       q    Type
REMARK                         _______ _______ _______ _____ _____    ______ ____
ROOT
ATOM      1  O   UNL     1      11.733  12.536  19.883  0.00  0.00    +0.000 OA
ATOM      2  S   UNL     1      10.994  13.181  18.811  0.00  0.00    +0.000 S 
ATOM      3  O   UNL     1      11.314  12.805  17.443  0.00  0.00    +0.000 OA
ATOM      4  C   UNL     1       9.280  12.799  19.045  0.00  0.00    +0.000 C 
ATOM      5  C   UNL     1       8.383  13.539  18.072  0.00  0.00    +0.000 C 
ATOM      6  N   UNL     1       8.184  14.931  18.552  0.00  0.00    +0.000 NA
ATOM      7  C   UNL     1       8.990  15.943  17.802  0.00  0.00    +0.000 C 
ATOM      8  C   UNL     1      10.492  15.663  17.746  0.00  0.00    +0.000 C 
ATOM      9  C   UNL     1      11.159  14.989  18.959  0.00  0.00    +0.000 C 
ENDROOT
BRANCH   9  10
ATOM     10  C   UNL     1      10.766  15.517  20.331  0.00  0.00    +0.000 A 
ATOM     11  C   UNL     1      10.453  14.854  21.507  0.00  0.00    +0.000 A 
ATOM     12  C   UNL     1      10.055  15.731  22.558  0.00  0.00    +0.000 A 
ATOM     13  C   UNL     1      10.116  17.048  22.179  0.00  0.00    +0.000 A 
ATOM     14  S   UNL     1      10.806  17.223  20.633  0.00  0.00    +0.000 S 
ENDBRANCH   9  10
BRANCH   6  15
ATOM     15  S   UNL     1       6.539  15.457  18.676  0.00  0.00    +0.000 S 
ATOM     16  O   UNL     1       6.497  16.897  18.591  0.00  0.00    +0.000 OA
ATOM     17  O   UNL     1       5.810  14.645  17.719  0.00  0.00    +0.000 OA
BRANCH  15  18
ATOM     18  C   UNL     1       5.990  14.992  20.274  0.00  0.00    +0.000 A 
ATOM     19  C   UNL     1       6.931  14.558  21.239  0.00  0.00    +0.000 A 
ATOM     20  C   UNL     1       6.575  14.192  22.556  0.00  0.00    +0.000 A 
ATOM     21  C   UNL     1       5.252  14.228  23.023  0.00  0.00    +0.000 A 
ATOM     22  C   UNL     1       4.271  14.648  22.097  0.00  0.00    +0.000 A 
ATOM     23  N   UNL     1       2.959  14.758  22.354  0.00  0.00    +0.000 NA
ATOM     24  S   UNL     1       2.246  15.270  20.950  0.00  0.00    +0.000 S 
ATOM     25  N   UNL     1       3.572  15.416  19.967  0.00  0.00    +0.000 NA
ATOM     26  C   UNL     1       4.641  15.037  20.681  0.00  0.00    +0.000 A 
ENDBRANCH  15  18
ENDBRANCH   6  15
TORSDOF 3
ENDMDL
