MODEL 1
REMARK VINA RESULT:      -8.4      0.000      0.000
REMARK  Name = 
REMARK  3 active torsions:
REMARK  status: ('A' for Active; 'I' for Inactive)
REMARK    1  A    between atoms: C_3  and  N_4
REMARK    2  A    between atoms: C_12  and  C_13
REMARK    3  A    between atoms: C_16  and  C_17
REMARK                            x       y       z     vdW  Elec       q    Type
REMARK                         _______ _______ _______ _____ _____    ______ ____
ROOT
ATOM      1  O   UNL     1       3.314   3.856  19.296  0.00  0.00    +0.000 OA
ATOM      2  C   UNL     1       3.422   5.000  18.873  0.00  0.00    +0.000 C 
ATOM      3  C   UNL     1       4.370   5.358  17.762  0.00  0.00    +0.000 C 
ATOM      4  C   UNL     1       4.244   6.574  17.204  0.00  0.00    +0.000 C 
ATOM      5  C   UNL     1       3.267   7.599  17.667  0.00  0.00    +0.000 C 
ATOM      6  O   UNL     1       3.143   8.641  17.037  0.00  0.00    +0.000 OA
ATOM      7  C   UNL     1       2.507   7.304  18.912  0.00  0.00    +0.000 A 
ATOM      8  N   UNL     1       1.759   8.308  19.460  0.00  0.00    +0.000 NA
ATOM      9  C   UNL     1       1.099   8.041  20.622  0.00  0.00    +0.000 A 
ATOM     10  C   UNL     1       1.145   6.781  21.220  0.00  0.00    +0.000 A 
ATOM     11  C   UNL     1       1.906   5.777  20.639  0.00  0.00    +0.000 A 
ATOM     12  C   UNL     1       2.604   6.049  19.469  0.00  0.00    +0.000 A 
ENDROOT
BRANCH   9  13
ATOM     13  C   UNL     1       0.354   9.149  21.251  0.00  0.00    +0.000 A 
ATOM     14  C   UNL     1      -0.045  10.281  20.530  0.00  0.00    +0.000 A 
ATOM     15  C   UNL     1      -0.764  11.323  21.145  0.00  0.00    +0.000 A 
ATOM     16  C   UNL     1      -1.115  11.276  22.505  0.00  0.00    +0.000 A 
ATOM     17  C   UNL     1      -0.722  10.133  23.216  0.00  0.00    +0.000 A 
ATOM     18  C   UNL     1       0.005   9.104  22.610  0.00  0.00    +0.000 A 
BRANCH  16  19
ATOM     19  C   UNL     1      -1.864  12.367  23.177  0.00  0.00    +0.000 A 
ATOM     20  C   UNL     1      -3.182  12.196  23.632  0.00  0.00    +0.000 A 
ATOM     21  C   UNL     1      -3.864  13.220  24.299  0.00  0.00    +0.000 A 
ATOM     22  C   UNL     1      -3.238  14.441  24.535  0.00  0.00    +0.000 A 
ATOM     23  C   UNL     1      -1.940  14.644  24.088  0.00  0.00    +0.000 A 
ATOM     24  C   UNL     1      -1.268  13.624  23.408  0.00  0.00    +0.000 A 
ENDBRANCH  16  19
ENDBRANCH   9  13
BRANCH   3  25
ATOM     25  N   UNL     1       5.251   4.322  17.494  0.00  0.00    +0.000 N 
ATOM     26  C   UNL     1       5.689   4.081  16.123  0.00  0.00    +0.000 C 
ATOM     27  C   UNL     1       6.655   4.538  17.178  0.00  0.00    +0.000 C 
ENDBRANCH   3  25
TORSDOF 3
ENDMDL
MODEL 2
REMARK VINA RESULT:      -8.3      0.188      1.317
REMARK  Name = 
REMARK  3 active torsions:
REMARK  status: ('A' for Active; 'I' for Inactive)
REMARK    1  A    between atoms: C_3  and  N_4
REMARK    2  A    between atoms: C_12  and  C_13
REMARK    3  A    between atoms: C_16  and  C_17
REMARK                            x       y       z     vdW  Elec       q    Type
REMARK                         _______ _______ _______ _____ _____    ______ ____
ROOT
ATOM      1  O   UNL     1       3.406   3.742  19.177  0.00  0.00    +0.000 OA
ATOM      2  C   UNL     1       3.508   4.895  18.775  0.00  0.00    +0.000 C 
ATOM      3  C   UNL     1       4.448   5.277  17.666  0.00  0.00    +0.000 C 
ATOM      4  C   UNL     1       4.315   6.503  17.132  0.00  0.00    +0.000 C 
ATOM      5  C   UNL     1       3.338   7.517  17.621  0.00  0.00    +0.000 C 
ATOM      6  O   UNL     1       3.208   8.570  17.012  0.00  0.00    +0.000 OA
ATOM      7  C   UNL     1       2.588   7.195  18.865  0.00  0.00    +0.000 A 
ATOM      8  N   UNL     1       1.841   8.187  19.438  0.00  0.00    +0.000 NA
ATOM      9  C   UNL     1       1.190   7.896  20.599  0.00  0.00    +0.000 A 
ATOM     10  C   UNL     1       1.243   6.624  21.172  0.00  0.00    +0.000 A 
ATOM     11  C   UNL     1       2.002   5.634  20.567  0.00  0.00    +0.000 A 
ATOM     12  C   UNL     1       2.692   5.930  19.398  0.00  0.00    +0.000 A 
ENDROOT
BRANCH   9  13
ATOM     13  C   UNL     1       0.447   8.989  21.254  0.00  0.00    +0.000 A 
ATOM     14  C   UNL     1       0.152   8.974  22.623  0.00  0.00    +0.000 A 
ATOM     15  C   UNL     1      -0.548  10.031  23.231  0.00  0.00    +0.000 A 
ATOM     16  C   UNL     1      -0.984  11.149  22.498  0.00  0.00    +0.000 A 
ATOM     17  C   UNL     1      -0.674  11.161  21.130  0.00  0.00    +0.000 A 
ATOM     18  C   UNL     1       0.009  10.105  20.521  0.00  0.00    +0.000 A 
BRANCH  16  19
ATOM     19  C   UNL     1      -1.734  12.270  23.116  0.00  0.00    +0.000 A 
ATOM     20  C   UNL     1      -1.161  13.541  23.296  0.00  0.00    +0.000 A 
ATOM     21  C   UNL     1      -1.891  14.601  23.844  0.00  0.00    +0.000 A 
ATOM     22  C   UNL     1      -3.219  14.418  24.220  0.00  0.00    +0.000 A 
ATOM     23  C   UNL     1      -3.810  13.171  24.065  0.00  0.00    +0.000 A 
ATOM     24  C   UNL     1      -3.072  12.110  23.531  0.00  0.00    +0.000 A 
ENDBRANCH  16  19
ENDBRANCH   9  13
BRANCH   3  25
ATOM     25  N   UNL     1       5.330   4.248  17.372  0.00  0.00    +0.000 N 
ATOM     26  C   UNL     1       5.661   3.955  15.981  0.00  0.00    +0.000 C 
ATOM     27  C   UNL     1       6.698   4.479  16.932  0.00  0.00    +0.000 C 
ENDBRANCH   3  25
TORSDOF 3
ENDMDL
MODEL 3
REMARK VINA RESULT:      -8.2      3.020      9.821
REMARK  Name = 
REMARK  3 active torsions:
REMARK  status: ('A' for Active; 'I' for Inactive)
REMARK    1  A    between atoms: C_3  and  N_4
REMARK    2  A    between atoms: C_12  and  C_13
REMARK    3  A    between atoms: C_16  and  C_17
REMARK                            x       y       z     vdW  Elec       q    Type
REMARK                         _______ _______ _______ _____ _____    ______ ____
ROOT
ATOM      1  O   UNL     1      -1.591  12.002  23.654  0.00  0.00    +0.000 OA
ATOM      2  C   UNL     1      -1.730  11.931  22.439  0.00  0.00    +0.000 C 
ATOM      3  C   UNL     1      -2.806  12.687  21.710  0.00  0.00    +0.000 C 
ATOM      4  C   UNL     1      -2.730  12.742  20.370  0.00  0.00    +0.000 C 
ATOM      5  C   UNL     1      -1.681  12.045  19.572  0.00  0.00    +0.000 C 
ATOM      6  O   UNL     1      -1.620  12.232  18.365  0.00  0.00    +0.000 OA
ATOM      7  C   UNL     1      -0.774  11.119  20.301  0.00  0.00    +0.000 A 
ATOM      8  N   UNL     1       0.058  10.323  19.564  0.00  0.00    +0.000 NA
ATOM      9  C   UNL     1       0.857   9.449  20.237  0.00  0.00    +0.000 A 
ATOM     10  C   UNL     1       0.865   9.386  21.632  0.00  0.00    +0.000 A 
ATOM     11  C   UNL     1       0.016  10.209  22.357  0.00  0.00    +0.000 A 
ATOM     12  C   UNL     1      -0.822  11.083  21.676  0.00  0.00    +0.000 A 
ENDROOT
BRANCH   9  13
ATOM     13  C   UNL     1       1.698   8.540  19.435  0.00  0.00    +0.000 A 
ATOM     14  C   UNL     1       2.148   8.878  18.153  0.00  0.00    +0.000 A 
ATOM     15  C   UNL     1       2.958   8.002  17.408  0.00  0.00    +0.000 A 
ATOM     16  C   UNL     1       3.354   6.751  17.913  0.00  0.00    +0.000 A 
ATOM     17  C   UNL     1       2.909   6.426  19.202  0.00  0.00    +0.000 A 
ATOM     18  C   UNL     1       2.092   7.289  19.938  0.00  0.00    +0.000 A 
BRANCH  16  19
ATOM     19  C   UNL     1       4.199   5.807  17.141  0.00  0.00    +0.000 A 
ATOM     20  C   UNL     1       4.123   4.416  17.327  0.00  0.00    +0.000 A 
ATOM     21  C   UNL     1       4.896   3.533  16.565  0.00  0.00    +0.000 A 
ATOM     22  C   UNL     1       5.761   4.022  15.590  0.00  0.00    +0.000 A 
ATOM     23  C   UNL     1       5.868   5.391  15.391  0.00  0.00    +0.000 A 
ATOM     24  C   UNL     1       5.104   6.270  16.165  0.00  0.00    +0.000 A 
ENDBRANCH  16  19
ENDBRANCH   9  13
BRANCH   3  25
ATOM     25  N   UNL     1      -3.735  13.222  22.590  0.00  0.00    +0.000 N 
ATOM     26  C   UNL     1      -3.524  14.557  23.140  0.00  0.00    +0.000 C 
ATOM     27  C   UNL     1      -4.670  14.271  22.213  0.00  0.00    +0.000 C 
ENDBRANCH   3  25
TORSDOF 3
ENDMDL
MODEL 4
REMARK VINA RESULT:      -8.2      2.898      9.805
REMARK  Name = 
REMARK  3 active torsions:
REMARK  status: ('A' for Active; 'I' for Inactive)
REMARK    1  A    between atoms: C_3  and  N_4
REMARK    2  A    between atoms: C_12  and  C_13
REMARK    3  A    between atoms: C_16  and  C_17
REMARK                            x       y       z     vdW  Elec       q    Type
REMARK                         _______ _______ _______ _____ _____    ______ ____
ROOT
ATOM      1  O   UNL     1      -1.676  10.940  23.482  0.00  0.00    +0.000 OA
ATOM      2  C   UNL     1      -1.388  11.271  22.338  0.00  0.00    +0.000 C 
ATOM      3  C   UNL     1      -1.952  12.506  21.694  0.00  0.00    +0.000 C 
ATOM      4  C   UNL     1      -1.396  12.917  20.541  0.00  0.00    +0.000 C 
ATOM      5  C   UNL     1      -0.304  12.182  19.842  0.00  0.00    +0.000 C 
ATOM      6  O   UNL     1       0.219  12.678  18.854  0.00  0.00    +0.000 OA
ATOM      7  C   UNL     1       0.070  10.846  20.379  0.00  0.00    +0.000 A 
ATOM      8  N   UNL     1       0.923  10.074  19.640  0.00  0.00    +0.000 NA
ATOM      9  C   UNL     1       1.228   8.835  20.118  0.00  0.00    +0.000 A 
ATOM     10  C   UNL     1       0.728   8.375  21.337  0.00  0.00    +0.000 A 
ATOM     11  C   UNL     1      -0.129   9.181  22.071  0.00  0.00    +0.000 A 
ATOM     12  C   UNL     1      -0.468  10.434  21.577  0.00  0.00    +0.000 A 
ENDROOT
BRANCH   9  13
ATOM     13  C   UNL     1       2.088   7.976  19.281  0.00  0.00    +0.000 A 
ATOM     14  C   UNL     1       2.436   6.674  19.662  0.00  0.00    +0.000 A 
ATOM     15  C   UNL     1       3.248   5.867  18.846  0.00  0.00    +0.000 A 
ATOM     16  C   UNL     1       3.746   6.325  17.613  0.00  0.00    +0.000 A 
ATOM     17  C   UNL     1       3.383   7.625  17.234  0.00  0.00    +0.000 A 
ATOM     18  C   UNL     1       2.588   8.434  18.051  0.00  0.00    +0.000 A 
BRANCH  16  19
ATOM     19  C   UNL     1       4.613   5.495  16.741  0.00  0.00    +0.000 A 
ATOM     20  C   UNL     1       4.756   4.110  16.934  0.00  0.00    +0.000 A 
ATOM     21  C   UNL     1       5.545   3.331  16.080  0.00  0.00    +0.000 A 
ATOM     22  C   UNL     1       6.206   3.919  15.005  0.00  0.00    +0.000 A 
ATOM     23  C   UNL     1       6.094   5.287  14.796  0.00  0.00    +0.000 A 
ATOM     24  C   UNL     1       5.316   6.063  15.659  0.00  0.00    +0.000 A 
ENDBRANCH  16  19
ENDBRANCH   9  13
BRANCH   3  25
ATOM     25  N   UNL     1      -2.997  13.033  22.437  0.00  0.00    +0.000 N 
ATOM     26  C   UNL     1      -3.774  14.148  21.905  0.00  0.00    +0.000 C 
ATOM     27  C   UNL     1      -4.396  12.797  22.114  0.00  0.00    +0.000 C 
ENDBRANCH   3  25
TORSDOF 3
ENDMDL
MODEL 5
REMARK VINA RESULT:      -8.1      3.298      9.927
REMARK  Name = 
REMARK  3 active torsions:
REMARK  status: ('A' for Active; 'I' for Inactive)
REMARK    1  A    between atoms: C_3  and  N_4
REMARK    2  A    between atoms: C_12  and  C_13
REMARK    3  A    between atoms: C_16  and  C_17
REMARK                            x       y       z     vdW  Elec       q    Type
REMARK                         _______ _______ _______ _____ _____    ______ ____
ROOT
ATOM      1  O   UNL     1      -2.010  13.135  23.017  0.00  0.00    +0.000 OA
ATOM      2  C   UNL     1      -2.286  12.675  21.916  0.00  0.00    +0.000 C 
ATOM      3  C   UNL     1      -3.566  13.012  21.204  0.00  0.00    +0.000 C 
ATOM      4  C   UNL     1      -3.672  12.661  19.911  0.00  0.00    +0.000 C 
ATOM      5  C   UNL     1      -2.622  11.903  19.172  0.00  0.00    +0.000 C 
ATOM      6  O   UNL     1      -2.749  11.716  17.970  0.00  0.00    +0.000 OA
ATOM      7  C   UNL     1      -1.475  11.382  19.962  0.00  0.00    +0.000 A 
ATOM      8  N   UNL     1      -0.611  10.520  19.346  0.00  0.00    +0.000 NA
ATOM      9  C   UNL     1       0.414  10.015  20.088  0.00  0.00    +0.000 A 
ATOM     10  C   UNL     1       0.610  10.387  21.419  0.00  0.00    +0.000 A 
ATOM     11  C   UNL     1      -0.278  11.268  22.019  0.00  0.00    +0.000 A 
ATOM     12  C   UNL     1      -1.341  11.766  21.277  0.00  0.00    +0.000 A 
ENDROOT
BRANCH   9  13
ATOM     13  C   UNL     1       1.300   9.028  19.442  0.00  0.00    +0.000 A 
ATOM     14  C   UNL     1       1.665   7.831  20.070  0.00  0.00    +0.000 A 
ATOM     15  C   UNL     1       2.503   6.897  19.433  0.00  0.00    +0.000 A 
ATOM     16  C   UNL     1       3.009   7.119  18.140  0.00  0.00    +0.000 A 
ATOM     17  C   UNL     1       2.628   8.314  17.514  0.00  0.00    +0.000 A 
ATOM     18  C   UNL     1       1.808   9.250  18.151  0.00  0.00    +0.000 A 
BRANCH  16  19
ATOM     19  C   UNL     1       3.902   6.153  17.454  0.00  0.00    +0.000 A 
ATOM     20  C   UNL     1       3.659   4.769  17.473  0.00  0.00    +0.000 A 
ATOM     21  C   UNL     1       4.486   3.872  16.789  0.00  0.00    +0.000 A 
ATOM     22  C   UNL     1       5.576   4.339  16.059  0.00  0.00    +0.000 A 
ATOM     23  C   UNL     1       5.849   5.700  16.030  0.00  0.00    +0.000 A 
ATOM     24  C   UNL     1       5.029   6.592  16.728  0.00  0.00    +0.000 A 
ENDBRANCH  16  19
ENDBRANCH   9  13
BRANCH   3  25
ATOM     25  N   UNL     1      -4.458  13.660  22.045  0.00  0.00    +0.000 N 
ATOM     26  C   UNL     1      -5.539  14.459  21.477  0.00  0.00    +0.000 C 
ATOM     27  C   UNL     1      -5.825  13.205  22.251  0.00  0.00    +0.000 C 
ENDBRANCH   3  25
TORSDOF 3
ENDMDL
MODEL 6
REMARK VINA RESULT:      -8.1      3.217      9.884
REMARK  Name = 
REMARK  3 active torsions:
REMARK  status: ('A' for Active; 'I' for Inactive)
REMARK    1  A    between atoms: C_3  and  N_4
REMARK    2  A    between atoms: C_12  and  C_13
REMARK    3  A    between atoms: C_16  and  C_17
REMARK                            x       y       z     vdW  Elec       q    Type
REMARK                         _______ _______ _______ _____ _____    ______ ____
ROOT
ATOM      1  O   UNL     1      -2.205  12.329  23.812  0.00  0.00    +0.000 OA
ATOM      2  C   UNL     1      -2.051  12.489  22.607  0.00  0.00    +0.000 C 
ATOM      3  C   UNL     1      -2.750  13.582  21.848  0.00  0.00    +0.000 C 
ATOM      4  C   UNL     1      -2.337  13.832  20.594  0.00  0.00    +0.000 C 
ATOM      5  C   UNL     1      -1.277  13.046  19.901  0.00  0.00    +0.000 C 
ATOM      6  O   UNL     1      -0.886  13.405  18.799  0.00  0.00    +0.000 OA
ATOM      7  C   UNL     1      -0.772  11.828  20.589  0.00  0.00    +0.000 A 
ATOM      8  N   UNL     1       0.048  10.989  19.888  0.00  0.00    +0.000 NA
ATOM      9  C   UNL     1       0.474   9.855  20.512  0.00  0.00    +0.000 A 
ATOM     10  C   UNL     1       0.126   9.569  21.833  0.00  0.00    +0.000 A 
ATOM     11  C   UNL     1      -0.702  10.441  22.525  0.00  0.00    +0.000 A 
ATOM     12  C   UNL     1      -1.162  11.585  21.887  0.00  0.00    +0.000 A 
ENDROOT
BRANCH   9  13
ATOM     13  C   UNL     1       1.297   8.915  19.727  0.00  0.00    +0.000 A 
ATOM     14  C   UNL     1       1.655   9.169  18.398  0.00  0.00    +0.000 A 
ATOM     15  C   UNL     1       2.449   8.265  17.669  0.00  0.00    +0.000 A 
ATOM     16  C   UNL     1       2.920   7.069  18.238  0.00  0.00    +0.000 A 
ATOM     17  C   UNL     1       2.567   6.828  19.574  0.00  0.00    +0.000 A 
ATOM     18  C   UNL     1       1.766   7.718  20.295  0.00  0.00    +0.000 A 
BRANCH  16  19
ATOM     19  C   UNL     1       3.750   6.096  17.486  0.00  0.00    +0.000 A 
ATOM     20  C   UNL     1       4.810   6.504  16.659  0.00  0.00    +0.000 A 
ATOM     21  C   UNL     1       5.610   5.574  15.985  0.00  0.00    +0.000 A 
ATOM     22  C   UNL     1       5.374   4.210  16.128  0.00  0.00    +0.000 A 
ATOM     23  C   UNL     1       4.326   3.776  16.929  0.00  0.00    +0.000 A 
ATOM     24  C   UNL     1       3.519   4.709  17.589  0.00  0.00    +0.000 A 
ENDBRANCH  16  19
ENDBRANCH   9  13
BRANCH   3  25
ATOM     25  N   UNL     1      -3.746  14.172  22.611  0.00  0.00    +0.000 N 
ATOM     26  C   UNL     1      -3.819  15.626  22.707  0.00  0.00    +0.000 C 
ATOM     27  C   UNL     1      -4.901  14.838  22.028  0.00  0.00    +0.000 C 
ENDBRANCH   3  25
TORSDOF 3
ENDMDL
MODEL 7
REMARK VINA RESULT:      -8.1      2.957      9.938
REMARK  Name = 
REMARK  3 active torsions:
REMARK  status: ('A' for Active; 'I' for Inactive)
REMARK    1  A    between atoms: C_3  and  N_4
REMARK    2  A    between atoms: C_12  and  C_13
REMARK    3  A    between atoms: C_16  and  C_17
REMARK                            x       y       z     vdW  Elec       q    Type
REMARK                         _______ _______ _______ _____ _____    ______ ____
ROOT
ATOM      1  O   UNL     1      -3.269  12.898  20.210  0.00  0.00    +0.000 OA
ATOM      2  C   UNL     1      -2.440  12.426  20.978  0.00  0.00    +0.000 C 
ATOM      3  C   UNL     1      -2.399  12.790  22.437  0.00  0.00    +0.000 C 
ATOM      4  C   UNL     1      -1.622  12.046  23.242  0.00  0.00    +0.000 C 
ATOM      5  C   UNL     1      -0.758  10.932  22.760  0.00  0.00    +0.000 C 
ATOM      6  O   UNL     1      -0.163  10.236  23.572  0.00  0.00    +0.000 OA
ATOM      7  C   UNL     1      -0.641  10.748  21.288  0.00  0.00    +0.000 A 
ATOM      8  N   UNL     1       0.296   9.868  20.824  0.00  0.00    +0.000 NA
ATOM      9  C   UNL     1       0.424   9.736  19.474  0.00  0.00    +0.000 A 
ATOM     10  C   UNL     1      -0.392  10.438  18.586  0.00  0.00    +0.000 A 
ATOM     11  C   UNL     1      -1.341  11.320  19.083  0.00  0.00    +0.000 A 
ATOM     12  C   UNL     1      -1.459  11.481  20.458  0.00  0.00    +0.000 A 
ENDROOT
BRANCH   9  13
ATOM     13  C   UNL     1       1.488   8.842  18.976  0.00  0.00    +0.000 A 
ATOM     14  C   UNL     1       2.138   9.066  17.756  0.00  0.00    +0.000 A 
ATOM     15  C   UNL     1       3.157   8.208  17.303  0.00  0.00    +0.000 A 
ATOM     16  C   UNL     1       3.570   7.090  18.051  0.00  0.00    +0.000 A 
ATOM     17  C   UNL     1       2.921   6.881  19.276  0.00  0.00    +0.000 A 
ATOM     18  C   UNL     1       1.899   7.724  19.721  0.00  0.00    +0.000 A 
BRANCH  16  19
ATOM     19  C   UNL     1       4.634   6.166  17.588  0.00  0.00    +0.000 A 
ATOM     20  C   UNL     1       4.978   6.046  16.230  0.00  0.00    +0.000 A 
ATOM     21  C   UNL     1       6.011   5.200  15.811  0.00  0.00    +0.000 A 
ATOM     22  C   UNL     1       6.732   4.458  16.742  0.00  0.00    +0.000 A 
ATOM     23  C   UNL     1       6.408   4.546  18.089  0.00  0.00    +0.000 A 
ATOM     24  C   UNL     1       5.365   5.381  18.502  0.00  0.00    +0.000 A 
ENDBRANCH  16  19
ENDBRANCH   9  13
BRANCH   3  25
ATOM     25  N   UNL     1      -3.209  13.881  22.710  0.00  0.00    +0.000 N 
ATOM     26  C   UNL     1      -3.764  14.053  24.048  0.00  0.00    +0.000 C 
ATOM     27  C   UNL     1      -2.762  15.023  23.493  0.00  0.00    +0.000 C 
ENDBRANCH   3  25
TORSDOF 3
ENDMDL
MODEL 8
REMARK VINA RESULT:      -8.1      2.995     10.006
REMARK  Name = 
REMARK  3 active torsions:
REMARK  status: ('A' for Active; 'I' for Inactive)
REMARK    1  A    between atoms: C_3  and  N_4
REMARK    2  A    between atoms: C_12  and  C_13
REMARK    3  A    between atoms: C_16  and  C_17
REMARK                            x       y       z     vdW  Elec       q    Type
REMARK                         _______ _______ _______ _____ _____    ______ ____
ROOT
ATOM      1  O   UNL     1      -3.325  13.062  20.230  0.00  0.00    +0.000 OA
ATOM      2  C   UNL     1      -2.497  12.590  21.000  0.00  0.00    +0.000 C 
ATOM      3  C   UNL     1      -2.436  12.982  22.450  0.00  0.00    +0.000 C 
ATOM      4  C   UNL     1      -1.665  12.240  23.264  0.00  0.00    +0.000 C 
ATOM      5  C   UNL     1      -0.824  11.102  22.795  0.00  0.00    +0.000 C 
ATOM      6  O   UNL     1      -0.234  10.412  23.615  0.00  0.00    +0.000 OA
ATOM      7  C   UNL     1      -0.725  10.888  21.326  0.00  0.00    +0.000 A 
ATOM      8  N   UNL     1       0.193   9.982  20.871  0.00  0.00    +0.000 NA
ATOM      9  C   UNL     1       0.306   9.822  19.523  0.00  0.00    +0.000 A 
ATOM     10  C   UNL     1      -0.507  10.521  18.629  0.00  0.00    +0.000 A 
ATOM     11  C   UNL     1      -1.435  11.429  19.117  0.00  0.00    +0.000 A 
ATOM     12  C   UNL     1      -1.537  11.619  20.489  0.00  0.00    +0.000 A 
ENDROOT
BRANCH   9  13
ATOM     13  C   UNL     1       1.349   8.900  19.033  0.00  0.00    +0.000 A 
ATOM     14  C   UNL     1       1.719   7.751  19.742  0.00  0.00    +0.000 A 
ATOM     15  C   UNL     1       2.709   6.878  19.254  0.00  0.00    +0.000 A 
ATOM     16  C   UNL     1       3.369   7.116  18.035  0.00  0.00    +0.000 A 
ATOM     17  C   UNL     1       2.983   8.263  17.326  0.00  0.00    +0.000 A 
ATOM     18  C   UNL     1       2.011   9.139  17.817  0.00  0.00    +0.000 A 
BRANCH  16  19
ATOM     19  C   UNL     1       4.423   6.216  17.506  0.00  0.00    +0.000 A 
ATOM     20  C   UNL     1       4.876   5.096  18.224  0.00  0.00    +0.000 A 
ATOM     21  C   UNL     1       5.842   4.231  17.697  0.00  0.00    +0.000 A 
ATOM     22  C   UNL     1       6.374   4.463  16.432  0.00  0.00    +0.000 A 
ATOM     23  C   UNL     1       5.956   5.567  15.703  0.00  0.00    +0.000 A 
ATOM     24  C   UNL     1       5.001   6.437  16.239  0.00  0.00    +0.000 A 
ENDBRANCH  16  19
ENDBRANCH   9  13
BRANCH   3  25
ATOM     25  N   UNL     1      -3.225  14.092  22.709  0.00  0.00    +0.000 N 
ATOM     26  C   UNL     1      -4.415  13.956  23.542  0.00  0.00    +0.000 C 
ATOM     27  C   UNL     1      -3.238  14.771  23.996  0.00  0.00    +0.000 C 
ENDBRANCH   3  25
TORSDOF 3
ENDMDL
MODEL 9
REMARK VINA RESULT:      -8.0      1.503      2.563
REMARK  Name = 
REMARK  3 active torsions:
REMARK  status: ('A' for Active; 'I' for Inactive)
REMARK    1  A    between atoms: C_3  and  N_4
REMARK    2  A    between atoms: C_12  and  C_13
REMARK    3  A    between atoms: C_16  and  C_17
REMARK                            x       y       z     vdW  Elec       q    Type
REMARK                         _______ _______ _______ _____ _____    ______ ____
ROOT
ATOM      1  O   UNL     1       3.936   5.559  17.055  0.00  0.00    +0.000 OA
ATOM      2  C   UNL     1       3.364   5.293  18.105  0.00  0.00    +0.000 C 
ATOM      3  C   UNL     1       3.332   3.900  18.670  0.00  0.00    +0.000 C 
ATOM      4  C   UNL     1       2.899   3.750  19.933  0.00  0.00    +0.000 C 
ATOM      5  C   UNL     1       2.391   4.873  20.771  0.00  0.00    +0.000 C 
ATOM      6  O   UNL     1       2.115   4.670  21.946  0.00  0.00    +0.000 OA
ATOM      7  C   UNL     1       2.215   6.193  20.108  0.00  0.00    +0.000 A 
ATOM      8  N   UNL     1       1.567   7.177  20.801  0.00  0.00    +0.000 NA
ATOM      9  C   UNL     1       1.374   8.370  20.172  0.00  0.00    +0.000 A 
ATOM     10  C   UNL     1       1.852   8.605  18.882  0.00  0.00    +0.000 A 
ATOM     11  C   UNL     1       2.514   7.592  18.203  0.00  0.00    +0.000 A 
ATOM     12  C   UNL     1       2.689   6.364  18.828  0.00  0.00    +0.000 A 
ENDROOT
BRANCH   9  13
ATOM     13  C   UNL     1       0.608   9.404  20.894  0.00  0.00    +0.000 A 
ATOM     14  C   UNL     1       0.336  10.657  20.332  0.00  0.00    +0.000 A 
ATOM     15  C   UNL     1      -0.406  11.626  21.032  0.00  0.00    +0.000 A 
ATOM     16  C   UNL     1      -0.908  11.383  22.324  0.00  0.00    +0.000 A 
ATOM     17  C   UNL     1      -0.640  10.122  22.873  0.00  0.00    +0.000 A 
ATOM     18  C   UNL     1       0.109   9.163  22.185  0.00  0.00    +0.000 A 
BRANCH  16  19
ATOM     19  C   UNL     1      -1.683  12.394  23.085  0.00  0.00    +0.000 A 
ATOM     20  C   UNL     1      -1.150  13.654  23.407  0.00  0.00    +0.000 A 
ATOM     21  C   UNL     1      -1.905  14.613  24.091  0.00  0.00    +0.000 A 
ATOM     22  C   UNL     1      -3.217  14.338  24.463  0.00  0.00    +0.000 A 
ATOM     23  C   UNL     1      -3.768  13.098  24.170  0.00  0.00    +0.000 A 
ATOM     24  C   UNL     1      -3.005  12.137  23.500  0.00  0.00    +0.000 A 
ENDBRANCH  16  19
ENDBRANCH   9  13
BRANCH   3  25
ATOM     25  N   UNL     1       3.779   2.968  17.745  0.00  0.00    +0.000 N 
ATOM     26  C   UNL     1       3.795   1.551  18.096  0.00  0.00    +0.000 C 
ATOM     27  C   UNL     1       2.883   2.075  17.025  0.00  0.00    +0.000 C 
ENDBRANCH   3  25
TORSDOF 3
ENDMDL
