MODEL 1
REMARK VINA RESULT:      -6.2      0.000      0.000
REMARK  Name = 
REMARK  8 active torsions:
REMARK  status: ('A' for Active; 'I' for Inactive)
REMARK    1  A    between atoms: C_1  and  C_2
REMARK    2  A    between atoms: C_2  and  C_3
REMARK    3  A    between atoms: C_3  and  N_4
REMARK    4  A    between atoms: C_8  and  C_9
REMARK    5  A    between atoms: N_11  and  C_12
REMARK    6  A    between atoms: N_11  and  C_15
REMARK    7  A    between atoms: C_12  and  C_13
REMARK    8  A    between atoms: C_15  and  C_16
REMARK                            x       y       z     vdW  Elec       q    Type
REMARK                         _______ _______ _______ _____ _____    ______ ____
ROOT
ATOM      1  N   UNL     1       7.143   5.681  17.674  0.00  0.00    +0.000 N 
ATOM      2  C   UNL     1       7.136   5.590  16.327  0.00  0.00    +0.000 A 
ATOM      3  C   UNL     1       6.231   4.758  15.695  0.00  0.00    +0.000 A 
ATOM      4  C   UNL     1       5.276   4.102  16.469  0.00  0.00    +0.000 A 
ATOM      5  C   UNL     1       5.262   4.219  17.874  0.00  0.00    +0.000 A 
ATOM      6  C   UNL     1       6.300   4.935  18.430  0.00  0.00    +0.000 A 
ENDROOT
BRANCH   5   7
ATOM      7  C   UNL     1       4.074   3.655  18.597  0.00  0.00    +0.000 C 
ATOM      8  O   UNL     1       4.285   2.550  19.102  0.00  0.00    +0.000 OA
ATOM      9  N   UNL     1       2.776   4.209  18.672  0.00  0.00    +0.000 N 
BRANCH   9  10
ATOM     10  C   UNL     1       2.225   5.440  18.067  0.00  0.00    +0.000 C 
BRANCH  10  11
ATOM     11  C   UNL     1       2.606   6.735  18.795  0.00  0.00    +0.000 C 
ATOM     12 CL   UNL     1       3.003   8.038  17.648  0.00  0.00    +0.000 Cl
ENDBRANCH  10  11
ENDBRANCH   9  10
BRANCH   9  13
ATOM     13  C   UNL     1       1.726   3.295  19.180  0.00  0.00    +0.000 C 
BRANCH  13  14
ATOM     14  C   UNL     1       1.003   3.653  20.483  0.00  0.00    +0.000 C 
ATOM     15 CL   UNL     1       1.481   2.585  21.822  0.00  0.00    +0.000 Cl
ENDBRANCH  13  14
ENDBRANCH   9  13
ENDBRANCH   5   7
BRANCH   1  16
ATOM     16  C   UNL     1       7.860   6.813  18.321  0.00  0.00    +0.000 C 
BRANCH  16  18
ATOM     17  C   UNL     1       8.433   9.269  18.238  0.00  0.00    +0.000 C 
ATOM     18  C   UNL     1       7.756   8.111  17.538  0.00  0.00    +0.000 C 
ENDBRANCH  16  18
ENDBRANCH   1  16
TORSDOF 7
ENDMDL
MODEL 2
REMARK VINA RESULT:      -6.1      2.820      6.077
REMARK  Name = 
REMARK  8 active torsions:
REMARK  status: ('A' for Active; 'I' for Inactive)
REMARK    1  A    between atoms: C_1  and  C_2
REMARK    2  A    between atoms: C_2  and  C_3
REMARK    3  A    between atoms: C_3  and  N_4
REMARK    4  A    between atoms: C_8  and  C_9
REMARK    5  A    between atoms: N_11  and  C_12
REMARK    6  A    between atoms: N_11  and  C_15
REMARK    7  A    between atoms: C_12  and  C_13
REMARK    8  A    between atoms: C_15  and  C_16
REMARK                            x       y       z     vdW  Elec       q    Type
REMARK                         _______ _______ _______ _____ _____    ______ ____
ROOT
ATOM      1  N   UNL     1       2.096   3.809  18.904  0.00  0.00    +0.000 N 
ATOM      2  C   UNL     1       2.098   2.687  18.154  0.00  0.00    +0.000 A 
ATOM      3  C   UNL     1       3.202   2.372  17.383  0.00  0.00    +0.000 A 
ATOM      4  C   UNL     1       4.333   3.181  17.477  0.00  0.00    +0.000 A 
ATOM      5  C   UNL     1       4.344   4.337  18.285  0.00  0.00    +0.000 A 
ATOM      6  C   UNL     1       3.148   4.665  18.886  0.00  0.00    +0.000 A 
ENDROOT
BRANCH   5   7
ATOM      7  C   UNL     1       5.665   5.018  18.490  0.00  0.00    +0.000 C 
ATOM      8  O   UNL     1       6.022   5.052  19.670  0.00  0.00    +0.000 OA
ATOM      9  N   UNL     1       6.453   5.669  17.514  0.00  0.00    +0.000 N 
BRANCH   9  10
ATOM     10  C   UNL     1       6.206   5.881  16.072  0.00  0.00    +0.000 C 
BRANCH  10  11
ATOM     11  C   UNL     1       6.943   4.903  15.148  0.00  0.00    +0.000 C 
ATOM     12 CL   UNL     1       5.811   4.019  14.095  0.00  0.00    +0.000 Cl
ENDBRANCH  10  11
ENDBRANCH   9  10
BRANCH   9  13
ATOM     13  C   UNL     1       7.543   6.520  18.044  0.00  0.00    +0.000 C 
BRANCH  13  14
ATOM     14  C   UNL     1       7.688   7.951  17.513  0.00  0.00    +0.000 C 
ATOM     15 CL   UNL     1       8.632   8.977  18.616  0.00  0.00    +0.000 Cl
ENDBRANCH  13  14
ENDBRANCH   9  13
ENDBRANCH   5   7
BRANCH   1  16
ATOM     16  C   UNL     1       1.077   3.961  19.978  0.00  0.00    +0.000 C 
BRANCH  16  18
ATOM     17  C   UNL     1       2.216   2.537  21.722  0.00  0.00    +0.000 C 
ATOM     18  C   UNL     1       1.669   3.904  21.376  0.00  0.00    +0.000 C 
ENDBRANCH  16  18
ENDBRANCH   1  16
TORSDOF 7
ENDMDL
MODEL 3
REMARK VINA RESULT:      -6.0      2.398      3.649
REMARK  Name = 
REMARK  8 active torsions:
REMARK  status: ('A' for Active; 'I' for Inactive)
REMARK    1  A    between atoms: C_1  and  C_2
REMARK    2  A    between atoms: C_2  and  C_3
REMARK    3  A    between atoms: C_3  and  N_4
REMARK    4  A    between atoms: C_8  and  C_9
REMARK    5  A    between atoms: N_11  and  C_12
REMARK    6  A    between atoms: N_11  and  C_15
REMARK    7  A    between atoms: C_12  and  C_13
REMARK    8  A    between atoms: C_15  and  C_16
REMARK                            x       y       z     vdW  Elec       q    Type
REMARK                         _______ _______ _______ _____ _____    ______ ____
ROOT
ATOM      1  N   UNL     1       5.868   5.663  16.383  0.00  0.00    +0.000 N 
ATOM      2  C   UNL     1       7.119   5.629  16.889  0.00  0.00    +0.000 A 
ATOM      3  C   UNL     1       7.310   5.562  18.257  0.00  0.00    +0.000 A 
ATOM      4  C   UNL     1       6.193   5.434  19.080  0.00  0.00    +0.000 A 
ATOM      5  C   UNL     1       4.886   5.438  18.552  0.00  0.00    +0.000 A 
ATOM      6  C   UNL     1       4.784   5.675  17.198  0.00  0.00    +0.000 A 
ENDROOT
BRANCH   5   7
ATOM      7  C   UNL     1       3.767   5.080  19.485  0.00  0.00    +0.000 C 
ATOM      8  O   UNL     1       3.114   6.054  19.867  0.00  0.00    +0.000 OA
ATOM      9  N   UNL     1       3.466   3.803  20.008  0.00  0.00    +0.000 N 
BRANCH   9  10
ATOM     10  C   UNL     1       4.149   2.505  19.816  0.00  0.00    +0.000 C 
BRANCH  10  11
ATOM     11  C   UNL     1       3.617   1.671  18.644  0.00  0.00    +0.000 C 
ATOM     12 CL   UNL     1       2.829   2.694  17.418  0.00  0.00    +0.000 Cl
ENDBRANCH  10  11
ENDBRANCH   9  10
BRANCH   9  13
ATOM     13  C   UNL     1       2.512   3.790  21.141  0.00  0.00    +0.000 C 
BRANCH  13  14
ATOM     14  C   UNL     1       1.311   2.840  21.086  0.00  0.00    +0.000 C 
ATOM     15 CL   UNL     1       0.406   3.001  19.564  0.00  0.00    +0.000 Cl
ENDBRANCH  13  14
ENDBRANCH   9  13
ENDBRANCH   5   7
BRANCH   1  16
ATOM     16  C   UNL     1       5.663   5.385  14.936  0.00  0.00    +0.000 C 
BRANCH  16  18
ATOM     17  C   UNL     1       6.251   3.780  13.079  0.00  0.00    +0.000 C 
ATOM     18  C   UNL     1       5.965   3.945  14.556  0.00  0.00    +0.000 C 
ENDBRANCH  16  18
ENDBRANCH   1  16
TORSDOF 7
ENDMDL
MODEL 4
REMARK VINA RESULT:      -6.0      1.114      1.171
REMARK  Name = 
REMARK  8 active torsions:
REMARK  status: ('A' for Active; 'I' for Inactive)
REMARK    1  A    between atoms: C_1  and  C_2
REMARK    2  A    between atoms: C_2  and  C_3
REMARK    3  A    between atoms: C_3  and  N_4
REMARK    4  A    between atoms: C_8  and  C_9
REMARK    5  A    between atoms: N_11  and  C_12
REMARK    6  A    between atoms: N_11  and  C_15
REMARK    7  A    between atoms: C_12  and  C_13
REMARK    8  A    between atoms: C_15  and  C_16
REMARK                            x       y       z     vdW  Elec       q    Type
REMARK                         _______ _______ _______ _____ _____    ______ ____
ROOT
ATOM      1  N   UNL     1       6.427   6.113  17.050  0.00  0.00    +0.000 N 
ATOM      2  C   UNL     1       6.228   5.573  15.829  0.00  0.00    +0.000 A 
ATOM      3  C   UNL     1       5.567   4.365  15.707  0.00  0.00    +0.000 A 
ATOM      4  C   UNL     1       5.034   3.779  16.853  0.00  0.00    +0.000 A 
ATOM      5  C   UNL     1       5.214   4.357  18.127  0.00  0.00    +0.000 A 
ATOM      6  C   UNL     1       6.026   5.470  18.174  0.00  0.00    +0.000 A 
ENDROOT
BRANCH   5   7
ATOM      7  C   UNL     1       4.426   3.775  19.263  0.00  0.00    +0.000 C 
ATOM      8  O   UNL     1       4.962   2.792  19.780  0.00  0.00    +0.000 OA
ATOM      9  N   UNL     1       3.149   4.176  19.712  0.00  0.00    +0.000 N 
BRANCH   9  10
ATOM     10  C   UNL     1       2.242   5.227  19.202  0.00  0.00    +0.000 C 
BRANCH  10  11
ATOM     11  C   UNL     1       2.719   6.662  19.459  0.00  0.00    +0.000 C 
ATOM     12 CL   UNL     1       3.007   7.539  17.936  0.00  0.00    +0.000 Cl
ENDBRANCH  10  11
ENDBRANCH   9  10
BRANCH   9  13
ATOM     13  C   UNL     1       2.476   3.234  20.637  0.00  0.00    +0.000 C 
BRANCH  13  14
ATOM     14  C   UNL     1       0.981   2.954  20.448  0.00  0.00    +0.000 C 
ATOM     15 CL   UNL     1       0.637   2.230  18.861  0.00  0.00    +0.000 Cl
ENDBRANCH  13  14
ENDBRANCH   9  13
ENDBRANCH   5   7
BRANCH   1  16
ATOM     16  C   UNL     1       6.815   7.546  17.154  0.00  0.00    +0.000 C 
BRANCH  16  18
ATOM     17  C   UNL     1       8.404   9.236  18.149  0.00  0.00    +0.000 C 
ATOM     18  C   UNL     1       8.046   7.772  18.016  0.00  0.00    +0.000 C 
ENDBRANCH  16  18
ENDBRANCH   1  16
TORSDOF 7
ENDMDL
MODEL 5
REMARK VINA RESULT:      -5.9      2.996      6.063
REMARK  Name = 
REMARK  8 active torsions:
REMARK  status: ('A' for Active; 'I' for Inactive)
REMARK    1  A    between atoms: C_1  and  C_2
REMARK    2  A    between atoms: C_2  and  C_3
REMARK    3  A    between atoms: C_3  and  N_4
REMARK    4  A    between atoms: C_8  and  C_9
REMARK    5  A    between atoms: N_11  and  C_12
REMARK    6  A    between atoms: N_11  and  C_15
REMARK    7  A    between atoms: C_12  and  C_13
REMARK    8  A    between atoms: C_15  and  C_16
REMARK                            x       y       z     vdW  Elec       q    Type
REMARK                         _______ _______ _______ _____ _____    ______ ____
ROOT
ATOM      1  N   UNL     1       2.565   6.019  19.898  0.00  0.00    +0.000 N 
ATOM      2  C   UNL     1       2.185   7.262  19.532  0.00  0.00    +0.000 A 
ATOM      3  C   UNL     1       2.689   7.827  18.375  0.00  0.00    +0.000 A 
ATOM      4  C   UNL     1       3.510   7.052  17.558  0.00  0.00    +0.000 A 
ATOM      5  C   UNL     1       3.883   5.742  17.923  0.00  0.00    +0.000 A 
ATOM      6  C   UNL     1       3.471   5.322  19.169  0.00  0.00    +0.000 A 
ENDROOT
BRANCH   5   7
ATOM      7  C   UNL     1       4.586   4.915  16.886  0.00  0.00    +0.000 C 
ATOM      8  O   UNL     1       3.961   3.904  16.558  0.00  0.00    +0.000 OA
ATOM      9  N   UNL     1       5.873   5.133  16.347  0.00  0.00    +0.000 N 
BRANCH   9  10
ATOM     10  C   UNL     1       6.872   6.181  16.648  0.00  0.00    +0.000 C 
BRANCH  10  11
ATOM     11  C   UNL     1       7.438   6.132  18.072  0.00  0.00    +0.000 C 
ATOM     12 CL   UNL     1       8.287   7.640  18.491  0.00  0.00    +0.000 Cl
ENDBRANCH  10  11
ENDBRANCH   9  10
BRANCH   9  13
ATOM     13  C   UNL     1       6.441   3.997  15.583  0.00  0.00    +0.000 C 
BRANCH  13  14
ATOM     14  C   UNL     1       6.311   3.996  14.056  0.00  0.00    +0.000 C 
ATOM     15 CL   UNL     1       7.517   5.051  13.286  0.00  0.00    +0.000 Cl
ENDBRANCH  13  14
ENDBRANCH   9  13
ENDBRANCH   5   7
BRANCH   1  16
ATOM     16  C   UNL     1       1.773   5.293  20.927  0.00  0.00    +0.000 C 
BRANCH  16  18
ATOM     17  C   UNL     1       1.333   2.830  21.259  0.00  0.00    +0.000 C 
ATOM     18  C   UNL     1       1.095   4.045  20.388  0.00  0.00    +0.000 C 
ENDBRANCH  16  18
ENDBRANCH   1  16
TORSDOF 7
ENDMDL
MODEL 6
REMARK VINA RESULT:      -5.9      1.877      3.193
REMARK  Name = 
REMARK  8 active torsions:
REMARK  status: ('A' for Active; 'I' for Inactive)
REMARK    1  A    between atoms: C_1  and  C_2
REMARK    2  A    between atoms: C_2  and  C_3
REMARK    3  A    between atoms: C_3  and  N_4
REMARK    4  A    between atoms: C_8  and  C_9
REMARK    5  A    between atoms: N_11  and  C_12
REMARK    6  A    between atoms: N_11  and  C_15
REMARK    7  A    between atoms: C_12  and  C_13
REMARK    8  A    between atoms: C_15  and  C_16
REMARK                            x       y       z     vdW  Elec       q    Type
REMARK                         _______ _______ _______ _____ _____    ______ ____
ROOT
ATOM      1  N   UNL     1       5.740   4.739  15.796  0.00  0.00    +0.000 N 
ATOM      2  C   UNL     1       7.060   4.796  16.071  0.00  0.00    +0.000 A 
ATOM      3  C   UNL     1       7.496   4.762  17.383  0.00  0.00    +0.000 A 
ATOM      4  C   UNL     1       6.554   4.569  18.392  0.00  0.00    +0.000 A 
ATOM      5  C   UNL     1       5.177   4.477  18.104  0.00  0.00    +0.000 A 
ATOM      6  C   UNL     1       4.820   4.688  16.790  0.00  0.00    +0.000 A 
ENDROOT
BRANCH   5   7
ATOM      7  C   UNL     1       4.269   4.056  19.222  0.00  0.00    +0.000 C 
ATOM      8  O   UNL     1       4.360   2.859  19.505  0.00  0.00    +0.000 OA
ATOM      9  N   UNL     1       3.304   4.847  19.885  0.00  0.00    +0.000 N 
BRANCH   9  10
ATOM     10  C   UNL     1       2.908   6.255  19.666  0.00  0.00    +0.000 C 
BRANCH  10  11
ATOM     11  C   UNL     1       2.308   6.542  18.284  0.00  0.00    +0.000 C 
ATOM     12 CL   UNL     1       2.366   8.278  17.893  0.00  0.00    +0.000 Cl
ENDBRANCH  10  11
ENDBRANCH   9  10
BRANCH   9  13
ATOM     13  C   UNL     1       2.338   4.100  20.724  0.00  0.00    +0.000 C 
BRANCH  13  14
ATOM     14  C   UNL     1       0.918   3.877  20.194  0.00  0.00    +0.000 C 
ATOM     15 CL   UNL     1       0.866   2.617  18.941  0.00  0.00    +0.000 Cl
ENDBRANCH  13  14
ENDBRANCH   9  13
ENDBRANCH   5   7
BRANCH   1  16
ATOM     16  C   UNL     1       5.302   4.427  14.408  0.00  0.00    +0.000 C 
BRANCH  16  18
ATOM     17  C   UNL     1       5.908   3.256  12.257  0.00  0.00    +0.000 C 
ATOM     18  C   UNL     1       6.419   3.878  13.538  0.00  0.00    +0.000 C 
ENDBRANCH  16  18
ENDBRANCH   1  16
TORSDOF 7
ENDMDL
MODEL 7
REMARK VINA RESULT:      -5.9      1.939      2.355
REMARK  Name = 
REMARK  8 active torsions:
REMARK  status: ('A' for Active; 'I' for Inactive)
REMARK    1  A    between atoms: C_1  and  C_2
REMARK    2  A    between atoms: C_2  and  C_3
REMARK    3  A    between atoms: C_3  and  N_4
REMARK    4  A    between atoms: C_8  and  C_9
REMARK    5  A    between atoms: N_11  and  C_12
REMARK    6  A    between atoms: N_11  and  C_15
REMARK    7  A    between atoms: C_12  and  C_13
REMARK    8  A    between atoms: C_15  and  C_16
REMARK                            x       y       z     vdW  Elec       q    Type
REMARK                         _______ _______ _______ _____ _____    ______ ____
ROOT
ATOM      1  N   UNL     1       6.900   5.897  17.499  0.00  0.00    +0.000 N 
ATOM      2  C   UNL     1       7.133   5.619  16.199  0.00  0.00    +0.000 A 
ATOM      3  C   UNL     1       6.172   4.967  15.448  0.00  0.00    +0.000 A 
ATOM      4  C   UNL     1       4.937   4.698  16.036  0.00  0.00    +0.000 A 
ATOM      5  C   UNL     1       4.681   5.015  17.385  0.00  0.00    +0.000 A 
ATOM      6  C   UNL     1       5.749   5.510  18.102  0.00  0.00    +0.000 A 
ENDROOT
BRANCH   5   7
ATOM      7  C   UNL     1       3.264   4.887  17.863  0.00  0.00    +0.000 C 
ATOM      8  O   UNL     1       2.775   5.953  18.243  0.00  0.00    +0.000 OA
ATOM      9  N   UNL     1       2.510   3.700  17.994  0.00  0.00    +0.000 N 
BRANCH   9  10
ATOM     10  C   UNL     1       2.886   2.294  17.732  0.00  0.00    +0.000 C 
BRANCH  10  11
ATOM     11  C   UNL     1       3.343   1.514  18.970  0.00  0.00    +0.000 C 
ATOM     12 CL   UNL     1       4.545   2.429  19.913  0.00  0.00    +0.000 Cl
ENDBRANCH  10  11
ENDBRANCH   9  10
BRANCH   9  13
ATOM     13  C   UNL     1       1.261   3.826  18.781  0.00  0.00    +0.000 C 
BRANCH  13  14
ATOM     14  C   UNL     1       1.357   4.200  20.264  0.00  0.00    +0.000 C 
ATOM     15 CL   UNL     1       1.178   2.780  21.320  0.00  0.00    +0.000 Cl
ENDBRANCH  13  14
ENDBRANCH   9  13
ENDBRANCH   5   7
BRANCH   1  16
ATOM     16  C   UNL     1       7.767   6.886  18.195  0.00  0.00    +0.000 C 
BRANCH  16  18
ATOM     17  C   UNL     1       8.512   9.292  18.341  0.00  0.00    +0.000 C 
ATOM     18  C   UNL     1       7.761   8.254  17.535  0.00  0.00    +0.000 C 
ENDBRANCH  16  18
ENDBRANCH   1  16
TORSDOF 7
ENDMDL
MODEL 8
REMARK VINA RESULT:      -5.9      2.936      6.074
REMARK  Name = 
REMARK  8 active torsions:
REMARK  status: ('A' for Active; 'I' for Inactive)
REMARK    1  A    between atoms: C_1  and  C_2
REMARK    2  A    between atoms: C_2  and  C_3
REMARK    3  A    between atoms: C_3  and  N_4
REMARK    4  A    between atoms: C_8  and  C_9
REMARK    5  A    between atoms: N_11  and  C_12
REMARK    6  A    between atoms: N_11  and  C_15
REMARK    7  A    between atoms: C_12  and  C_13
REMARK    8  A    between atoms: C_15  and  C_16
REMARK                            x       y       z     vdW  Elec       q    Type
REMARK                         _______ _______ _______ _____ _____    ______ ____
ROOT
ATOM      1  N   UNL     1       2.753   4.910  20.435  0.00  0.00    +0.000 N 
ATOM      2  C   UNL     1       2.217   6.144  20.322  0.00  0.00    +0.000 A 
ATOM      3  C   UNL     1       2.463   6.905  19.194  0.00  0.00    +0.000 A 
ATOM      4  C   UNL     1       3.187   6.333  18.150  0.00  0.00    +0.000 A 
ATOM      5  C   UNL     1       3.722   5.033  18.253  0.00  0.00    +0.000 A 
ATOM      6  C   UNL     1       3.569   4.412  19.474  0.00  0.00    +0.000 A 
ENDROOT
BRANCH   5   7
ATOM      7  C   UNL     1       4.295   4.426  17.005  0.00  0.00    +0.000 C 
ATOM      8  O   UNL     1       3.644   3.468  16.581  0.00  0.00    +0.000 OA
ATOM      9  N   UNL     1       5.500   4.779  16.359  0.00  0.00    +0.000 N 
BRANCH   9  10
ATOM     10  C   UNL     1       6.518   5.790  16.717  0.00  0.00    +0.000 C 
BRANCH  10  11
ATOM     11  C   UNL     1       7.441   5.385  17.872  0.00  0.00    +0.000 C 
ATOM     12 CL   UNL     1       8.090   6.809  18.722  0.00  0.00    +0.000 Cl
ENDBRANCH  10  11
ENDBRANCH   9  10
BRANCH   9  13
ATOM     13  C   UNL     1       5.978   3.816  15.339  0.00  0.00    +0.000 C 
BRANCH  13  14
ATOM     14  C   UNL     1       6.522   4.356  14.011  0.00  0.00    +0.000 C 
ATOM     15 CL   UNL     1       6.027   3.349  12.633  0.00  0.00    +0.000 Cl
ENDBRANCH  13  14
ENDBRANCH   9  13
ENDBRANCH   5   7
BRANCH   1  16
ATOM     16  C   UNL     1       2.214   3.977  21.461  0.00  0.00    +0.000 C 
BRANCH  16  18
ATOM     17  C   UNL     1       0.606   3.020  19.769  0.00  0.00    +0.000 C 
ATOM     18  C   UNL     1       1.605   2.719  20.864  0.00  0.00    +0.000 C 
ENDBRANCH  16  18
ENDBRANCH   1  16
TORSDOF 7
ENDMDL
MODEL 9
REMARK VINA RESULT:      -5.9      1.812      3.056
REMARK  Name = 
REMARK  8 active torsions:
REMARK  status: ('A' for Active; 'I' for Inactive)
REMARK    1  A    between atoms: C_1  and  C_2
REMARK    2  A    between atoms: C_2  and  C_3
REMARK    3  A    between atoms: C_3  and  N_4
REMARK    4  A    between atoms: C_8  and  C_9
REMARK    5  A    between atoms: N_11  and  C_12
REMARK    6  A    between atoms: N_11  and  C_15
REMARK    7  A    between atoms: C_12  and  C_13
REMARK    8  A    between atoms: C_15  and  C_16
REMARK                            x       y       z     vdW  Elec       q    Type
REMARK                         _______ _______ _______ _____ _____    ______ ____
ROOT
ATOM      1  N   UNL     1       6.412   5.024  15.741  0.00  0.00    +0.000 N 
ATOM      2  C   UNL     1       7.454   4.969  16.597  0.00  0.00    +0.000 A 
ATOM      3  C   UNL     1       7.234   4.731  17.942  0.00  0.00    +0.000 A 
ATOM      4  C   UNL     1       5.935   4.455  18.365  0.00  0.00    +0.000 A 
ATOM      5  C   UNL     1       4.848   4.481  17.466  0.00  0.00    +0.000 A 
ATOM      6  C   UNL     1       5.137   4.889  16.182  0.00  0.00    +0.000 A 
ENDROOT
BRANCH   5   7
ATOM      7  C   UNL     1       3.532   3.962  17.967  0.00  0.00    +0.000 C 
ATOM      8  O   UNL     1       3.064   3.058  17.271  0.00  0.00    +0.000 OA
ATOM      9  N   UNL     1       2.778   4.453  19.056  0.00  0.00    +0.000 N 
BRANCH   9  10
ATOM     10  C   UNL     1       3.041   5.586  19.969  0.00  0.00    +0.000 C 
BRANCH  10  11
ATOM     11  C   UNL     1       2.337   6.892  19.584  0.00  0.00    +0.000 C 
ATOM     12 CL   UNL     1       2.929   7.519  18.025  0.00  0.00    +0.000 Cl
ENDBRANCH  10  11
ENDBRANCH   9  10
BRANCH   9  13
ATOM     13  C   UNL     1       1.381   3.963  19.131  0.00  0.00    +0.000 C 
BRANCH  13  14
ATOM     14  C   UNL     1       1.087   2.691  19.933  0.00  0.00    +0.000 C 
ATOM     15 CL   UNL     1       1.449   2.897  21.662  0.00  0.00    +0.000 Cl
ENDBRANCH  13  14
ENDBRANCH   9  13
ENDBRANCH   5   7
BRANCH   1  16
ATOM     16  C   UNL     1       6.670   4.930  14.279  0.00  0.00    +0.000 C 
BRANCH  16  18
ATOM     17  C   UNL     1       6.450   3.518  12.199  0.00  0.00    +0.000 C 
ATOM     18  C   UNL     1       6.008   3.726  13.631  0.00  0.00    +0.000 C 
ENDBRANCH  16  18
ENDBRANCH   1  16
TORSDOF 7
ENDMDL
