MODEL 1
REMARK VINA RESULT:      -8.2      0.000      0.000
REMARK  Name = 
REMARK  11 active torsions:
REMARK  status: ('A' for Active; 'I' for Inactive)
REMARK    1  A    between atoms: C_1  and  O_2
REMARK    2  A    between atoms: O_2  and  C_3
REMARK    3  A    between atoms: C_6  and  N_7
REMARK    4  A    between atoms: N_7  and  C_8
REMARK    5  A    between atoms: C_8  and  C_9
REMARK    6  A    between atoms: C_12  and  C_13
REMARK    7  A    between atoms: N_15  and  C_16
REMARK    8  A    between atoms: C_18  and  C_19
REMARK    9  A    between atoms: C_26  and  N_27
REMARK   10  A    between atoms: C_31  and  O_32
REMARK   11  A    between atoms: O_32  and  C_33
REMARK                            x       y       z     vdW  Elec       q    Type
REMARK                         _______ _______ _______ _____ _____    ______ ____
ROOT
ATOM      1  C   UNL     1       6.903   5.771  17.630  0.00  0.00    +0.000 A 
ATOM      2  C   UNL     1       6.605   6.870  16.824  0.00  0.00    +0.000 A 
ATOM      3  C   UNL     1       7.179   8.105  17.096  0.00  0.00    +0.000 A 
ATOM      4  C   UNL     1       8.072   8.276  18.172  0.00  0.00    +0.000 A 
ATOM      5  C   UNL     1       8.381   7.174  18.974  0.00  0.00    +0.000 A 
ATOM      6  C   UNL     1       7.806   5.925  18.694  0.00  0.00    +0.000 A 
ENDROOT
BRANCH   4   7
ATOM      7  C   UNL     1       8.581   9.657  18.392  0.00  0.00    +0.000 C 
ATOM      8  O   UNL     1       8.215  10.511  17.583  0.00  0.00    +0.000 OA
ATOM      9  N   UNL     1       9.442   9.898  19.456  0.00  0.00    +0.000 N 
ATOM     10  H   UNL     1       9.907   9.113  19.883  0.00  0.00    +0.000 HD
BRANCH   9  11
ATOM     11  C   UNL     1       9.914  11.182  19.843  0.00  0.00    +0.000 A 
ATOM     12  C   UNL     1       9.433  11.816  21.000  0.00  0.00    +0.000 A 
ATOM     13  C   UNL     1       9.787  13.126  21.338  0.00  0.00    +0.000 A 
ATOM     14  C   UNL     1      10.704  13.794  20.532  0.00  0.00    +0.000 A 
ATOM     15  C   UNL     1      11.230  13.164  19.396  0.00  0.00    +0.000 A 
ATOM     16  C   UNL     1      10.876  11.847  19.054  0.00  0.00    +0.000 A 
BRANCH  13  17
ATOM     17  C   UNL     1       9.118  13.770  22.456  0.00  0.00    +0.000 A 
ATOM     18  C   UNL     1       9.462  14.976  23.137  0.00  0.00    +0.000 A 
ATOM     19  C   UNL     1       8.533  15.142  24.136  0.00  0.00    +0.000 A 
ATOM     20  O   UNL     1       7.632  14.128  24.113  0.00  0.00    +0.000 OA
ATOM     21  C   UNL     1       7.990  13.301  23.094  0.00  0.00    +0.000 A 
ENDBRANCH  13  17
BRANCH  16  22
ATOM     22  N   UNL     1      11.312  11.344  17.811  0.00  0.00    +0.000 N 
ATOM     23  H   UNL     1      12.217  11.710  17.529  0.00  0.00    +0.000 HD
ATOM     24  H   UNL     1      11.284  10.338  17.728  0.00  0.00    +0.000 HD
ENDBRANCH  16  22
ENDBRANCH   9  11
ENDBRANCH   4   7
BRANCH   1  25
ATOM     25  C   UNL     1       6.268   4.439  17.332  0.00  0.00    +0.000 C 
BRANCH  25  26
ATOM     26  N   UNL     1       4.955   4.648  16.748  0.00  0.00    +0.000 N 
ATOM     27  H   UNL     1       4.879   5.488  16.181  0.00  0.00    +0.000 HD
BRANCH  26  31
ATOM     28  C   UNL     1       1.759   3.661  19.320  0.00  0.00    +0.000 A 
ATOM     29  C   UNL     1       2.186   2.783  18.312  0.00  0.00    +0.000 A 
ATOM     30  C   UNL     1       3.221   3.139  17.442  0.00  0.00    +0.000 A 
ATOM     31  C   UNL     1       3.819   4.397  17.517  0.00  0.00    +0.000 A 
ATOM     32  C   UNL     1       3.328   5.286  18.478  0.00  0.00    +0.000 A 
ATOM     33  C   UNL     1       2.298   4.949  19.368  0.00  0.00    +0.000 A 
BRANCH  28  35
ATOM     34  C   UNL     1       1.338   2.748  21.457  0.00  0.00    +0.000 C 
ATOM     35  O   UNL     1       0.818   3.277  20.236  0.00  0.00    +0.000 OA
ENDBRANCH  28  35
BRANCH  33  36
ATOM     36  O   UNL     1       2.003   5.990  20.206  0.00  0.00    +0.000 OA
ATOM     37  C   UNL     1       2.213   7.319  19.766  0.00  0.00    +0.000 C 
ENDBRANCH  33  36
ENDBRANCH  26  31
ENDBRANCH  25  26
ENDBRANCH   1  25
TORSDOF 9
ENDMDL
MODEL 2
REMARK VINA RESULT:      -8.2      6.077      9.354
REMARK  Name = 
REMARK  11 active torsions:
REMARK  status: ('A' for Active; 'I' for Inactive)
REMARK    1  A    between atoms: C_1  and  O_2
REMARK    2  A    between atoms: O_2  and  C_3
REMARK    3  A    between atoms: C_6  and  N_7
REMARK    4  A    between atoms: N_7  and  C_8
REMARK    5  A    between atoms: C_8  and  C_9
REMARK    6  A    between atoms: C_12  and  C_13
REMARK    7  A    between atoms: N_15  and  C_16
REMARK    8  A    between atoms: C_18  and  C_19
REMARK    9  A    between atoms: C_26  and  N_27
REMARK   10  A    between atoms: C_31  and  O_32
REMARK   11  A    between atoms: O_32  and  C_33
REMARK                            x       y       z     vdW  Elec       q    Type
REMARK                         _______ _______ _______ _____ _____    ______ ____
ROOT
ATOM      1  C   UNL     1       2.276   7.129  19.678  0.00  0.00    +0.000 A 
ATOM      2  C   UNL     1       1.599   7.332  20.881  0.00  0.00    +0.000 A 
ATOM      3  C   UNL     1       0.849   8.486  21.069  0.00  0.00    +0.000 A 
ATOM      4  C   UNL     1       0.746   9.464  20.060  0.00  0.00    +0.000 A 
ATOM      5  C   UNL     1       1.415   9.257  18.850  0.00  0.00    +0.000 A 
ATOM      6  C   UNL     1       2.166   8.088  18.659  0.00  0.00    +0.000 A 
ENDROOT
BRANCH   4   7
ATOM      7  C   UNL     1      -0.044  10.678  20.399  0.00  0.00    +0.000 C 
ATOM      8  O   UNL     1      -0.791  11.110  19.520  0.00  0.00    +0.000 OA
ATOM      9  N   UNL     1       0.118  11.261  21.650  0.00  0.00    +0.000 N 
ATOM     10  H   UNL     1       0.937  11.023  22.187  0.00  0.00    +0.000 HD
BRANCH   9  11
ATOM     11  C   UNL     1      -0.648  12.353  22.142  0.00  0.00    +0.000 A 
ATOM     12  C   UNL     1      -1.930  12.158  22.681  0.00  0.00    +0.000 A 
ATOM     13  C   UNL     1      -2.753  13.224  23.058  0.00  0.00    +0.000 A 
ATOM     14  C   UNL     1      -2.250  14.518  22.960  0.00  0.00    +0.000 A 
ATOM     15  C   UNL     1      -0.957  14.733  22.465  0.00  0.00    +0.000 A 
ATOM     16  C   UNL     1      -0.127  13.662  22.085  0.00  0.00    +0.000 A 
BRANCH  13  17
ATOM     17  C   UNL     1      -4.126  12.950  23.449  0.00  0.00    +0.000 A 
ATOM     18  C   UNL     1      -5.338  13.275  22.769  0.00  0.00    +0.000 A 
ATOM     19  C   UNL     1      -6.366  12.824  23.562  0.00  0.00    +0.000 A 
ATOM     20  O   UNL     1      -5.874  12.230  24.678  0.00  0.00    +0.000 OA
ATOM     21  C   UNL     1      -4.517  12.308  24.605  0.00  0.00    +0.000 A 
ENDBRANCH  13  17
BRANCH  16  22
ATOM     22  N   UNL     1       1.091  13.964  21.440  0.00  0.00    +0.000 N 
ATOM     23  H   UNL     1       1.902  13.811  22.032  0.00  0.00    +0.000 HD
ATOM     24  H   UNL     1       1.211  13.527  20.537  0.00  0.00    +0.000 HD
ENDBRANCH  16  22
ENDBRANCH   9  11
ENDBRANCH   4   7
BRANCH   1  25
ATOM     25  C   UNL     1       3.094   5.879  19.489  0.00  0.00    +0.000 C 
BRANCH  25  26
ATOM     26  N   UNL     1       3.103   5.514  18.084  0.00  0.00    +0.000 N 
ATOM     27  H   UNL     1       2.437   4.786  17.838  0.00  0.00    +0.000 HD
BRANCH  26  31
ATOM     28  C   UNL     1       6.591   5.255  15.723  0.00  0.00    +0.000 A 
ATOM     29  C   UNL     1       5.675   4.194  15.797  0.00  0.00    +0.000 A 
ATOM     30  C   UNL     1       4.543   4.278  16.613  0.00  0.00    +0.000 A 
ATOM     31  C   UNL     1       4.322   5.395  17.418  0.00  0.00    +0.000 A 
ATOM     32  C   UNL     1       5.284   6.409  17.390  0.00  0.00    +0.000 A 
ATOM     33  C   UNL     1       6.423   6.352  16.572  0.00  0.00    +0.000 A 
BRANCH  28  35
ATOM     34  C   UNL     1       7.309   4.860  13.509  0.00  0.00    +0.000 C 
ATOM     35  O   UNL     1       7.644   5.218  14.851  0.00  0.00    +0.000 OA
ENDBRANCH  28  35
BRANCH  33  36
ATOM     36  O   UNL     1       7.205   7.465  16.728  0.00  0.00    +0.000 OA
ATOM     37  C   UNL     1       7.892   7.667  17.949  0.00  0.00    +0.000 C 
ENDBRANCH  33  36
ENDBRANCH  26  31
ENDBRANCH  25  26
ENDBRANCH   1  25
TORSDOF 9
ENDMDL
MODEL 3
REMARK VINA RESULT:      -8.2      5.460      8.720
REMARK  Name = 
REMARK  11 active torsions:
REMARK  status: ('A' for Active; 'I' for Inactive)
REMARK    1  A    between atoms: C_1  and  O_2
REMARK    2  A    between atoms: O_2  and  C_3
REMARK    3  A    between atoms: C_6  and  N_7
REMARK    4  A    between atoms: N_7  and  C_8
REMARK    5  A    between atoms: C_8  and  C_9
REMARK    6  A    between atoms: C_12  and  C_13
REMARK    7  A    between atoms: N_15  and  C_16
REMARK    8  A    between atoms: C_18  and  C_19
REMARK    9  A    between atoms: C_26  and  N_27
REMARK   10  A    between atoms: C_31  and  O_32
REMARK   11  A    between atoms: O_32  and  C_33
REMARK                            x       y       z     vdW  Elec       q    Type
REMARK                         _______ _______ _______ _____ _____    ______ ____
ROOT
ATOM      1  C   UNL     1       2.489   5.901  19.399  0.00  0.00    +0.000 A 
ATOM      2  C   UNL     1       2.550   6.910  18.438  0.00  0.00    +0.000 A 
ATOM      3  C   UNL     1       1.998   8.156  18.704  0.00  0.00    +0.000 A 
ATOM      4  C   UNL     1       1.378   8.433  19.939  0.00  0.00    +0.000 A 
ATOM      5  C   UNL     1       1.325   7.427  20.907  0.00  0.00    +0.000 A 
ATOM      6  C   UNL     1       1.890   6.171  20.640  0.00  0.00    +0.000 A 
ENDROOT
BRANCH   4   7
ATOM      7  C   UNL     1       0.779   9.788  20.085  0.00  0.00    +0.000 C 
ATOM      8  O   UNL     1       0.424  10.345  19.045  0.00  0.00    +0.000 OA
ATOM      9  N   UNL     1       0.678  10.348  21.353  0.00  0.00    +0.000 N 
ATOM     10  H   UNL     1       1.240   9.959  22.094  0.00  0.00    +0.000 HD
BRANCH   9  11
ATOM     11  C   UNL     1       0.033  11.580  21.646  0.00  0.00    +0.000 A 
ATOM     12  C   UNL     1      -1.219  11.612  22.282  0.00  0.00    +0.000 A 
ATOM     13  C   UNL     1      -1.930  12.801  22.472  0.00  0.00    +0.000 A 
ATOM     14  C   UNL     1      -1.339  13.999  22.079  0.00  0.00    +0.000 A 
ATOM     15  C   UNL     1      -0.071  13.994  21.483  0.00  0.00    +0.000 A 
ATOM     16  C   UNL     1       0.646  12.799  21.290  0.00  0.00    +0.000 A 
BRANCH  13  17
ATOM     17  C   UNL     1      -3.289  12.735  22.983  0.00  0.00    +0.000 A 
ATOM     18  C   UNL     1      -3.742  12.693  24.336  0.00  0.00    +0.000 A 
ATOM     19  C   UNL     1      -5.113  12.609  24.289  0.00  0.00    +0.000 A 
ATOM     20  O   UNL     1      -5.540  12.608  23.002  0.00  0.00    +0.000 OA
ATOM     21  C   UNL     1      -4.433  12.686  22.215  0.00  0.00    +0.000 A 
ENDBRANCH  13  17
BRANCH  16  22
ATOM     22  N   UNL     1       1.835  12.854  20.533  0.00  0.00    +0.000 N 
ATOM     23  H   UNL     1       1.733  12.455  19.604  0.00  0.00    +0.000 HD
ATOM     24  H   UNL     1       2.269  13.765  20.492  0.00  0.00    +0.000 HD
ENDBRANCH  16  22
ENDBRANCH   9  11
ENDBRANCH   4   7
BRANCH   1  25
ATOM     25  C   UNL     1       3.083   4.552  19.096  0.00  0.00    +0.000 C 
BRANCH  25  26
ATOM     26  N   UNL     1       4.528   4.620  19.214  0.00  0.00    +0.000 N 
ATOM     27  H   UNL     1       4.858   5.226  19.961  0.00  0.00    +0.000 HD
BRANCH  26  31
ATOM     28  C   UNL     1       6.561   5.060  15.542  0.00  0.00    +0.000 A 
ATOM     29  C   UNL     1       5.617   4.041  15.740  0.00  0.00    +0.000 A 
ATOM     30  C   UNL     1       4.979   3.883  16.973  0.00  0.00    +0.000 A 
ATOM     31  C   UNL     1       5.304   4.698  18.057  0.00  0.00    +0.000 A 
ATOM     32  C   UNL     1       6.302   5.658  17.864  0.00  0.00    +0.000 A 
ATOM     33  C   UNL     1       6.949   5.842  16.633  0.00  0.00    +0.000 A 
BRANCH  28  35
ATOM     34  C   UNL     1       6.748   4.336  13.302  0.00  0.00    +0.000 C 
ATOM     35  O   UNL     1       7.112   5.281  14.309  0.00  0.00    +0.000 OA
ENDBRANCH  28  35
BRANCH  33  36
ATOM     36  O   UNL     1       7.882   6.842  16.704  0.00  0.00    +0.000 OA
ATOM     37  C   UNL     1       7.646   7.954  17.548  0.00  0.00    +0.000 C 
ENDBRANCH  33  36
ENDBRANCH  26  31
ENDBRANCH  25  26
ENDBRANCH   1  25
TORSDOF 9
ENDMDL
MODEL 4
REMARK VINA RESULT:      -8.1      4.741      8.142
REMARK  Name = 
REMARK  11 active torsions:
REMARK  status: ('A' for Active; 'I' for Inactive)
REMARK    1  A    between atoms: C_1  and  O_2
REMARK    2  A    between atoms: O_2  and  C_3
REMARK    3  A    between atoms: C_6  and  N_7
REMARK    4  A    between atoms: N_7  and  C_8
REMARK    5  A    between atoms: C_8  and  C_9
REMARK    6  A    between atoms: C_12  and  C_13
REMARK    7  A    between atoms: N_15  and  C_16
REMARK    8  A    between atoms: C_18  and  C_19
REMARK    9  A    between atoms: C_26  and  N_27
REMARK   10  A    between atoms: C_31  and  O_32
REMARK   11  A    between atoms: O_32  and  C_33
REMARK                            x       y       z     vdW  Elec       q    Type
REMARK                         _______ _______ _______ _____ _____    ______ ____
ROOT
ATOM      1  C   UNL     1       2.833   4.344  18.896  0.00  0.00    +0.000 A 
ATOM      2  C   UNL     1       2.574   5.422  18.049  0.00  0.00    +0.000 A 
ATOM      3  C   UNL     1       2.145   6.633  18.577  0.00  0.00    +0.000 A 
ATOM      4  C   UNL     1       1.972   6.804  19.965  0.00  0.00    +0.000 A 
ATOM      5  C   UNL     1       2.241   5.729  20.817  0.00  0.00    +0.000 A 
ATOM      6  C   UNL     1       2.681   4.509  20.282  0.00  0.00    +0.000 A 
ENDROOT
BRANCH   4   7
ATOM      7  C   UNL     1       1.460   8.131  20.405  0.00  0.00    +0.000 C 
ATOM      8  O   UNL     1       1.384   8.314  21.621  0.00  0.00    +0.000 OA
ATOM      9  N   UNL     1       1.081   9.060  19.444  0.00  0.00    +0.000 N 
ATOM     10  H   UNL     1       0.906   8.735  18.506  0.00  0.00    +0.000 HD
BRANCH   9  11
ATOM     11  C   UNL     1       0.679  10.395  19.721  0.00  0.00    +0.000 A 
ATOM     12  C   UNL     1      -0.296  10.674  20.692  0.00  0.00    +0.000 A 
ATOM     13  C   UNL     1      -0.798  11.963  20.900  0.00  0.00    +0.000 A 
ATOM     14  C   UNL     1      -0.255  13.013  20.163  0.00  0.00    +0.000 A 
ATOM     15  C   UNL     1       0.749  12.763  19.219  0.00  0.00    +0.000 A 
ATOM     16  C   UNL     1       1.255  11.467  19.009  0.00  0.00    +0.000 A 
BRANCH  13  17
ATOM     17  C   UNL     1      -1.923  12.145  21.802  0.00  0.00    +0.000 A 
ATOM     18  C   UNL     1      -3.127  12.883  21.602  0.00  0.00    +0.000 A 
ATOM     19  C   UNL     1      -3.856  12.766  22.762  0.00  0.00    +0.000 A 
ATOM     20  O   UNL     1      -3.191  11.997  23.660  0.00  0.00    +0.000 OA
ATOM     21  C   UNL     1      -2.021  11.623  23.074  0.00  0.00    +0.000 A 
ENDBRANCH  13  17
BRANCH  16  22
ATOM     22  N   UNL     1       2.140  11.268  17.928  0.00  0.00    +0.000 N 
ATOM     23  H   UNL     1       2.921  11.918  17.929  0.00  0.00    +0.000 HD
ATOM     24  H   UNL     1       2.457  10.316  17.811  0.00  0.00    +0.000 HD
ENDBRANCH  16  22
ENDBRANCH   9  11
ENDBRANCH   4   7
BRANCH   1  25
ATOM     25  C   UNL     1       3.288   3.034  18.311  0.00  0.00    +0.000 C 
BRANCH  25  26
ATOM     26  N   UNL     1       4.738   3.010  18.244  0.00  0.00    +0.000 N 
ATOM     27  H   UNL     1       5.183   2.517  19.013  0.00  0.00    +0.000 HD
BRANCH  26  31
ATOM     28  C   UNL     1       7.156   6.303  17.184  0.00  0.00    +0.000 A 
ATOM     29  C   UNL     1       6.768   6.077  18.513  0.00  0.00    +0.000 A 
ATOM     30  C   UNL     1       5.935   5.004  18.845  0.00  0.00    +0.000 A 
ATOM     31  C   UNL     1       5.422   4.163  17.858  0.00  0.00    +0.000 A 
ATOM     32  C   UNL     1       5.758   4.449  16.531  0.00  0.00    +0.000 A 
ATOM     33  C   UNL     1       6.599   5.513  16.174  0.00  0.00    +0.000 A 
BRANCH  28  35
ATOM     34  C   UNL     1       8.012   8.438  17.717  0.00  0.00    +0.000 C 
ATOM     35  O   UNL     1       8.050   7.289  16.869  0.00  0.00    +0.000 OA
ENDBRANCH  28  35
BRANCH  33  36
ATOM     36  O   UNL     1       6.771   5.580  14.818  0.00  0.00    +0.000 OA
ATOM     37  C   UNL     1       6.499   4.439  14.026  0.00  0.00    +0.000 C 
ENDBRANCH  33  36
ENDBRANCH  26  31
ENDBRANCH  25  26
ENDBRANCH   1  25
TORSDOF 9
ENDMDL
MODEL 5
REMARK VINA RESULT:      -8.1      4.728      8.133
REMARK  Name = 
REMARK  11 active torsions:
REMARK  status: ('A' for Active; 'I' for Inactive)
REMARK    1  A    between atoms: C_1  and  O_2
REMARK    2  A    between atoms: O_2  and  C_3
REMARK    3  A    between atoms: C_6  and  N_7
REMARK    4  A    between atoms: N_7  and  C_8
REMARK    5  A    between atoms: C_8  and  C_9
REMARK    6  A    between atoms: C_12  and  C_13
REMARK    7  A    between atoms: N_15  and  C_16
REMARK    8  A    between atoms: C_18  and  C_19
REMARK    9  A    between atoms: C_26  and  N_27
REMARK   10  A    between atoms: C_31  and  O_32
REMARK   11  A    between atoms: O_32  and  C_33
REMARK                            x       y       z     vdW  Elec       q    Type
REMARK                         _______ _______ _______ _____ _____    ______ ____
ROOT
ATOM      1  C   UNL     1       2.900   4.382  18.937  0.00  0.00    +0.000 A 
ATOM      2  C   UNL     1       2.719   4.699  20.283  0.00  0.00    +0.000 A 
ATOM      3  C   UNL     1       2.239   5.951  20.643  0.00  0.00    +0.000 A 
ATOM      4  C   UNL     1       1.918   6.918  19.670  0.00  0.00    +0.000 A 
ATOM      5  C   UNL     1       2.089   6.600  18.320  0.00  0.00    +0.000 A 
ATOM      6  C   UNL     1       2.566   5.332  17.958  0.00  0.00    +0.000 A 
ENDROOT
BRANCH   4   7
ATOM      7  C   UNL     1       1.462   8.240  20.182  0.00  0.00    +0.000 C 
ATOM      8  O   UNL     1       1.442   8.377  21.405  0.00  0.00    +0.000 OA
ATOM      9  N   UNL     1       1.068   9.215  19.273  0.00  0.00    +0.000 N 
ATOM     10  H   UNL     1       0.846   8.932  18.333  0.00  0.00    +0.000 HD
BRANCH   9  11
ATOM     11  C   UNL     1       0.716  10.549  19.618  0.00  0.00    +0.000 A 
ATOM     12  C   UNL     1      -0.255  10.814  20.599  0.00  0.00    +0.000 A 
ATOM     13  C   UNL     1      -0.708  12.109  20.871  0.00  0.00    +0.000 A 
ATOM     14  C   UNL     1      -0.122  13.174  20.192  0.00  0.00    +0.000 A 
ATOM     15  C   UNL     1       0.879  12.935  19.242  0.00  0.00    +0.000 A 
ATOM     16  C   UNL     1       1.337  11.634  18.966  0.00  0.00    +0.000 A 
BRANCH  13  17
ATOM     17  C   UNL     1      -1.831  12.286  21.777  0.00  0.00    +0.000 A 
ATOM     18  C   UNL     1      -1.973  11.857  23.130  0.00  0.00    +0.000 A 
ATOM     19  C   UNL     1      -3.228  12.245  23.535  0.00  0.00    +0.000 A 
ATOM     20  O   UNL     1      -3.867  12.896  22.531  0.00  0.00    +0.000 OA
ATOM     21  C   UNL     1      -3.017  12.919  21.468  0.00  0.00    +0.000 A 
ENDBRANCH  13  17
BRANCH  16  22
ATOM     22  N   UNL     1       2.221  11.458  17.881  0.00  0.00    +0.000 N 
ATOM     23  H   UNL     1       2.666  12.322  17.587  0.00  0.00    +0.000 HD
ATOM     24  H   UNL     1       2.900  10.720  18.003  0.00  0.00    +0.000 HD
ENDBRANCH  16  22
ENDBRANCH   9  11
ENDBRANCH   4   7
BRANCH   1  25
ATOM     25  C   UNL     1       3.429   3.024  18.559  0.00  0.00    +0.000 C 
BRANCH  25  26
ATOM     26  N   UNL     1       4.880   3.066  18.513  0.00  0.00    +0.000 N 
ATOM     27  H   UNL     1       5.336   2.640  19.315  0.00  0.00    +0.000 HD
BRANCH  26  31
ATOM     28  C   UNL     1       7.160   6.372  17.216  0.00  0.00    +0.000 A 
ATOM     29  C   UNL     1       6.961   6.108  18.579  0.00  0.00    +0.000 A 
ATOM     30  C   UNL     1       6.172   5.032  18.995  0.00  0.00    +0.000 A 
ATOM     31  C   UNL     1       5.515   4.225  18.067  0.00  0.00    +0.000 A 
ATOM     32  C   UNL     1       5.663   4.549  16.715  0.00  0.00    +0.000 A 
ATOM     33  C   UNL     1       6.457   5.617  16.272  0.00  0.00    +0.000 A 
BRANCH  28  35
ATOM     34  C   UNL     1       8.040   8.522  17.637  0.00  0.00    +0.000 C 
ATOM     35  O   UNL     1       8.011   7.361  16.805  0.00  0.00    +0.000 OA
ENDBRANCH  28  35
BRANCH  33  36
ATOM     36  O   UNL     1       6.436   5.723  14.908  0.00  0.00    +0.000 OA
ATOM     37  C   UNL     1       6.778   4.600  14.118  0.00  0.00    +0.000 C 
ENDBRANCH  33  36
ENDBRANCH  26  31
ENDBRANCH  25  26
ENDBRANCH   1  25
TORSDOF 9
ENDMDL
MODEL 6
REMARK VINA RESULT:      -8.0      6.309     10.428
REMARK  Name = 
REMARK  11 active torsions:
REMARK  status: ('A' for Active; 'I' for Inactive)
REMARK    1  A    between atoms: C_1  and  O_2
REMARK    2  A    between atoms: O_2  and  C_3
REMARK    3  A    between atoms: C_6  and  N_7
REMARK    4  A    between atoms: N_7  and  C_8
REMARK    5  A    between atoms: C_8  and  C_9
REMARK    6  A    between atoms: C_12  and  C_13
REMARK    7  A    between atoms: N_15  and  C_16
REMARK    8  A    between atoms: C_18  and  C_19
REMARK    9  A    between atoms: C_26  and  N_27
REMARK   10  A    between atoms: C_31  and  O_32
REMARK   11  A    between atoms: O_32  and  C_33
REMARK                            x       y       z     vdW  Elec       q    Type
REMARK                         _______ _______ _______ _____ _____    ______ ____
ROOT
ATOM      1  C   UNL     1       0.141  10.620  20.767  0.00  0.00    +0.000 A 
ATOM      2  C   UNL     1       0.626  10.347  19.488  0.00  0.00    +0.000 A 
ATOM      3  C   UNL     1       1.263   9.141  19.229  0.00  0.00    +0.000 A 
ATOM      4  C   UNL     1       1.424   8.169  20.237  0.00  0.00    +0.000 A 
ATOM      5  C   UNL     1       0.929   8.435  21.517  0.00  0.00    +0.000 A 
ATOM      6  C   UNL     1       0.280   9.651  21.774  0.00  0.00    +0.000 A 
ENDROOT
BRANCH   4   7
ATOM      7  C   UNL     1       2.167   6.938  19.850  0.00  0.00    +0.000 C 
ATOM      8  O   UNL     1       2.500   6.187  20.769  0.00  0.00    +0.000 OA
ATOM      9  N   UNL     1       2.461   6.721  18.510  0.00  0.00    +0.000 N 
ATOM     10  H   UNL     1       2.409   7.501  17.875  0.00  0.00    +0.000 HD
BRANCH   9  11
ATOM     11  C   UNL     1       3.066   5.543  17.993  0.00  0.00    +0.000 A 
ATOM     12  C   UNL     1       4.200   5.610  17.166  0.00  0.00    +0.000 A 
ATOM     13  C   UNL     1       4.741   4.479  16.546  0.00  0.00    +0.000 A 
ATOM     14  C   UNL     1       4.175   3.237  16.820  0.00  0.00    +0.000 A 
ATOM     15  C   UNL     1       3.071   3.142  17.677  0.00  0.00    +0.000 A 
ATOM     16  C   UNL     1       2.524   4.278  18.301  0.00  0.00    +0.000 A 
BRANCH  13  17
ATOM     17  C   UNL     1       5.808   4.651  15.574  0.00  0.00    +0.000 A 
ATOM     18  C   UNL     1       5.846   4.265  14.201  0.00  0.00    +0.000 A 
ATOM     19  C   UNL     1       7.084   4.626  13.726  0.00  0.00    +0.000 A 
ATOM     20  O   UNL     1       7.809   5.220  14.706  0.00  0.00    +0.000 OA
ATOM     21  C   UNL     1       7.032   5.234  15.823  0.00  0.00    +0.000 A 
ENDBRANCH  13  17
BRANCH  16  22
ATOM     22  N   UNL     1       1.315   4.127  19.011  0.00  0.00    +0.000 N 
ATOM     23  H   UNL     1       0.703   4.934  18.931  0.00  0.00    +0.000 HD
ATOM     24  H   UNL     1       0.815   3.270  18.819  0.00  0.00    +0.000 HD
ENDBRANCH  16  22
ENDBRANCH   9  11
ENDBRANCH   4   7
BRANCH   1  25
ATOM     25  C   UNL     1      -0.539  11.935  21.038  0.00  0.00    +0.000 C 
BRANCH  25  26
ATOM     26  N   UNL     1      -0.950  12.536  19.781  0.00  0.00    +0.000 N 
ATOM     27  H   UNL     1      -0.765  13.533  19.716  0.00  0.00    +0.000 HD
BRANCH  26  31
ATOM     28  C   UNL     1      -4.703  11.802  17.997  0.00  0.00    +0.000 A 
ATOM     29  C   UNL     1      -4.592  12.159  19.349  0.00  0.00    +0.000 A 
ATOM     30  C   UNL     1      -3.340  12.361  19.937  0.00  0.00    +0.000 A 
ATOM     31  C   UNL     1      -2.166  12.161  19.212  0.00  0.00    +0.000 A 
ATOM     32  C   UNL     1      -2.295  11.732  17.887  0.00  0.00    +0.000 A 
ATOM     33  C   UNL     1      -3.539  11.531  17.272  0.00  0.00    +0.000 A 
BRANCH  28  35
ATOM     34  C   UNL     1      -6.568  12.947  17.110  0.00  0.00    +0.000 C 
ATOM     35  O   UNL     1      -5.926  11.702  17.392  0.00  0.00    +0.000 OA
ENDBRANCH  28  35
BRANCH  33  36
ATOM     36  O   UNL     1      -3.394  11.113  15.977  0.00  0.00    +0.000 OA
ATOM     37  C   UNL     1      -2.966   9.788  15.717  0.00  0.00    +0.000 C 
ENDBRANCH  33  36
ENDBRANCH  26  31
ENDBRANCH  25  26
ENDBRANCH   1  25
TORSDOF 9
ENDMDL
MODEL 7
REMARK VINA RESULT:      -8.0      6.410     10.736
REMARK  Name = 
REMARK  11 active torsions:
REMARK  status: ('A' for Active; 'I' for Inactive)
REMARK    1  A    between atoms: C_1  and  O_2
REMARK    2  A    between atoms: O_2  and  C_3
REMARK    3  A    between atoms: C_6  and  N_7
REMARK    4  A    between atoms: N_7  and  C_8
REMARK    5  A    between atoms: C_8  and  C_9
REMARK    6  A    between atoms: C_12  and  C_13
REMARK    7  A    between atoms: N_15  and  C_16
REMARK    8  A    between atoms: C_18  and  C_19
REMARK    9  A    between atoms: C_26  and  N_27
REMARK   10  A    between atoms: C_31  and  O_32
REMARK   11  A    between atoms: O_32  and  C_33
REMARK                            x       y       z     vdW  Elec       q    Type
REMARK                         _______ _______ _______ _____ _____    ______ ____
ROOT
ATOM      1  C   UNL     1      -0.159  10.726  21.843  0.00  0.00    +0.000 A 
ATOM      2  C   UNL     1       0.297   9.545  22.430  0.00  0.00    +0.000 A 
ATOM      3  C   UNL     1       0.976   8.607  21.664  0.00  0.00    +0.000 A 
ATOM      4  C   UNL     1       1.228   8.825  20.295  0.00  0.00    +0.000 A 
ATOM      5  C   UNL     1       0.781  10.012  19.707  0.00  0.00    +0.000 A 
ATOM      6  C   UNL     1       0.102  10.961  20.484  0.00  0.00    +0.000 A 
ENDROOT
BRANCH   4   7
ATOM      7  C   UNL     1       1.920   7.724  19.570  0.00  0.00    +0.000 C 
ATOM      8  O   UNL     1       2.121   7.900  18.368  0.00  0.00    +0.000 OA
ATOM      9  N   UNL     1       2.271   6.574  20.267  0.00  0.00    +0.000 N 
ATOM     10  H   UNL     1       1.825   6.396  21.152  0.00  0.00    +0.000 HD
BRANCH   9  11
ATOM     11  C   UNL     1       3.026   5.498  19.727  0.00  0.00    +0.000 A 
ATOM     12  C   UNL     1       3.831   5.673  18.589  0.00  0.00    +0.000 A 
ATOM     13  C   UNL     1       4.488   4.607  17.966  0.00  0.00    +0.000 A 
ATOM     14  C   UNL     1       4.393   3.342  18.540  0.00  0.00    +0.000 A 
ATOM     15  C   UNL     1       3.631   3.153  19.700  0.00  0.00    +0.000 A 
ATOM     16  C   UNL     1       2.970   4.224  20.329  0.00  0.00    +0.000 A 
BRANCH  13  17
ATOM     17  C   UNL     1       5.162   4.839  16.699  0.00  0.00    +0.000 A 
ATOM     18  C   UNL     1       5.770   3.897  15.817  0.00  0.00    +0.000 A 
ATOM     19  C   UNL     1       6.292   4.619  14.770  0.00  0.00    +0.000 A 
ATOM     20  O   UNL     1       6.038   5.940  14.938  0.00  0.00    +0.000 OA
ATOM     21  C   UNL     1       5.353   6.069  16.106  0.00  0.00    +0.000 A 
ENDBRANCH  13  17
BRANCH  16  22
ATOM     22  N   UNL     1       2.088   3.927  21.389  0.00  0.00    +0.000 N 
ATOM     23  H   UNL     1       1.867   4.738  21.960  0.00  0.00    +0.000 HD
ATOM     24  H   UNL     1       1.250   3.433  21.117  0.00  0.00    +0.000 HD
ENDBRANCH  16  22
ENDBRANCH   9  11
ENDBRANCH   4   7
BRANCH   1  25
ATOM     25  C   UNL     1      -0.903  11.731  22.681  0.00  0.00    +0.000 C 
BRANCH  25  26
ATOM     26  N   UNL     1      -1.431  12.779  21.826  0.00  0.00    +0.000 N 
ATOM     27  H   UNL     1      -1.013  13.692  21.980  0.00  0.00    +0.000 HD
BRANCH  26  31
ATOM     28  C   UNL     1      -5.558  12.544  20.978  0.00  0.00    +0.000 A 
ATOM     29  C   UNL     1      -4.611  12.739  19.961  0.00  0.00    +0.000 A 
ATOM     30  C   UNL     1      -3.250  12.854  20.260  0.00  0.00    +0.000 A 
ATOM     31  C   UNL     1      -2.803  12.833  21.581  0.00  0.00    +0.000 A 
ATOM     32  C   UNL     1      -3.768  12.714  22.585  0.00  0.00    +0.000 A 
ATOM     33  C   UNL     1      -5.138  12.588  22.310  0.00  0.00    +0.000 A 
BRANCH  28  35
ATOM     34  C   UNL     1      -7.239  10.964  20.474  0.00  0.00    +0.000 C 
ATOM     35  O   UNL     1      -6.877  12.330  20.682  0.00  0.00    +0.000 OA
ENDBRANCH  28  35
BRANCH  33  36
ATOM     36  O   UNL     1      -5.871  12.487  23.462  0.00  0.00    +0.000 OA
ATOM     37  C   UNL     1      -5.203  12.429  24.708  0.00  0.00    +0.000 C 
ENDBRANCH  33  36
ENDBRANCH  26  31
ENDBRANCH  25  26
ENDBRANCH   1  25
TORSDOF 9
ENDMDL
MODEL 8
REMARK VINA RESULT:      -7.9      2.403      2.632
REMARK  Name = 
REMARK  11 active torsions:
REMARK  status: ('A' for Active; 'I' for Inactive)
REMARK    1  A    between atoms: C_1  and  O_2
REMARK    2  A    between atoms: O_2  and  C_3
REMARK    3  A    between atoms: C_6  and  N_7
REMARK    4  A    between atoms: N_7  and  C_8
REMARK    5  A    between atoms: C_8  and  C_9
REMARK    6  A    between atoms: C_12  and  C_13
REMARK    7  A    between atoms: N_15  and  C_16
REMARK    8  A    between atoms: C_18  and  C_19
REMARK    9  A    between atoms: C_26  and  N_27
REMARK   10  A    between atoms: C_31  and  O_32
REMARK   11  A    between atoms: O_32  and  C_33
REMARK                            x       y       z     vdW  Elec       q    Type
REMARK                         _______ _______ _______ _____ _____    ______ ____
ROOT
ATOM      1  C   UNL     1       7.361   6.049  17.657  0.00  0.00    +0.000 A 
ATOM      2  C   UNL     1       7.201   7.172  16.845  0.00  0.00    +0.000 A 
ATOM      3  C   UNL     1       7.712   8.399  17.247  0.00  0.00    +0.000 A 
ATOM      4  C   UNL     1       8.405   8.538  18.467  0.00  0.00    +0.000 A 
ATOM      5  C   UNL     1       8.575   7.412  19.278  0.00  0.00    +0.000 A 
ATOM      6  C   UNL     1       8.065   6.172  18.866  0.00  0.00    +0.000 A 
ENDROOT
BRANCH   4   7
ATOM      7  C   UNL     1       8.860   9.912  18.811  0.00  0.00    +0.000 C 
ATOM      8  O   UNL     1       9.172  10.108  19.987  0.00  0.00    +0.000 OA
ATOM      9  N   UNL     1       8.884  10.884  17.818  0.00  0.00    +0.000 N 
ATOM     10  H   UNL     1       8.354  10.721  16.976  0.00  0.00    +0.000 HD
BRANCH   9  11
ATOM     11  C   UNL     1       9.395  12.200  17.983  0.00  0.00    +0.000 A 
ATOM     12  C   UNL     1       8.547  13.277  18.289  0.00  0.00    +0.000 A 
ATOM     13  C   UNL     1       9.003  14.598  18.336  0.00  0.00    +0.000 A 
ATOM     14  C   UNL     1      10.361  14.839  18.143  0.00  0.00    +0.000 A 
ATOM     15  C   UNL     1      11.232  13.774  17.880  0.00  0.00    +0.000 A 
ATOM     16  C   UNL     1      10.776  12.444  17.831  0.00  0.00    +0.000 A 
BRANCH  13  17
ATOM     17  C   UNL     1       8.036  15.672  18.492  0.00  0.00    +0.000 A 
ATOM     18  C   UNL     1       6.655  15.597  18.840  0.00  0.00    +0.000 A 
ATOM     19  C   UNL     1       6.177  16.886  18.831  0.00  0.00    +0.000 A 
ATOM     20  O   UNL     1       7.170  17.753  18.514  0.00  0.00    +0.000 OA
ATOM     21  C   UNL     1       8.294  17.014  18.311  0.00  0.00    +0.000 A 
ENDBRANCH  13  17
BRANCH  16  22
ATOM     22  N   UNL     1      11.676  11.450  17.394  0.00  0.00    +0.000 N 
ATOM     23  H   UNL     1      11.622  11.277  16.395  0.00  0.00    +0.000 HD
ATOM     24  H   UNL     1      12.632  11.584  17.691  0.00  0.00    +0.000 HD
ENDBRANCH  16  22
ENDBRANCH   9  11
ENDBRANCH   4   7
BRANCH   1  25
ATOM     25  C   UNL     1       6.794   4.727  17.215  0.00  0.00    +0.000 C 
BRANCH  25  26
ATOM     26  N   UNL     1       5.581   4.951  16.451  0.00  0.00    +0.000 N 
ATOM     27  H   UNL     1       5.626   5.747  15.820  0.00  0.00    +0.000 HD
BRANCH  26  31
ATOM     28  C   UNL     1       2.043   4.408  18.687  0.00  0.00    +0.000 A 
ATOM     29  C   UNL     1       2.679   3.332  18.049  0.00  0.00    +0.000 A 
ATOM     30  C   UNL     1       3.829   3.532  17.279  0.00  0.00    +0.000 A 
ATOM     31  C   UNL     1       4.343   4.813  17.079  0.00  0.00    +0.000 A 
ATOM     32  C   UNL     1       3.653   5.881  17.660  0.00  0.00    +0.000 A 
ATOM     33  C   UNL     1       2.503   5.706  18.444  0.00  0.00    +0.000 A 
BRANCH  28  35
ATOM     34  C   UNL     1       1.230   3.329  20.624  0.00  0.00    +0.000 C 
ATOM     35  O   UNL     1       0.979   4.203  19.522  0.00  0.00    +0.000 OA
ENDBRANCH  28  35
BRANCH  33  36
ATOM     36  O   UNL     1       2.019   6.903  18.895  0.00  0.00    +0.000 OA
ATOM     37  C   UNL     1       2.067   7.197  20.279  0.00  0.00    +0.000 C 
ENDBRANCH  33  36
ENDBRANCH  26  31
ENDBRANCH  25  26
ENDBRANCH   1  25
TORSDOF 9
ENDMDL
MODEL 9
REMARK VINA RESULT:      -7.9      5.133      8.428
REMARK  Name = 
REMARK  11 active torsions:
REMARK  status: ('A' for Active; 'I' for Inactive)
REMARK    1  A    between atoms: C_1  and  O_2
REMARK    2  A    between atoms: O_2  and  C_3
REMARK    3  A    between atoms: C_6  and  N_7
REMARK    4  A    between atoms: N_7  and  C_8
REMARK    5  A    between atoms: C_8  and  C_9
REMARK    6  A    between atoms: C_12  and  C_13
REMARK    7  A    between atoms: N_15  and  C_16
REMARK    8  A    between atoms: C_18  and  C_19
REMARK    9  A    between atoms: C_26  and  N_27
REMARK   10  A    between atoms: C_31  and  O_32
REMARK   11  A    between atoms: O_32  and  C_33
REMARK                            x       y       z     vdW  Elec       q    Type
REMARK                         _______ _______ _______ _____ _____    ______ ____
ROOT
ATOM      1  C   UNL     1       2.505   5.291  19.229  0.00  0.00    +0.000 A 
ATOM      2  C   UNL     1       1.938   5.499  20.487  0.00  0.00    +0.000 A 
ATOM      3  C   UNL     1       1.501   6.766  20.850  0.00  0.00    +0.000 A 
ATOM      4  C   UNL     1       1.609   7.858  19.966  0.00  0.00    +0.000 A 
ATOM      5  C   UNL     1       2.167   7.650  18.701  0.00  0.00    +0.000 A 
ATOM      6  C   UNL     1       2.601   6.368  18.333  0.00  0.00    +0.000 A 
ENDROOT
BRANCH   4   7
ATOM      7  C   UNL     1       1.152   9.175  20.489  0.00  0.00    +0.000 C 
ATOM      8  O   UNL     1       1.468   9.444  21.648  0.00  0.00    +0.000 OA
ATOM      9  N   UNL     1       0.391   9.999  19.669  0.00  0.00    +0.000 N 
ATOM     10  H   UNL     1      -0.054   9.593  18.862  0.00  0.00    +0.000 HD
BRANCH   9  11
ATOM     11  C   UNL     1      -0.017  11.320  20.001  0.00  0.00    +0.000 A 
ATOM     12  C   UNL     1      -0.926  11.560  21.045  0.00  0.00    +0.000 A 
ATOM     13  C   UNL     1      -1.437  12.833  21.313  0.00  0.00    +0.000 A 
ATOM     14  C   UNL     1      -0.970  13.908  20.562  0.00  0.00    +0.000 A 
ATOM     15  C   UNL     1      -0.030  13.698  19.545  0.00  0.00    +0.000 A 
ATOM     16  C   UNL     1       0.486  12.418  19.272  0.00  0.00    +0.000 A 
BRANCH  13  17
ATOM     17  C   UNL     1      -2.499  12.974  22.297  0.00  0.00    +0.000 A 
ATOM     18  C   UNL     1      -2.876  12.085  23.347  0.00  0.00    +0.000 A 
ATOM     19  C   UNL     1      -3.953  12.660  23.979  0.00  0.00    +0.000 A 
ATOM     20  O   UNL     1      -4.259  13.848  23.401  0.00  0.00    +0.000 OA
ATOM     21  C   UNL     1      -3.375  14.034  22.383  0.00  0.00    +0.000 A 
ENDBRANCH  13  17
BRANCH  16  22
ATOM     22  N   UNL     1       1.295  12.258  18.128  0.00  0.00    +0.000 N 
ATOM     23  H   UNL     1       1.361  13.103  17.567  0.00  0.00    +0.000 HD
ATOM     24  H   UNL     1       2.209  11.867  18.307  0.00  0.00    +0.000 HD
ENDBRANCH  16  22
ENDBRANCH   9  11
ENDBRANCH   4   7
BRANCH   1  25
ATOM     25  C   UNL     1       2.984   3.915  18.850  0.00  0.00    +0.000 C 
BRANCH  25  26
ATOM     26  N   UNL     1       4.408   3.810  19.109  0.00  0.00    +0.000 N 
ATOM     27  H   UNL     1       4.691   4.137  20.028  0.00  0.00    +0.000 HD
BRANCH  26  31
ATOM     28  C   UNL     1       6.845   5.078  15.905  0.00  0.00    +0.000 A 
ATOM     29  C   UNL     1       5.900   4.053  15.746  0.00  0.00    +0.000 A 
ATOM     30  C   UNL     1       5.126   3.616  16.825  0.00  0.00    +0.000 A 
ATOM     31  C   UNL     1       5.311   4.148  18.101  0.00  0.00    +0.000 A 
ATOM     32  C   UNL     1       6.310   5.115  18.256  0.00  0.00    +0.000 A 
ATOM     33  C   UNL     1       7.093   5.576  17.187  0.00  0.00    +0.000 A 
BRANCH  28  35
ATOM     34  C   UNL     1       7.270   4.926  13.587  0.00  0.00    +0.000 C 
ATOM     35  O   UNL     1       7.531   5.577  14.832  0.00  0.00    +0.000 OA
ENDBRANCH  28  35
BRANCH  33  36
ATOM     36  O   UNL     1       7.995   6.518  17.600  0.00  0.00    +0.000 OA
ATOM     37  C   UNL     1       7.651   7.889  17.527  0.00  0.00    +0.000 C 
ENDBRANCH  33  36
ENDBRANCH  26  31
ENDBRANCH  25  26
ENDBRANCH   1  25
TORSDOF 9
ENDMDL
