MODEL 1
REMARK VINA RESULT:      -8.0      0.000      0.000
REMARK  Name = 
REMARK  2 active torsions:
REMARK  status: ('A' for Active; 'I' for Inactive)
REMARK    1  A    between atoms: C_1  and  C_2
REMARK    2  A    between atoms: N_8  and  C_9
REMARK                            x       y       z     vdW  Elec       q    Type
REMARK                         _______ _______ _______ _____ _____    ______ ____
ROOT
ATOM      1  C   UNL     1       6.742   3.249  11.730  0.00  0.00    +0.000 C 
ATOM      2  C   UNL     1       6.543   3.937  13.014  0.00  0.00    +0.000 A 
ATOM      3  C   UNL     1       7.311   4.749  13.817  0.00  0.00    +0.000 A 
ATOM      4  C   UNL     1       6.465   5.081  14.893  0.00  0.00    +0.000 A 
ATOM      5  N   UNL     1       6.796   5.924  15.935  0.00  0.00    +0.000 N 
ATOM      6  C   UNL     1       5.987   6.344  16.959  0.00  0.00    +0.000 C 
ATOM      7  O   UNL     1       6.420   7.192  17.735  0.00  0.00    +0.000 OA
ATOM      8  N   UNL     1       4.756   5.746  17.041  0.00  0.00    +0.000 N 
ATOM      9  N   UNL     1       5.283   4.462  14.772  0.00  0.00    +0.000 NA
ATOM     10  O   UNL     1       5.326   3.765  13.587  0.00  0.00    +0.000 OA
ATOM     11  H   UNL     1       7.710   6.353  15.931  0.00  0.00    +0.000 HD
ATOM     12  H   UNL     1       4.701   4.846  16.581  0.00  0.00    +0.000 HD
ENDROOT
BRANCH   8  13
ATOM     13  C   UNL     1       3.814   6.018  18.050  0.00  0.00    +0.000 A 
ATOM     14  C   UNL     1       3.241   7.292  18.109  0.00  0.00    +0.000 A 
ATOM     15  C   UNL     1       2.295   7.589  19.081  0.00  0.00    +0.000 A 
ATOM     16  C   UNL     1       1.945   6.621  20.021  0.00  0.00    +0.000 A 
ATOM     17  C   UNL     1       2.511   5.334  19.987  0.00  0.00    +0.000 A 
ATOM     18  C   UNL     1       2.182   4.389  20.968  0.00  0.00    +0.000 A 
ATOM     19  C   UNL     1       2.743   3.111  20.957  0.00  0.00    +0.000 A 
ATOM     20  C   UNL     1       3.636   2.758  19.956  0.00  0.00    +0.000 A 
ATOM     21  C   UNL     1       3.977   3.687  18.974  0.00  0.00    +0.000 A 
ATOM     22  C   UNL     1       3.436   5.000  18.968  0.00  0.00    +0.000 A 
ENDBRANCH   8  13
TORSDOF 1
ENDMDL
MODEL 2
REMARK VINA RESULT:      -8.0      1.190      2.689
REMARK  Name = 
REMARK  2 active torsions:
REMARK  status: ('A' for Active; 'I' for Inactive)
REMARK    1  A    between atoms: C_1  and  C_2
REMARK    2  A    between atoms: N_8  and  C_9
REMARK                            x       y       z     vdW  Elec       q    Type
REMARK                         _______ _______ _______ _____ _____    ______ ____
ROOT
ATOM      1  C   UNL     1       6.746   4.270  12.141  0.00  0.00    +0.000 C 
ATOM      2  C   UNL     1       6.605   4.301  13.604  0.00  0.00    +0.000 A 
ATOM      3  C   UNL     1       7.443   4.576  14.662  0.00  0.00    +0.000 A 
ATOM      4  C   UNL     1       6.624   4.448  15.801  0.00  0.00    +0.000 A 
ATOM      5  N   UNL     1       7.028   4.680  17.101  0.00  0.00    +0.000 N 
ATOM      6  C   UNL     1       6.255   4.651  18.233  0.00  0.00    +0.000 C 
ATOM      7  O   UNL     1       6.764   5.000  19.296  0.00  0.00    +0.000 OA
ATOM      8  N   UNL     1       4.971   4.199  18.077  0.00  0.00    +0.000 N 
ATOM      9  N   UNL     1       5.388   4.068  15.453  0.00  0.00    +0.000 NA
ATOM     10  O   UNL     1       5.372   3.998  14.080  0.00  0.00    +0.000 OA
ATOM     11  H   UNL     1       7.980   4.975  17.260  0.00  0.00    +0.000 HD
ATOM     12  H   UNL     1       4.831   3.624  17.257  0.00  0.00    +0.000 HD
ENDROOT
BRANCH   8  13
ATOM     13  C   UNL     1       4.051   4.060  19.133  0.00  0.00    +0.000 A 
ATOM     14  C   UNL     1       3.969   2.832  19.796  0.00  0.00    +0.000 A 
ATOM     15  C   UNL     1       3.085   2.666  20.854  0.00  0.00    +0.000 A 
ATOM     16  C   UNL     1       2.253   3.720  21.229  0.00  0.00    +0.000 A 
ATOM     17  C   UNL     1       2.312   4.964  20.574  0.00  0.00    +0.000 A 
ATOM     18  C   UNL     1       1.436   5.996  20.935  0.00  0.00    +0.000 A 
ATOM     19  C   UNL     1       1.472   7.232  20.288  0.00  0.00    +0.000 A 
ATOM     20  C   UNL     1       2.395   7.456  19.276  0.00  0.00    +0.000 A 
ATOM     21  C   UNL     1       3.271   6.438  18.903  0.00  0.00    +0.000 A 
ATOM     22  C   UNL     1       3.247   5.164  19.530  0.00  0.00    +0.000 A 
ENDBRANCH   8  13
TORSDOF 1
ENDMDL
MODEL 3
REMARK VINA RESULT:      -7.8      3.506      6.977
REMARK  Name = 
REMARK  2 active torsions:
REMARK  status: ('A' for Active; 'I' for Inactive)
REMARK    1  A    between atoms: C_1  and  C_2
REMARK    2  A    between atoms: N_8  and  C_9
REMARK                            x       y       z     vdW  Elec       q    Type
REMARK                         _______ _______ _______ _____ _____    ______ ____
ROOT
ATOM      1  C   UNL     1      -0.760  10.308  23.159  0.00  0.00    +0.000 C 
ATOM      2  C   UNL     1      -0.091   9.817  21.946  0.00  0.00    +0.000 A 
ATOM      3  C   UNL     1       0.108  10.305  20.673  0.00  0.00    +0.000 A 
ATOM      4  C   UNL     1       0.873   9.312  20.032  0.00  0.00    +0.000 A 
ATOM      5  N   UNL     1       1.355   9.389  18.740  0.00  0.00    +0.000 N 
ATOM      6  C   UNL     1       2.170   8.493  18.098  0.00  0.00    +0.000 C 
ATOM      7  O   UNL     1       2.596   8.786  16.983  0.00  0.00    +0.000 OA
ATOM      8  N   UNL     1       2.416   7.318  18.759  0.00  0.00    +0.000 N 
ATOM      9  N   UNL     1       1.075   8.270  20.849  0.00  0.00    +0.000 NA
ATOM     10  O   UNL     1       0.490   8.597  22.050  0.00  0.00    +0.000 OA
ATOM     11  H   UNL     1       1.159  10.223  18.206  0.00  0.00    +0.000 HD
ATOM     12  H   UNL     1       1.725   7.084  19.460  0.00  0.00    +0.000 HD
ENDROOT
BRANCH   8  13
ATOM     13  C   UNL     1       3.192   6.267  18.235  0.00  0.00    +0.000 A 
ATOM     14  C   UNL     1       4.417   6.570  17.635  0.00  0.00    +0.000 A 
ATOM     15  C   UNL     1       5.215   5.555  17.124  0.00  0.00    +0.000 A 
ATOM     16  C   UNL     1       4.772   4.235  17.180  0.00  0.00    +0.000 A 
ATOM     17  C   UNL     1       3.541   3.904  17.774  0.00  0.00    +0.000 A 
ATOM     18  C   UNL     1       3.091   2.577  17.780  0.00  0.00    +0.000 A 
ATOM     19  C   UNL     1       1.866   2.233  18.354  0.00  0.00    +0.000 A 
ATOM     20  C   UNL     1       1.078   3.212  18.940  0.00  0.00    +0.000 A 
ATOM     21  C   UNL     1       1.509   4.538  18.939  0.00  0.00    +0.000 A 
ATOM     22  C   UNL     1       2.742   4.923  18.348  0.00  0.00    +0.000 A 
ENDBRANCH   8  13
TORSDOF 1
ENDMDL
MODEL 4
REMARK VINA RESULT:      -7.7      3.238      5.543
REMARK  Name = 
REMARK  2 active torsions:
REMARK  status: ('A' for Active; 'I' for Inactive)
REMARK    1  A    between atoms: C_1  and  C_2
REMARK    2  A    between atoms: N_8  and  C_9
REMARK                            x       y       z     vdW  Elec       q    Type
REMARK                         _______ _______ _______ _____ _____    ______ ____
ROOT
ATOM      1  C   UNL     1       9.240  12.397  18.360  0.00  0.00    +0.000 C 
ATOM      2  C   UNL     1       8.927  10.961  18.377  0.00  0.00    +0.000 A 
ATOM      3  C   UNL     1       9.334   9.879  19.126  0.00  0.00    +0.000 A 
ATOM      4  C   UNL     1       8.591   8.798  18.614  0.00  0.00    +0.000 A 
ATOM      5  N   UNL     1       8.635   7.504  19.094  0.00  0.00    +0.000 N 
ATOM      6  C   UNL     1       7.876   6.437  18.689  0.00  0.00    +0.000 C 
ATOM      7  O   UNL     1       7.969   5.383  19.314  0.00  0.00    +0.000 OA
ATOM      8  N   UNL     1       7.089   6.638  17.585  0.00  0.00    +0.000 N 
ATOM      9  N   UNL     1       7.828   9.194  17.586  0.00  0.00    +0.000 NA
ATOM     10  O   UNL     1       8.023  10.548  17.454  0.00  0.00    +0.000 OA
ATOM     11  H   UNL     1       9.234   7.307  19.882  0.00  0.00    +0.000 HD
ATOM     12  H   UNL     1       7.395   7.400  16.992  0.00  0.00    +0.000 HD
ENDROOT
BRANCH   8  13
ATOM     13  C   UNL     1       6.280   5.645  17.002  0.00  0.00    +0.000 A 
ATOM     14  C   UNL     1       6.781   4.921  15.916  0.00  0.00    +0.000 A 
ATOM     15  C   UNL     1       6.016   3.922  15.329  0.00  0.00    +0.000 A 
ATOM     16  C   UNL     1       4.730   3.669  15.805  0.00  0.00    +0.000 A 
ATOM     17  C   UNL     1       4.201   4.387  16.893  0.00  0.00    +0.000 A 
ATOM     18  C   UNL     1       2.890   4.151  17.327  0.00  0.00    +0.000 A 
ATOM     19  C   UNL     1       2.344   4.863  18.396  0.00  0.00    +0.000 A 
ATOM     20  C   UNL     1       3.108   5.817  19.053  0.00  0.00    +0.000 A 
ATOM     21  C   UNL     1       4.413   6.067  18.631  0.00  0.00    +0.000 A 
ATOM     22  C   UNL     1       4.991   5.371  17.535  0.00  0.00    +0.000 A 
ENDBRANCH   8  13
TORSDOF 1
ENDMDL
MODEL 5
REMARK VINA RESULT:      -7.5      1.194      1.225
REMARK  Name = 
REMARK  2 active torsions:
REMARK  status: ('A' for Active; 'I' for Inactive)
REMARK    1  A    between atoms: C_1  and  C_2
REMARK    2  A    between atoms: N_8  and  C_9
REMARK                            x       y       z     vdW  Elec       q    Type
REMARK                         _______ _______ _______ _____ _____    ______ ____
ROOT
ATOM      1  C   UNL     1       6.614   3.651  11.913  0.00  0.00    +0.000 C 
ATOM      2  C   UNL     1       6.384   3.869  13.348  0.00  0.00    +0.000 A 
ATOM      3  C   UNL     1       7.166   3.833  14.481  0.00  0.00    +0.000 A 
ATOM      4  C   UNL     1       6.289   4.183  15.525  0.00  0.00    +0.000 A 
ATOM      5  N   UNL     1       6.647   4.322  16.852  0.00  0.00    +0.000 N 
ATOM      6  C   UNL     1       5.855   4.740  17.890  0.00  0.00    +0.000 C 
ATOM      7  O   UNL     1       6.378   4.917  18.988  0.00  0.00    +0.000 OA
ATOM      8  N   UNL     1       4.522   4.896  17.610  0.00  0.00    +0.000 N 
ATOM      9  N   UNL     1       5.047   4.365  15.058  0.00  0.00    +0.000 NA
ATOM     10  O   UNL     1       5.113   4.189  13.695  0.00  0.00    +0.000 OA
ATOM     11  H   UNL     1       7.612   4.175  17.105  0.00  0.00    +0.000 HD
ATOM     12  H   UNL     1       4.205   4.374  16.804  0.00  0.00    +0.000 HD
ENDROOT
BRANCH   8  13
ATOM     13  C   UNL     1       3.556   5.274  18.562  0.00  0.00    +0.000 A 
ATOM     14  C   UNL     1       3.305   6.634  18.761  0.00  0.00    +0.000 A 
ATOM     15  C   UNL     1       2.346   7.041  19.679  0.00  0.00    +0.000 A 
ATOM     16  C   UNL     1       1.660   6.086  20.428  0.00  0.00    +0.000 A 
ATOM     17  C   UNL     1       1.899   4.711  20.251  0.00  0.00    +0.000 A 
ATOM     18  C   UNL     1       1.233   3.769  21.046  0.00  0.00    +0.000 A 
ATOM     19  C   UNL     1       1.468   2.401  20.892  0.00  0.00    +0.000 A 
ATOM     20  C   UNL     1       2.365   1.957  19.932  0.00  0.00    +0.000 A 
ATOM     21  C   UNL     1       3.038   2.882  19.135  0.00  0.00    +0.000 A 
ATOM     22  C   UNL     1       2.835   4.281  19.279  0.00  0.00    +0.000 A 
ENDBRANCH   8  13
TORSDOF 1
ENDMDL
MODEL 6
REMARK VINA RESULT:      -7.5      3.821      6.222
REMARK  Name = 
REMARK  2 active torsions:
REMARK  status: ('A' for Active; 'I' for Inactive)
REMARK    1  A    between atoms: C_1  and  C_2
REMARK    2  A    between atoms: N_8  and  C_9
REMARK                            x       y       z     vdW  Elec       q    Type
REMARK                         _______ _______ _______ _____ _____    ______ ____
ROOT
ATOM      1  C   UNL     1       7.349  -1.603  22.885  0.00  0.00    +0.000 C 
ATOM      2  C   UNL     1       6.578  -0.755  21.964  0.00  0.00    +0.000 A 
ATOM      3  C   UNL     1       6.025  -0.921  20.714  0.00  0.00    +0.000 A 
ATOM      4  C   UNL     1       5.391   0.307  20.445  0.00  0.00    +0.000 A 
ATOM      5  N   UNL     1       4.656   0.591  19.311  0.00  0.00    +0.000 N 
ATOM      6  C   UNL     1       3.952   1.736  19.037  0.00  0.00    +0.000 C 
ATOM      7  O   UNL     1       3.257   1.765  18.024  0.00  0.00    +0.000 OA
ATOM      8  N   UNL     1       4.114   2.771  19.921  0.00  0.00    +0.000 N 
ATOM      9  N   UNL     1       5.596   1.174  21.445  0.00  0.00    +0.000 NA
ATOM     10  O   UNL     1       6.320   0.501  22.402  0.00  0.00    +0.000 OA
ATOM     11  H   UNL     1       4.548  -0.133  18.617  0.00  0.00    +0.000 HD
ATOM     12  H   UNL     1       4.966   2.723  20.464  0.00  0.00    +0.000 HD
ENDROOT
BRANCH   8  13
ATOM     13  C   UNL     1       3.506   4.033  19.776  0.00  0.00    +0.000 A 
ATOM     14  C   UNL     1       2.434   4.362  20.609  0.00  0.00    +0.000 A 
ATOM     15  C   UNL     1       1.823   5.605  20.505  0.00  0.00    +0.000 A 
ATOM     16  C   UNL     1       2.262   6.510  19.539  0.00  0.00    +0.000 A 
ATOM     17  C   UNL     1       3.335   6.200  18.684  0.00  0.00    +0.000 A 
ATOM     18  C   UNL     1       3.731   7.103  17.689  0.00  0.00    +0.000 A 
ATOM     19  C   UNL     1       4.786   6.807  16.824  0.00  0.00    +0.000 A 
ATOM     20  C   UNL     1       5.466   5.604  16.950  0.00  0.00    +0.000 A 
ATOM     21  C   UNL     1       5.082   4.693  17.932  0.00  0.00    +0.000 A 
ATOM     22  C   UNL     1       4.002   4.958  18.816  0.00  0.00    +0.000 A 
ENDBRANCH   8  13
TORSDOF 1
ENDMDL
MODEL 7
REMARK VINA RESULT:      -7.5      1.338      2.945
REMARK  Name = 
REMARK  2 active torsions:
REMARK  status: ('A' for Active; 'I' for Inactive)
REMARK    1  A    between atoms: C_1  and  C_2
REMARK    2  A    between atoms: N_8  and  C_9
REMARK                            x       y       z     vdW  Elec       q    Type
REMARK                         _______ _______ _______ _____ _____    ______ ____
ROOT
ATOM      1  C   UNL     1       6.337   3.602  12.321  0.00  0.00    +0.000 C 
ATOM      2  C   UNL     1       6.147   3.859  13.755  0.00  0.00    +0.000 A 
ATOM      3  C   UNL     1       6.968   3.884  14.861  0.00  0.00    +0.000 A 
ATOM      4  C   UNL     1       6.115   4.239  15.924  0.00  0.00    +0.000 A 
ATOM      5  N   UNL     1       6.512   4.433  17.232  0.00  0.00    +0.000 N 
ATOM      6  C   UNL     1       5.741   4.858  18.284  0.00  0.00    +0.000 C 
ATOM      7  O   UNL     1       6.295   5.087  19.357  0.00  0.00    +0.000 OA
ATOM      8  N   UNL     1       4.396   4.962  18.045  0.00  0.00    +0.000 N 
ATOM      9  N   UNL     1       4.852   4.366  15.494  0.00  0.00    +0.000 NA
ATOM     10  O   UNL     1       4.879   4.149  14.136  0.00  0.00    +0.000 OA
ATOM     11  H   UNL     1       7.490   4.326  17.456  0.00  0.00    +0.000 HD
ATOM     12  H   UNL     1       4.069   4.404  17.267  0.00  0.00    +0.000 HD
ENDROOT
BRANCH   8  13
ATOM     13  C   UNL     1       3.450   5.339  19.017  0.00  0.00    +0.000 A 
ATOM     14  C   UNL     1       3.121   4.427  20.024  0.00  0.00    +0.000 A 
ATOM     15  C   UNL     1       2.205   4.773  21.009  0.00  0.00    +0.000 A 
ATOM     16  C   UNL     1       1.588   6.023  20.968  0.00  0.00    +0.000 A 
ATOM     17  C   UNL     1       1.898   6.956  19.962  0.00  0.00    +0.000 A 
ATOM     18  C   UNL     1       1.233   8.188  19.910  0.00  0.00    +0.000 A 
ATOM     19  C   UNL     1       1.519   9.121  18.912  0.00  0.00    +0.000 A 
ATOM     20  C   UNL     1       2.483   8.837  17.956  0.00  0.00    +0.000 A 
ATOM     21  C   UNL     1       3.151   7.613  17.991  0.00  0.00    +0.000 A 
ATOM     22  C   UNL     1       2.870   6.637  18.983  0.00  0.00    +0.000 A 
ENDBRANCH   8  13
TORSDOF 1
ENDMDL
MODEL 8
REMARK VINA RESULT:      -7.5      1.139      1.141
REMARK  Name = 
REMARK  2 active torsions:
REMARK  status: ('A' for Active; 'I' for Inactive)
REMARK    1  A    between atoms: C_1  and  C_2
REMARK    2  A    between atoms: N_8  and  C_9
REMARK                            x       y       z     vdW  Elec       q    Type
REMARK                         _______ _______ _______ _____ _____    ______ ____
ROOT
ATOM      1  C   UNL     1       6.977   2.861  11.164  0.00  0.00    +0.000 C 
ATOM      2  C   UNL     1       6.724   3.590  12.416  0.00  0.00    +0.000 A 
ATOM      3  C   UNL     1       7.428   4.493  13.181  0.00  0.00    +0.000 A 
ATOM      4  C   UNL     1       6.557   4.808  14.241  0.00  0.00    +0.000 A 
ATOM      5  N   UNL     1       6.822   5.721  15.244  0.00  0.00    +0.000 N 
ATOM      6  C   UNL     1       5.981   6.125  16.248  0.00  0.00    +0.000 C 
ATOM      7  O   UNL     1       6.348   7.037  16.985  0.00  0.00    +0.000 OA
ATOM      8  N   UNL     1       4.797   5.441  16.359  0.00  0.00    +0.000 N 
ATOM      9  N   UNL     1       5.424   4.099  14.149  0.00  0.00    +0.000 NA
ATOM     10  O   UNL     1       5.523   3.355  12.997  0.00  0.00    +0.000 OA
ATOM     11  H   UNL     1       7.701   6.215  15.220  0.00  0.00    +0.000 HD
ATOM     12  H   UNL     1       4.811   4.520  15.940  0.00  0.00    +0.000 HD
ENDROOT
BRANCH   8  13
ATOM     13  C   UNL     1       3.835   5.689  17.355  0.00  0.00    +0.000 A 
ATOM     14  C   UNL     1       3.637   7.003  17.787  0.00  0.00    +0.000 A 
ATOM     15  C   UNL     1       2.682   7.285  18.755  0.00  0.00    +0.000 A 
ATOM     16  C   UNL     1       1.947   6.244  19.321  0.00  0.00    +0.000 A 
ATOM     17  C   UNL     1       2.132   4.912  18.908  0.00  0.00    +0.000 A 
ATOM     18  C   UNL     1       1.417   3.875  19.522  0.00  0.00    +0.000 A 
ATOM     19  C   UNL     1       1.597   2.546  19.133  0.00  0.00    +0.000 A 
ATOM     20  C   UNL     1       2.488   2.238  18.116  0.00  0.00    +0.000 A 
ATOM     21  C   UNL     1       3.210   3.259  17.498  0.00  0.00    +0.000 A 
ATOM     22  C   UNL     1       3.063   4.618  17.883  0.00  0.00    +0.000 A 
ENDBRANCH   8  13
TORSDOF 1
ENDMDL
MODEL 9
REMARK VINA RESULT:      -7.4      3.543      7.069
REMARK  Name = 
REMARK  2 active torsions:
REMARK  status: ('A' for Active; 'I' for Inactive)
REMARK    1  A    between atoms: C_1  and  C_2
REMARK    2  A    between atoms: N_8  and  C_9
REMARK                            x       y       z     vdW  Elec       q    Type
REMARK                         _______ _______ _______ _____ _____    ______ ____
ROOT
ATOM      1  C   UNL     1       0.052  11.879  20.498  0.00  0.00    +0.000 C 
ATOM      2  C   UNL     1       0.582  10.508  20.465  0.00  0.00    +0.000 A 
ATOM      3  C   UNL     1       0.779   9.513  21.396  0.00  0.00    +0.000 A 
ATOM      4  C   UNL     1       1.297   8.435  20.654  0.00  0.00    +0.000 A 
ATOM      5  N   UNL     1       1.606   7.191  21.168  0.00  0.00    +0.000 N 
ATOM      6  C   UNL     1       2.033   6.085  20.478  0.00  0.00    +0.000 C 
ATOM      7  O   UNL     1       2.147   5.025  21.088  0.00  0.00    +0.000 OA
ATOM      8  N   UNL     1       2.327   6.275  19.152  0.00  0.00    +0.000 N 
ATOM      9  N   UNL     1       1.453   8.778  19.368  0.00  0.00    +0.000 NA
ATOM     10  O   UNL     1       0.986  10.066  19.249  0.00  0.00    +0.000 OA
ATOM     11  H   UNL     1       1.442   7.025  22.149  0.00  0.00    +0.000 HD
ATOM     12  H   UNL     1       2.532   7.235  18.907  0.00  0.00    +0.000 HD
ENDROOT
BRANCH   8  13
ATOM     13  C   UNL     1       2.818   5.267  18.302  0.00  0.00    +0.000 A 
ATOM     14  C   UNL     1       2.082   4.087  18.162  0.00  0.00    +0.000 A 
ATOM     15  C   UNL     1       2.530   3.080  17.318  0.00  0.00    +0.000 A 
ATOM     16  C   UNL     1       3.737   3.236  16.637  0.00  0.00    +0.000 A 
ATOM     17  C   UNL     1       4.499   4.411  16.766  0.00  0.00    +0.000 A 
ATOM     18  C   UNL     1       5.732   4.531  16.111  0.00  0.00    +0.000 A 
ATOM     19  C   UNL     1       6.508   5.685  16.238  0.00  0.00    +0.000 A 
ATOM     20  C   UNL     1       6.054   6.741  17.014  0.00  0.00    +0.000 A 
ATOM     21  C   UNL     1       4.831   6.636  17.676  0.00  0.00    +0.000 A 
ATOM     22  C   UNL     1       4.027   5.469  17.581  0.00  0.00    +0.000 A 
ENDBRANCH   8  13
TORSDOF 1
ENDMDL
