MODEL 1
REMARK VINA RESULT:      -6.8      0.000      0.000
REMARK  Name = 
REMARK  7 active torsions:
REMARK  status: ('A' for Active; 'I' for Inactive)
REMARK    1  A    between atoms: C_1  and  C_2
REMARK    2  A    between atoms: N_4  and  C_5
REMARK    3  A    between atoms: C_8  and  O_9
REMARK    4  A    between atoms: C_8  and  C_10
REMARK    5  A    between atoms: C_10  and  O_12
REMARK    6  A    between atoms: C_13  and  O_14
REMARK    7  A    between atoms: C_15  and  O_16
REMARK                            x       y       z     vdW  Elec       q    Type
REMARK                         _______ _______ _______ _____ _____    ______ ____
ROOT
ATOM      1  C   UNL     1       4.926   4.401  18.656  0.00  0.00    +0.000 C 
ATOM      2  N   UNL     1       4.123   4.338  17.443  0.00  0.00    +0.000 NA
ATOM      3  C   UNL     1       4.943   4.163  16.239  0.00  0.00    +0.000 C 
ATOM      4  C   UNL     1       6.090   5.183  16.116  0.00  0.00    +0.000 C 
ATOM      5  C   UNL     1       6.960   5.217  17.390  0.00  0.00    +0.000 C 
ATOM      6  C   UNL     1       6.075   5.448  18.631  0.00  0.00    +0.000 C 
ATOM      7  H   UNL     1       3.551   5.186  17.408  0.00  0.00    +0.000 HD
ENDROOT
BRANCH   1  11
ATOM      8  C   UNL     1       2.102   4.175  21.161  0.00  0.00    +0.000 C 
ATOM      9  C   UNL     1       3.029   3.672  20.086  0.00  0.00    +0.000 C 
ATOM     10  O   UNL     1       2.954   2.550  19.597  0.00  0.00    +0.000 OA
ATOM     11  N   UNL     1       4.000   4.584  19.744  0.00  0.00    +0.000 N 
ATOM     12  H   UNL     1       3.881   5.533  20.069  0.00  0.00    +0.000 HD
ENDBRANCH   1  11
BRANCH   4  13
ATOM     13  O   UNL     1       5.552   6.504  15.862  0.00  0.00    +0.000 OA
ATOM     14  H   UNL     1       5.807   6.765  14.955  0.00  0.00    +0.000 HD
ENDBRANCH   4  13
BRANCH   4  15
ATOM     15  C   UNL     1       6.930   4.812  14.888  0.00  0.00    +0.000 C 
ATOM     16  O   UNL     1       7.877   5.462  14.469  0.00  0.00    +0.000 OA
BRANCH  15  17
ATOM     17  O   UNL     1       6.526   3.643  14.327  0.00  0.00    +0.000 OA
ATOM     18  H   UNL     1       5.584   3.750  14.046  0.00  0.00    +0.000 HD
ENDBRANCH  15  17
ENDBRANCH   4  15
BRANCH   5  19
ATOM     19  O   UNL     1       7.728   4.030  17.658  0.00  0.00    +0.000 OA
ATOM     20  H   UNL     1       8.018   3.607  16.826  0.00  0.00    +0.000 HD
ENDBRANCH   5  19
BRANCH   6  21
ATOM     21  O   UNL     1       6.889   5.308  19.811  0.00  0.00    +0.000 OA
ATOM     22  H   UNL     1       7.539   6.041  19.774  0.00  0.00    +0.000 HD
ENDBRANCH   6  21
TORSDOF 6
ENDMDL
MODEL 2
REMARK VINA RESULT:      -6.6      1.733      2.607
REMARK  Name = 
REMARK  7 active torsions:
REMARK  status: ('A' for Active; 'I' for Inactive)
REMARK    1  A    between atoms: C_1  and  C_2
REMARK    2  A    between atoms: N_4  and  C_5
REMARK    3  A    between atoms: C_8  and  O_9
REMARK    4  A    between atoms: C_8  and  C_10
REMARK    5  A    between atoms: C_10  and  O_12
REMARK    6  A    between atoms: C_13  and  O_14
REMARK    7  A    between atoms: C_15  and  O_16
REMARK                            x       y       z     vdW  Elec       q    Type
REMARK                         _______ _______ _______ _____ _____    ______ ____
ROOT
ATOM      1  C   UNL     1       4.265   4.324  19.025  0.00  0.00    +0.000 C 
ATOM      2  N   UNL     1       5.602   3.749  19.060  0.00  0.00    +0.000 NA
ATOM      3  C   UNL     1       6.543   4.470  18.195  0.00  0.00    +0.000 C 
ATOM      4  C   UNL     1       6.037   4.662  16.753  0.00  0.00    +0.000 C 
ATOM      5  C   UNL     1       4.636   5.306  16.722  0.00  0.00    +0.000 C 
ATOM      6  C   UNL     1       3.661   4.500  17.603  0.00  0.00    +0.000 C 
ATOM      7  H   UNL     1       5.519   2.760  18.809  0.00  0.00    +0.000 HD
ENDROOT
BRANCH   1  11
ATOM      8  C   UNL     1       1.909   2.987  21.663  0.00  0.00    +0.000 C 
ATOM      9  C   UNL     1       2.504   4.028  20.752  0.00  0.00    +0.000 C 
ATOM     10  O   UNL     1       2.146   5.201  20.739  0.00  0.00    +0.000 OA
ATOM     11  N   UNL     1       3.455   3.517  19.901  0.00  0.00    +0.000 N 
ATOM     12  H   UNL     1       3.805   2.590  20.098  0.00  0.00    +0.000 HD
ENDBRANCH   1  11
BRANCH   4  13
ATOM     13  O   UNL     1       5.997   3.384  16.069  0.00  0.00    +0.000 OA
ATOM     14  H   UNL     1       6.911   3.151  15.811  0.00  0.00    +0.000 HD
ENDBRANCH   4  13
BRANCH   4  15
ATOM     15  C   UNL     1       7.056   5.526  16.000  0.00  0.00    +0.000 C 
ATOM     16  O   UNL     1       7.441   5.315  14.858  0.00  0.00    +0.000 OA
BRANCH  15  17
ATOM     17  O   UNL     1       7.464   6.591  16.736  0.00  0.00    +0.000 OA
ATOM     18  H   UNL     1       7.777   6.255  17.611  0.00  0.00    +0.000 HD
ENDBRANCH  15  17
ENDBRANCH   4  15
BRANCH   5  19
ATOM     19  O   UNL     1       4.562   6.668  17.181  0.00  0.00    +0.000 OA
ATOM     20  H   UNL     1       4.178   7.247  16.494  0.00  0.00    +0.000 HD
ENDBRANCH   5  19
BRANCH   6  21
ATOM     21  O   UNL     1       2.415   5.217  17.687  0.00  0.00    +0.000 OA
ATOM     22  H   UNL     1       1.895   4.764  18.384  0.00  0.00    +0.000 HD
ENDBRANCH   6  21
TORSDOF 6
ENDMDL
MODEL 3
REMARK VINA RESULT:      -6.6      2.173      5.180
REMARK  Name = 
REMARK  7 active torsions:
REMARK  status: ('A' for Active; 'I' for Inactive)
REMARK    1  A    between atoms: C_1  and  C_2
REMARK    2  A    between atoms: N_4  and  C_5
REMARK    3  A    between atoms: C_8  and  O_9
REMARK    4  A    between atoms: C_8  and  C_10
REMARK    5  A    between atoms: C_10  and  O_12
REMARK    6  A    between atoms: C_13  and  O_14
REMARK    7  A    between atoms: C_15  and  O_16
REMARK                            x       y       z     vdW  Elec       q    Type
REMARK                         _______ _______ _______ _____ _____    ______ ____
ROOT
ATOM      1  C   UNL     1       5.224   4.508  18.430  0.00  0.00    +0.000 C 
ATOM      2  N   UNL     1       4.338   5.162  19.381  0.00  0.00    +0.000 NA
ATOM      3  C   UNL     1       3.225   4.300  19.792  0.00  0.00    +0.000 C 
ATOM      4  C   UNL     1       2.448   3.685  18.613  0.00  0.00    +0.000 C 
ATOM      5  C   UNL     1       3.389   2.960  17.628  0.00  0.00    +0.000 C 
ATOM      6  C   UNL     1       4.520   3.907  17.180  0.00  0.00    +0.000 C 
ATOM      7  H   UNL     1       4.019   6.036  18.955  0.00  0.00    +0.000 HD
ENDROOT
BRANCH   1  11
ATOM      8  C   UNL     1       8.078   6.989  18.458  0.00  0.00    +0.000 C 
ATOM      9  C   UNL     1       7.222   5.872  18.995  0.00  0.00    +0.000 C 
ATOM     10  O   UNL     1       7.401   5.349  20.089  0.00  0.00    +0.000 OA
ATOM     11  N   UNL     1       6.252   5.466  18.110  0.00  0.00    +0.000 N 
ATOM     12  H   UNL     1       6.069   6.060  17.315  0.00  0.00    +0.000 HD
ENDBRANCH   1  11
BRANCH   4  13
ATOM     13  O   UNL     1       1.716   4.720  17.910  0.00  0.00    +0.000 OA
ATOM     14  H   UNL     1       1.238   4.301  17.167  0.00  0.00    +0.000 HD
ENDBRANCH   4  13
BRANCH   4  15
ATOM     15  C   UNL     1       1.400   2.721  19.181  0.00  0.00    +0.000 C 
ATOM     16  O   UNL     1       0.899   2.812  20.293  0.00  0.00    +0.000 OA
BRANCH  15  17
ATOM     17  O   UNL     1       1.052   1.760  18.287  0.00  0.00    +0.000 OA
ATOM     18  H   UNL     1       0.138   1.959  17.966  0.00  0.00    +0.000 HD
ENDBRANCH  15  17
ENDBRANCH   4  15
BRANCH   5  19
ATOM     19  O   UNL     1       4.031   1.774  18.131  0.00  0.00    +0.000 OA
ATOM     20  H   UNL     1       4.133   1.818  19.102  0.00  0.00    +0.000 HD
ENDBRANCH   5  19
BRANCH   6  21
ATOM     21  O   UNL     1       5.469   3.155  16.400  0.00  0.00    +0.000 OA
ATOM     22  H   UNL     1       5.194   3.270  15.466  0.00  0.00    +0.000 HD
ENDBRANCH   6  21
TORSDOF 6
ENDMDL
MODEL 4
REMARK VINA RESULT:      -6.5      2.052      5.931
REMARK  Name = 
REMARK  7 active torsions:
REMARK  status: ('A' for Active; 'I' for Inactive)
REMARK    1  A    between atoms: C_1  and  C_2
REMARK    2  A    between atoms: N_4  and  C_5
REMARK    3  A    between atoms: C_8  and  O_9
REMARK    4  A    between atoms: C_8  and  C_10
REMARK    5  A    between atoms: C_10  and  O_12
REMARK    6  A    between atoms: C_13  and  O_14
REMARK    7  A    between atoms: C_15  and  O_16
REMARK                            x       y       z     vdW  Elec       q    Type
REMARK                         _______ _______ _______ _____ _____    ______ ____
ROOT
ATOM      1  C   UNL     1       4.335   3.006  17.669  0.00  0.00    +0.000 C 
ATOM      2  N   UNL     1       5.050   3.129  18.931  0.00  0.00    +0.000 NA
ATOM      3  C   UNL     1       4.222   2.752  20.082  0.00  0.00    +0.000 C 
ATOM      4  C   UNL     1       2.856   3.464  20.123  0.00  0.00    +0.000 C 
ATOM      5  C   UNL     1       2.087   3.298  18.796  0.00  0.00    +0.000 C 
ATOM      6  C   UNL     1       2.967   3.745  17.612  0.00  0.00    +0.000 C 
ATOM      7  H   UNL     1       5.397   4.089  18.996  0.00  0.00    +0.000 HD
ENDROOT
BRANCH   1  11
ATOM      8  C   UNL     1       6.680   4.869  15.360  0.00  0.00    +0.000 C 
ATOM      9  C   UNL     1       5.889   4.637  16.621  0.00  0.00    +0.000 C 
ATOM     10  O   UNL     1       5.848   5.434  17.551  0.00  0.00    +0.000 OA
ATOM     11  N   UNL     1       5.256   3.416  16.641  0.00  0.00    +0.000 N 
ATOM     12  H   UNL     1       5.204   2.905  15.771  0.00  0.00    +0.000 HD
ENDBRANCH   1  11
BRANCH   4  13
ATOM     13  O   UNL     1       3.043   4.874  20.401  0.00  0.00    +0.000 OA
ATOM     14  H   UNL     1       2.866   5.371  19.578  0.00  0.00    +0.000 HD
ENDBRANCH   4  13
BRANCH   4  15
ATOM     15  C   UNL     1       2.054   2.892  21.298  0.00  0.00    +0.000 C 
ATOM     16  O   UNL     1       2.544   2.466  22.335  0.00  0.00    +0.000 OA
BRANCH  15  17
ATOM     17  O   UNL     1       0.716   2.946  21.077  0.00  0.00    +0.000 OA
ATOM     18  H   UNL     1       0.534   3.728  20.501  0.00  0.00    +0.000 HD
ENDBRANCH  15  17
ENDBRANCH   4  15
BRANCH   5  19
ATOM     19  O   UNL     1       1.647   1.963  18.489  0.00  0.00    +0.000 OA
ATOM     20  H   UNL     1       1.282   1.524  19.283  0.00  0.00    +0.000 HD
ENDBRANCH   5  19
BRANCH   6  21
ATOM     21  O   UNL     1       2.288   3.422  16.384  0.00  0.00    +0.000 OA
ATOM     22  H   UNL     1       2.898   2.835  15.890  0.00  0.00    +0.000 HD
ENDBRANCH   6  21
TORSDOF 6
ENDMDL
MODEL 5
REMARK VINA RESULT:      -6.4      2.033      5.795
REMARK  Name = 
REMARK  7 active torsions:
REMARK  status: ('A' for Active; 'I' for Inactive)
REMARK    1  A    between atoms: C_1  and  C_2
REMARK    2  A    between atoms: N_4  and  C_5
REMARK    3  A    between atoms: C_8  and  O_9
REMARK    4  A    between atoms: C_8  and  C_10
REMARK    5  A    between atoms: C_10  and  O_12
REMARK    6  A    between atoms: C_13  and  O_14
REMARK    7  A    between atoms: C_15  and  O_16
REMARK                            x       y       z     vdW  Elec       q    Type
REMARK                         _______ _______ _______ _____ _____    ______ ____
ROOT
ATOM      1  C   UNL     1       4.247   3.676  17.676  0.00  0.00    +0.000 C 
ATOM      2  N   UNL     1       3.839   2.290  17.860  0.00  0.00    +0.000 NA
ATOM      3  C   UNL     1       2.707   2.159  18.784  0.00  0.00    +0.000 C 
ATOM      4  C   UNL     1       2.919   2.880  20.129  0.00  0.00    +0.000 C 
ATOM      5  C   UNL     1       3.314   4.357  19.928  0.00  0.00    +0.000 C 
ATOM      6  C   UNL     1       4.533   4.458  18.989  0.00  0.00    +0.000 C 
ATOM      7  H   UNL     1       4.661   1.766  18.170  0.00  0.00    +0.000 HD
ENDROOT
BRANCH   1  11
ATOM      8  C   UNL     1       6.736   4.270  14.891  0.00  0.00    +0.000 C 
ATOM      9  C   UNL     1       5.592   4.613  15.809  0.00  0.00    +0.000 C 
ATOM     10  O   UNL     1       4.960   5.662  15.741  0.00  0.00    +0.000 OA
ATOM     11  N   UNL     1       5.362   3.651  16.764  0.00  0.00    +0.000 N 
ATOM     12  H   UNL     1       5.811   2.755  16.638  0.00  0.00    +0.000 HD
ENDBRANCH   1  11
BRANCH   4  13
ATOM     13  O   UNL     1       3.947   2.204  20.895  0.00  0.00    +0.000 OA
ATOM     14  H   UNL     1       4.751   2.151  20.342  0.00  0.00    +0.000 HD
ENDBRANCH   4  13
BRANCH   4  15
ATOM     15  C   UNL     1       1.624   2.763  20.942  0.00  0.00    +0.000 C 
ATOM     16  O   UNL     1       1.571   2.513  22.138  0.00  0.00    +0.000 OA
BRANCH  15  17
ATOM     17  O   UNL     1       0.523   3.010  20.187  0.00  0.00    +0.000 OA
ATOM     18  H   UNL     1       0.242   3.943  20.355  0.00  0.00    +0.000 HD
ENDBRANCH  15  17
ENDBRANCH   4  15
BRANCH   5  19
ATOM     19  O   UNL     1       2.299   5.207  19.363  0.00  0.00    +0.000 OA
ATOM     20  H   UNL     1       2.663   5.750  18.637  0.00  0.00    +0.000 HD
ENDBRANCH   5  19
BRANCH   6  21
ATOM     21  O   UNL     1       4.770   5.846  18.689  0.00  0.00    +0.000 OA
ATOM     22  H   UNL     1       4.012   6.132  18.137  0.00  0.00    +0.000 HD
ENDBRANCH   6  21
TORSDOF 6
ENDMDL
MODEL 6
REMARK VINA RESULT:      -6.4      2.918      5.298
REMARK  Name = 
REMARK  7 active torsions:
REMARK  status: ('A' for Active; 'I' for Inactive)
REMARK    1  A    between atoms: C_1  and  C_2
REMARK    2  A    between atoms: N_4  and  C_5
REMARK    3  A    between atoms: C_8  and  O_9
REMARK    4  A    between atoms: C_8  and  C_10
REMARK    5  A    between atoms: C_10  and  O_12
REMARK    6  A    between atoms: C_13  and  O_14
REMARK    7  A    between atoms: C_15  and  O_16
REMARK                            x       y       z     vdW  Elec       q    Type
REMARK                         _______ _______ _______ _____ _____    ______ ____
ROOT
ATOM      1  C   UNL     1       4.506   5.098  18.728  0.00  0.00    +0.000 C 
ATOM      2  N   UNL     1       3.328   5.721  18.142  0.00  0.00    +0.000 NA
ATOM      3  C   UNL     1       2.081   5.089  18.587  0.00  0.00    +0.000 C 
ATOM      4  C   UNL     1       2.067   3.558  18.416  0.00  0.00    +0.000 C 
ATOM      5  C   UNL     1       3.298   2.900  19.072  0.00  0.00    +0.000 C 
ATOM      6  C   UNL     1       4.592   3.555  18.549  0.00  0.00    +0.000 C 
ATOM      7  H   UNL     1       3.439   5.695  17.125  0.00  0.00    +0.000 HD
ENDROOT
BRANCH   1  11
ATOM      8  C   UNL     1       7.796   6.874  18.162  0.00  0.00    +0.000 C 
ATOM      9  C   UNL     1       6.828   5.968  18.876  0.00  0.00    +0.000 C 
ATOM     10  O   UNL     1       7.086   5.399  19.931  0.00  0.00    +0.000 OA
ATOM     11  N   UNL     1       5.643   5.806  18.198  0.00  0.00    +0.000 N 
ATOM     12  H   UNL     1       5.453   6.440  17.436  0.00  0.00    +0.000 HD
ENDBRANCH   1  11
BRANCH   4  13
ATOM     13  O   UNL     1       2.030   3.219  17.007  0.00  0.00    +0.000 OA
ATOM     14  H   UNL     1       2.225   2.265  16.920  0.00  0.00    +0.000 HD
ENDBRANCH   4  13
BRANCH   4  15
ATOM     15  C   UNL     1       0.766   3.021  19.026  0.00  0.00    +0.000 C 
ATOM     16  O   UNL     1       0.080   2.135  18.536  0.00  0.00    +0.000 OA
BRANCH  15  17
ATOM     17  O   UNL     1       0.473   3.618  20.209  0.00  0.00    +0.000 OA
ATOM     18  H   UNL     1       0.977   3.151  20.920  0.00  0.00    +0.000 HD
ENDBRANCH  15  17
ENDBRANCH   4  15
BRANCH   5  19
ATOM     19  O   UNL     1       3.359   2.976  20.508  0.00  0.00    +0.000 OA
ATOM     20  H   UNL     1       2.481   3.179  20.884  0.00  0.00    +0.000 HD
ENDBRANCH   5  19
BRANCH   6  21
ATOM     21  O   UNL     1       5.706   3.039  19.300  0.00  0.00    +0.000 OA
ATOM     22  H   UNL     1       6.388   3.743  19.284  0.00  0.00    +0.000 HD
ENDBRANCH   6  21
TORSDOF 6
ENDMDL
MODEL 7
REMARK VINA RESULT:      -6.4      1.617      2.501
REMARK  Name = 
REMARK  7 active torsions:
REMARK  status: ('A' for Active; 'I' for Inactive)
REMARK    1  A    between atoms: C_1  and  C_2
REMARK    2  A    between atoms: N_4  and  C_5
REMARK    3  A    between atoms: C_8  and  O_9
REMARK    4  A    between atoms: C_8  and  C_10
REMARK    5  A    between atoms: C_10  and  O_12
REMARK    6  A    between atoms: C_13  and  O_14
REMARK    7  A    between atoms: C_15  and  O_16
REMARK                            x       y       z     vdW  Elec       q    Type
REMARK                         _______ _______ _______ _____ _____    ______ ____
ROOT
ATOM      1  C   UNL     1       4.263   4.959  19.228  0.00  0.00    +0.000 C 
ATOM      2  N   UNL     1       5.539   4.260  19.302  0.00  0.00    +0.000 NA
ATOM      3  C   UNL     1       6.512   4.770  18.331  0.00  0.00    +0.000 C 
ATOM      4  C   UNL     1       5.975   4.833  16.888  0.00  0.00    +0.000 C 
ATOM      5  C   UNL     1       4.643   5.607  16.810  0.00  0.00    +0.000 C 
ATOM      6  C   UNL     1       3.627   5.018  17.809  0.00  0.00    +0.000 C 
ATOM      7  H   UNL     1       5.350   3.262  19.181  0.00  0.00    +0.000 HD
ENDROOT
BRANCH   1  11
ATOM      8  C   UNL     1       2.094   2.659  21.303  0.00  0.00    +0.000 C 
ATOM      9  C   UNL     1       3.126   3.008  20.263  0.00  0.00    +0.000 C 
ATOM     10  O   UNL     1       3.687   2.174  19.560  0.00  0.00    +0.000 OA
ATOM     11  N   UNL     1       3.412   4.352  20.218  0.00  0.00    +0.000 N 
ATOM     12  H   UNL     1       2.785   4.976  20.706  0.00  0.00    +0.000 HD
ENDBRANCH   1  11
BRANCH   4  13
ATOM     13  O   UNL     1       5.786   3.492  16.373  0.00  0.00    +0.000 OA
ATOM     14  H   UNL     1       5.028   3.508  15.756  0.00  0.00    +0.000 HD
ENDBRANCH   4  13
BRANCH   4  15
ATOM     15  C   UNL     1       7.045   5.490  16.008  0.00  0.00    +0.000 C 
ATOM     16  O   UNL     1       7.381   5.089  14.902  0.00  0.00    +0.000 OA
BRANCH  15  17
ATOM     17  O   UNL     1       7.560   6.608  16.580  0.00  0.00    +0.000 OA
ATOM     18  H   UNL     1       7.490   6.508  17.561  0.00  0.00    +0.000 HD
ENDBRANCH  15  17
ENDBRANCH   4  15
BRANCH   5  19
ATOM     19  O   UNL     1       4.718   7.016  17.095  0.00  0.00    +0.000 OA
ATOM     20  H   UNL     1       5.519   7.225  17.613  0.00  0.00    +0.000 HD
ENDBRANCH   5  19
BRANCH   6  21
ATOM     21  O   UNL     1       2.460   5.862  17.833  0.00  0.00    +0.000 OA
ATOM     22  H   UNL     1       1.706   5.267  18.029  0.00  0.00    +0.000 HD
ENDBRANCH   6  21
TORSDOF 6
ENDMDL
MODEL 8
REMARK VINA RESULT:      -6.3      1.640      1.684
REMARK  Name = 
REMARK  7 active torsions:
REMARK  status: ('A' for Active; 'I' for Inactive)
REMARK    1  A    between atoms: C_1  and  C_2
REMARK    2  A    between atoms: N_4  and  C_5
REMARK    3  A    between atoms: C_8  and  O_9
REMARK    4  A    between atoms: C_8  and  C_10
REMARK    5  A    between atoms: C_10  and  O_12
REMARK    6  A    between atoms: C_13  and  O_14
REMARK    7  A    between atoms: C_15  and  O_16
REMARK                            x       y       z     vdW  Elec       q    Type
REMARK                         _______ _______ _______ _____ _____    ______ ____
ROOT
ATOM      1  C   UNL     1       4.409   5.326  17.853  0.00  0.00    +0.000 C 
ATOM      2  N   UNL     1       4.469   6.460  16.942  0.00  0.00    +0.000 NA
ATOM      3  C   UNL     1       5.169   6.136  15.694  0.00  0.00    +0.000 C 
ATOM      4  C   UNL     1       6.553   5.495  15.907  0.00  0.00    +0.000 C 
ATOM      5  C   UNL     1       6.476   4.272  16.843  0.00  0.00    +0.000 C 
ATOM      6  C   UNL     1       5.778   4.656  18.162  0.00  0.00    +0.000 C 
ATOM      7  H   UNL     1       4.906   7.237  17.445  0.00  0.00    +0.000 HD
ENDROOT
BRANCH   1  11
ATOM      8  C   UNL     1       1.912   6.082  20.591  0.00  0.00    +0.000 C 
ATOM      9  C   UNL     1       2.478   5.328  19.417  0.00  0.00    +0.000 C 
ATOM     10  O   UNL     1       1.916   4.373  18.891  0.00  0.00    +0.000 OA
ATOM     11  N   UNL     1       3.714   5.788  19.027  0.00  0.00    +0.000 N 
ATOM     12  H   UNL     1       4.017   6.676  19.400  0.00  0.00    +0.000 HD
ENDBRANCH   1  11
BRANCH   4  13
ATOM     13  O   UNL     1       7.470   6.472  16.460  0.00  0.00    +0.000 OA
ATOM     14  H   UNL     1       7.167   6.694  17.363  0.00  0.00    +0.000 HD
ENDBRANCH   4  13
BRANCH   4  15
ATOM     15  C   UNL     1       7.114   5.102  14.534  0.00  0.00    +0.000 C 
ATOM     16  O   UNL     1       8.155   5.532  14.057  0.00  0.00    +0.000 OA
BRANCH  15  17
ATOM     17  O   UNL     1       6.337   4.180  13.911  0.00  0.00    +0.000 OA
ATOM     18  H   UNL     1       5.947   3.592  14.603  0.00  0.00    +0.000 HD
ENDBRANCH  15  17
ENDBRANCH   4  15
BRANCH   5  19
ATOM     19  O   UNL     1       5.765   3.131  16.328  0.00  0.00    +0.000 OA
ATOM     20  H   UNL     1       6.305   2.320  16.405  0.00  0.00    +0.000 HD
ENDBRANCH   5  19
BRANCH   6  21
ATOM     21  O   UNL     1       5.572   3.462  18.940  0.00  0.00    +0.000 OA
ATOM     22  H   UNL     1       5.579   2.721  18.298  0.00  0.00    +0.000 HD
ENDBRANCH   6  21
TORSDOF 6
ENDMDL
MODEL 9
REMARK VINA RESULT:      -6.3      1.901      2.254
REMARK  Name = 
REMARK  7 active torsions:
REMARK  status: ('A' for Active; 'I' for Inactive)
REMARK    1  A    between atoms: C_1  and  C_2
REMARK    2  A    between atoms: N_4  and  C_5
REMARK    3  A    between atoms: C_8  and  O_9
REMARK    4  A    between atoms: C_8  and  C_10
REMARK    5  A    between atoms: C_10  and  O_12
REMARK    6  A    between atoms: C_13  and  O_14
REMARK    7  A    between atoms: C_15  and  O_16
REMARK                            x       y       z     vdW  Elec       q    Type
REMARK                         _______ _______ _______ _____ _____    ______ ____
ROOT
ATOM      1  C   UNL     1       4.241   3.365  17.632  0.00  0.00    +0.000 C 
ATOM      2  N   UNL     1       3.904   4.247  16.524  0.00  0.00    +0.000 NA
ATOM      3  C   UNL     1       5.042   5.071  16.100  0.00  0.00    +0.000 C 
ATOM      4  C   UNL     1       5.721   5.831  17.255  0.00  0.00    +0.000 C 
ATOM      5  C   UNL     1       6.110   4.885  18.409  0.00  0.00    +0.000 C 
ATOM      6  C   UNL     1       4.884   4.068  18.862  0.00  0.00    +0.000 C 
ATOM      7  H   UNL     1       3.099   4.810  16.812  0.00  0.00    +0.000 HD
ENDROOT
BRANCH   1  11
ATOM      8  C   UNL     1       0.790   2.243  18.696  0.00  0.00    +0.000 C 
ATOM      9  C   UNL     1       1.842   3.230  18.264  0.00  0.00    +0.000 C 
ATOM     10  O   UNL     1       1.639   4.435  18.162  0.00  0.00    +0.000 OA
ATOM     11  N   UNL     1       3.040   2.634  17.946  0.00  0.00    +0.000 N 
ATOM     12  H   UNL     1       3.167   1.671  18.222  0.00  0.00    +0.000 HD
ENDBRANCH   1  11
BRANCH   4  13
ATOM     13  O   UNL     1       4.837   6.865  17.753  0.00  0.00    +0.000 OA
ATOM     14  H   UNL     1       4.139   7.016  17.084  0.00  0.00    +0.000 HD
ENDBRANCH   4  13
BRANCH   4  15
ATOM     15  C   UNL     1       6.955   6.549  16.693  0.00  0.00    +0.000 C 
ATOM     16  O   UNL     1       7.356   7.642  17.067  0.00  0.00    +0.000 OA
BRANCH  15  17
ATOM     17  O   UNL     1       7.589   5.810  15.747  0.00  0.00    +0.000 OA
ATOM     18  H   UNL     1       8.067   5.075  16.204  0.00  0.00    +0.000 HD
ENDBRANCH  15  17
ENDBRANCH   4  15
BRANCH   5  19
ATOM     19  O   UNL     1       7.145   3.929  18.115  0.00  0.00    +0.000 OA
ATOM     20  H   UNL     1       6.815   3.015  18.215  0.00  0.00    +0.000 HD
ENDBRANCH   5  19
BRANCH   6  21
ATOM     21  O   UNL     1       5.314   3.081  19.818  0.00  0.00    +0.000 OA
ATOM     22  H   UNL     1       5.605   3.585  20.607  0.00  0.00    +0.000 HD
ENDBRANCH   6  21
TORSDOF 6
ENDMDL
