MODEL 1
REMARK VINA RESULT:      -7.8      0.000      0.000
REMARK  Name = 
REMARK  8 active torsions:
REMARK  status: ('A' for Active; 'I' for Inactive)
REMARK    1  A    between atoms: C_1  and  C_2
REMARK    2  A    between atoms: N_6  and  C1*_7
REMARK    3  A    between atoms: C4*_9  and  C5*_10
REMARK    4  A    between atoms: C5*_10  and  O5*_11
REMARK    5  A    between atoms: C3*_12  and  O3*_13
REMARK    6  A    between atoms: C2*_14  and  O2*_15
REMARK    7  A    between atoms: C_18  and  C_19
REMARK    8  A    between atoms: C_26  and  O_27
REMARK                            x       y       z     vdW  Elec       q    Type
REMARK                         _______ _______ _______ _____ _____    ______ ____
ROOT
ATOM      1  C   UNL     1       1.847   4.643  21.220  0.00  0.00    +0.000 C 
ATOM      2  C   UNL     1       2.143   5.750  20.241  0.00  0.00    +0.000 A 
ATOM      3  C   UNL     1       1.565   7.056  20.307  0.00  0.00    +0.000 A 
ATOM      4  C   UNL     1       0.632   7.421  21.301  0.00  0.00    +0.000 A 
ATOM      5  C   UNL     1       0.081   8.698  21.355  0.00  0.00    +0.000 A 
ATOM      6  N   UNL     1       0.436   9.634  20.454  0.00  0.00    +0.000 N 
ATOM      7  C   UNL     1       1.327   9.315  19.490  0.00  0.00    +0.000 A 
ATOM      8  C   UNL     1       1.914   8.045  19.356  0.00  0.00    +0.000 A 
ATOM      9  C   UNL     1       2.838   7.750  18.300  0.00  0.00    +0.000 A 
ATOM     10  C   UNL     1       3.226   8.763  17.244  0.00  0.00    +0.000 C 
ATOM     11  C   UNL     1       3.387   6.442  18.213  0.00  0.00    +0.000 A 
ATOM     12  C   UNL     1       3.029   5.495  19.174  0.00  0.00    +0.000 A 
ATOM     13  N   UNL     1       3.689   4.329  18.843  0.00  0.00    +0.000 N 
ATOM     14  C   UNL     1       4.449   4.479  17.709  0.00  0.00    +0.000 A 
ATOM     15  C   UNL     1       5.246   3.551  17.026  0.00  0.00    +0.000 A 
ATOM     16  C   UNL     1       5.910   3.986  15.873  0.00  0.00    +0.000 A 
ATOM     17  C   UNL     1       5.774   5.297  15.441  0.00  0.00    +0.000 A 
ATOM     18  C   UNL     1       4.978   6.208  16.132  0.00  0.00    +0.000 A 
ATOM     19  C   UNL     1       4.289   5.797  17.295  0.00  0.00    +0.000 A 
ATOM     20  H   UNL     1       3.604   3.464  19.355  0.00  0.00    +0.000 HD
ENDROOT
BRANCH   6  21
ATOM     21  C1* UNL     1      -0.039  11.050  20.616  0.00  0.00    +0.000 C 
ATOM     22  O4* UNL     1       1.079  11.970  20.594  0.00  0.00    +0.000 OA
ATOM     23  C4* UNL     1       0.969  12.773  19.390  0.00  0.00    +0.000 C 
ATOM     24  C3* UNL     1      -0.089  12.133  18.507  0.00  0.00    +0.000 C 
ATOM     25  C2* UNL     1      -1.020  11.547  19.551  0.00  0.00    +0.000 C 
BRANCH  24  26
ATOM     26  O3* UNL     1      -0.700  13.111  17.680  0.00  0.00    +0.000 OA
ATOM     27  H3* UNL     1      -0.070  13.486  17.045  0.00  0.00    +0.000 HD
ENDBRANCH  24  26
BRANCH  25  28
ATOM     28  O2* UNL     1      -1.950  10.585  19.109  0.00  0.00    +0.000 OA
ATOM     29  H2* UNL     1      -2.501  10.982  18.392  0.00  0.00    +0.000 HD
ENDBRANCH  25  28
BRANCH  23  30
ATOM     30  C5* UNL     1       2.326  12.876  18.699  0.00  0.00    +0.000 C 
BRANCH  30  31
ATOM     31  O5* UNL     1       2.259  12.251  17.415  0.00  0.00    +0.000 OA
ATOM     32  H5* UNL     1       3.057  12.506  16.921  0.00  0.00    +0.000 HD
ENDBRANCH  30  31
ENDBRANCH  23  30
ENDBRANCH   6  21
BRANCH  17  33
ATOM     33  O   UNL     1       6.408   5.749  14.320  0.00  0.00    +0.000 OA
ATOM     34  H   UNL     1       5.987   5.346  13.543  0.00  0.00    +0.000 HD
ENDBRANCH  17  33
TORSDOF 6
ENDMDL
MODEL 2
REMARK VINA RESULT:      -7.4      4.348      6.741
REMARK  Name = 
REMARK  8 active torsions:
REMARK  status: ('A' for Active; 'I' for Inactive)
REMARK    1  A    between atoms: C_1  and  C_2
REMARK    2  A    between atoms: N_6  and  C1*_7
REMARK    3  A    between atoms: C4*_9  and  C5*_10
REMARK    4  A    between atoms: C5*_10  and  O5*_11
REMARK    5  A    between atoms: C3*_12  and  O3*_13
REMARK    6  A    between atoms: C2*_14  and  O2*_15
REMARK    7  A    between atoms: C_18  and  C_19
REMARK    8  A    between atoms: C_26  and  O_27
REMARK                            x       y       z     vdW  Elec       q    Type
REMARK                         _______ _______ _______ _____ _____    ______ ____
ROOT
ATOM      1  C   UNL     1      -0.404  13.332  18.170  0.00  0.00    +0.000 C 
ATOM      2  C   UNL     1      -0.376  12.461  19.399  0.00  0.00    +0.000 A 
ATOM      3  C   UNL     1      -0.952  12.826  20.656  0.00  0.00    +0.000 A 
ATOM      4  C   UNL     1      -1.589  14.068  20.864  0.00  0.00    +0.000 A 
ATOM      5  C   UNL     1      -2.149  14.408  22.091  0.00  0.00    +0.000 A 
ATOM      6  N   UNL     1      -2.105  13.545  23.124  0.00  0.00    +0.000 N 
ATOM      7  C   UNL     1      -1.502  12.348  22.957  0.00  0.00    +0.000 A 
ATOM      8  C   UNL     1      -0.897  11.937  21.757  0.00  0.00    +0.000 A 
ATOM      9  C   UNL     1      -0.249  10.664  21.637  0.00  0.00    +0.000 A 
ATOM     10  C   UNL     1      -0.141   9.688  22.789  0.00  0.00    +0.000 C 
ATOM     11  C   UNL     1       0.355  10.314  20.399  0.00  0.00    +0.000 A 
ATOM     12  C   UNL     1       0.273  11.210  19.332  0.00  0.00    +0.000 A 
ATOM     13  N   UNL     1       0.944  10.628  18.276  0.00  0.00    +0.000 N 
ATOM     14  C   UNL     1       1.461   9.402  18.616  0.00  0.00    +0.000 A 
ATOM     15  C   UNL     1       2.222   8.500  17.860  0.00  0.00    +0.000 A 
ATOM     16  C   UNL     1       2.629   7.312  18.478  0.00  0.00    +0.000 A 
ATOM     17  C   UNL     1       2.277   7.053  19.795  0.00  0.00    +0.000 A 
ATOM     18  C   UNL     1       1.520   7.960  20.533  0.00  0.00    +0.000 A 
ATOM     19  C   UNL     1       1.100   9.172  19.939  0.00  0.00    +0.000 A 
ATOM     20  H   UNL     1       1.063  11.059  17.372  0.00  0.00    +0.000 HD
ENDROOT
BRANCH   6  21
ATOM     21  C1* UNL     1      -2.850  13.853  24.392  0.00  0.00    +0.000 C 
ATOM     22  O4* UNL     1      -2.750  15.261  24.715  0.00  0.00    +0.000 OA
ATOM     23  C4* UNL     1      -4.073  15.842  24.581  0.00  0.00    +0.000 C 
ATOM     24  C3* UNL     1      -4.954  14.821  23.879  0.00  0.00    +0.000 C 
ATOM     25  C2* UNL     1      -4.345  13.525  24.380  0.00  0.00    +0.000 C 
BRANCH  24  26
ATOM     26  O3* UNL     1      -6.311  14.999  24.254  0.00  0.00    +0.000 OA
ATOM     27  H3* UNL     1      -6.852  15.296  23.507  0.00  0.00    +0.000 HD
ENDBRANCH  24  26
BRANCH  25  28
ATOM     28  O2* UNL     1      -4.687  12.350  23.682  0.00  0.00    +0.000 OA
ATOM     29  H2* UNL     1      -4.131  12.290  22.868  0.00  0.00    +0.000 HD
ENDBRANCH  25  28
BRANCH  23  30
ATOM     30  C5* UNL     1      -3.993  17.166  23.824  0.00  0.00    +0.000 C 
BRANCH  30  31
ATOM     31  O5* UNL     1      -4.794  17.091  22.642  0.00  0.00    +0.000 OA
ATOM     32  H5* UNL     1      -4.203  17.210  21.878  0.00  0.00    +0.000 HD
ENDBRANCH  30  31
ENDBRANCH  23  30
ENDBRANCH   6  21
BRANCH  17  33
ATOM     33  O   UNL     1       2.661   5.905  20.423  0.00  0.00    +0.000 OA
ATOM     34  H   UNL     1       3.478   5.584  20.010  0.00  0.00    +0.000 HD
ENDBRANCH  17  33
TORSDOF 6
ENDMDL
MODEL 3
REMARK VINA RESULT:      -7.0      2.864      7.998
REMARK  Name = 
REMARK  8 active torsions:
REMARK  status: ('A' for Active; 'I' for Inactive)
REMARK    1  A    between atoms: C_1  and  C_2
REMARK    2  A    between atoms: N_6  and  C1*_7
REMARK    3  A    between atoms: C4*_9  and  C5*_10
REMARK    4  A    between atoms: C5*_10  and  O5*_11
REMARK    5  A    between atoms: C3*_12  and  O3*_13
REMARK    6  A    between atoms: C2*_14  and  O2*_15
REMARK    7  A    between atoms: C_18  and  C_19
REMARK    8  A    between atoms: C_26  and  O_27
REMARK                            x       y       z     vdW  Elec       q    Type
REMARK                         _______ _______ _______ _____ _____    ______ ____
ROOT
ATOM      1  C   UNL     1      -0.293   8.470  22.777  0.00  0.00    +0.000 C 
ATOM      2  C   UNL     1       0.350   8.867  21.473  0.00  0.00    +0.000 A 
ATOM      3  C   UNL     1       1.104   7.976  20.646  0.00  0.00    +0.000 A 
ATOM      4  C   UNL     1       1.335   6.630  20.998  0.00  0.00    +0.000 A 
ATOM      5  C   UNL     1       2.067   5.774  20.181  0.00  0.00    +0.000 A 
ATOM      6  N   UNL     1       2.573   6.212  19.012  0.00  0.00    +0.000 N 
ATOM      7  C   UNL     1       2.370   7.497  18.647  0.00  0.00    +0.000 A 
ATOM      8  C   UNL     1       1.658   8.428  19.423  0.00  0.00    +0.000 A 
ATOM      9  C   UNL     1       1.490   9.787  19.002  0.00  0.00    +0.000 A 
ATOM     10  C   UNL     1       2.082  10.326  17.717  0.00  0.00    +0.000 C 
ATOM     11  C   UNL     1       0.771  10.683  19.840  0.00  0.00    +0.000 A 
ATOM     12  C   UNL     1       0.228  10.201  21.032  0.00  0.00    +0.000 A 
ATOM     13  N   UNL     1      -0.396  11.271  21.642  0.00  0.00    +0.000 N 
ATOM     14  C   UNL     1      -0.274  12.420  20.900  0.00  0.00    +0.000 A 
ATOM     15  C   UNL     1      -0.733  13.718  21.162  0.00  0.00    +0.000 A 
ATOM     16  C   UNL     1      -0.450  14.713  20.219  0.00  0.00    +0.000 A 
ATOM     17  C   UNL     1       0.258  14.402  19.067  0.00  0.00    +0.000 A 
ATOM     18  C   UNL     1       0.708  13.106  18.821  0.00  0.00    +0.000 A 
ATOM     19  C   UNL     1       0.444  12.082  19.758  0.00  0.00    +0.000 A 
ATOM     20  H   UNL     1      -0.863  11.222  22.535  0.00  0.00    +0.000 HD
ENDROOT
BRANCH   6  21
ATOM     21  C1* UNL     1       3.222   5.243  18.064  0.00  0.00    +0.000 C 
ATOM     22  O4* UNL     1       4.333   4.569  18.703  0.00  0.00    +0.000 OA
ATOM     23  C4* UNL     1       3.980   3.169  18.844  0.00  0.00    +0.000 C 
ATOM     24  C3* UNL     1       2.496   3.037  18.542  0.00  0.00    +0.000 C 
ATOM     25  C2* UNL     1       2.312   4.140  17.518  0.00  0.00    +0.000 C 
BRANCH  24  26
ATOM     26  O3* UNL     1       2.207   1.740  18.044  0.00  0.00    +0.000 OA
ATOM     27  H3* UNL     1       1.288   1.668  17.746  0.00  0.00    +0.000 HD
ENDBRANCH  24  26
BRANCH  25  28
ATOM     28  O2* UNL     1       0.990   4.544  17.247  0.00  0.00    +0.000 OA
ATOM     29  H2* UNL     1       0.521   3.810  16.783  0.00  0.00    +0.000 HD
ENDBRANCH  25  28
BRANCH  23  30
ATOM     30  C5* UNL     1       4.341   2.673  20.242  0.00  0.00    +0.000 C 
BRANCH  30  31
ATOM     31  O5* UNL     1       5.267   1.590  20.142  0.00  0.00    +0.000 OA
ATOM     32  H5* UNL     1       5.696   1.649  19.270  0.00  0.00    +0.000 HD
ENDBRANCH  30  31
ENDBRANCH  23  30
ENDBRANCH   6  21
BRANCH  17  33
ATOM     33  O   UNL     1       0.550  15.351  18.131  0.00  0.00    +0.000 OA
ATOM     34  H   UNL     1       1.138  14.959  17.466  0.00  0.00    +0.000 HD
ENDBRANCH  17  33
TORSDOF 6
ENDMDL
MODEL 4
REMARK VINA RESULT:      -6.8      2.660      7.916
REMARK  Name = 
REMARK  8 active torsions:
REMARK  status: ('A' for Active; 'I' for Inactive)
REMARK    1  A    between atoms: C_1  and  C_2
REMARK    2  A    between atoms: N_6  and  C1*_7
REMARK    3  A    between atoms: C4*_9  and  C5*_10
REMARK    4  A    between atoms: C5*_10  and  O5*_11
REMARK    5  A    between atoms: C3*_12  and  O3*_13
REMARK    6  A    between atoms: C2*_14  and  O2*_15
REMARK    7  A    between atoms: C_18  and  C_19
REMARK    8  A    between atoms: C_26  and  O_27
REMARK                            x       y       z     vdW  Elec       q    Type
REMARK                         _______ _______ _______ _____ _____    ______ ____
ROOT
ATOM      1  C   UNL     1      -0.196   8.993  22.904  0.00  0.00    +0.000 C 
ATOM      2  C   UNL     1       0.412   9.401  21.587  0.00  0.00    +0.000 A 
ATOM      3  C   UNL     1       1.112   8.509  20.715  0.00  0.00    +0.000 A 
ATOM      4  C   UNL     1       1.317   7.149  21.030  0.00  0.00    +0.000 A 
ATOM      5  C   UNL     1       1.996   6.291  20.170  0.00  0.00    +0.000 A 
ATOM      6  N   UNL     1       2.474   6.742  18.994  0.00  0.00    +0.000 N 
ATOM      7  C   UNL     1       2.294   8.039  18.663  0.00  0.00    +0.000 A 
ATOM      8  C   UNL     1       1.636   8.972  19.483  0.00  0.00    +0.000 A 
ATOM      9  C   UNL     1       1.491  10.344  19.097  0.00  0.00    +0.000 A 
ATOM     10  C   UNL     1       2.053  10.895  17.804  0.00  0.00    +0.000 C 
ATOM     11  C   UNL     1       0.826  11.240  19.978  0.00  0.00    +0.000 A 
ATOM     12  C   UNL     1       0.313  10.747  21.179  0.00  0.00    +0.000 A 
ATOM     13  N   UNL     1      -0.260  11.820  21.833  0.00  0.00    +0.000 N 
ATOM     14  C   UNL     1      -0.132  12.981  21.111  0.00  0.00    +0.000 A 
ATOM     15  C   UNL     1      -0.545  14.285  21.417  0.00  0.00    +0.000 A 
ATOM     16  C   UNL     1      -0.267  15.292  20.485  0.00  0.00    +0.000 A 
ATOM     17  C   UNL     1       0.391  14.988  19.302  0.00  0.00    +0.000 A 
ATOM     18  C   UNL     1       0.796  13.686  19.014  0.00  0.00    +0.000 A 
ATOM     19  C   UNL     1       0.536  12.649  19.937  0.00  0.00    +0.000 A 
ATOM     20  H   UNL     1      -0.696  11.764  22.740  0.00  0.00    +0.000 HD
ENDROOT
BRANCH   6  21
ATOM     21  C1* UNL     1       3.061   5.776  18.003  0.00  0.00    +0.000 C 
ATOM     22  O4* UNL     1       4.379   6.210  17.587  0.00  0.00    +0.000 OA
ATOM     23  C4* UNL     1       5.342   5.248  18.090  0.00  0.00    +0.000 C 
ATOM     24  C3* UNL     1       4.620   4.354  19.086  0.00  0.00    +0.000 C 
ATOM     25  C2* UNL     1       3.223   4.336  18.496  0.00  0.00    +0.000 C 
BRANCH  24  26
ATOM     26  O3* UNL     1       5.235   3.077  19.140  0.00  0.00    +0.000 OA
ATOM     27  H3* UNL     1       4.581   2.368  19.236  0.00  0.00    +0.000 HD
ENDBRANCH  24  26
BRANCH  25  28
ATOM     28  O2* UNL     1       2.184   3.877  19.329  0.00  0.00    +0.000 OA
ATOM     29  H2* UNL     1       1.457   3.519  18.764  0.00  0.00    +0.000 HD
ENDBRANCH  25  28
BRANCH  23  30
ATOM     30  C5* UNL     1       6.535   5.972  18.710  0.00  0.00    +0.000 C 
BRANCH  30  31
ATOM     31  O5* UNL     1       6.966   5.271  19.878  0.00  0.00    +0.000 OA
ATOM     32  H5* UNL     1       7.616   5.832  20.335  0.00  0.00    +0.000 HD
ENDBRANCH  30  31
ENDBRANCH  23  30
ENDBRANCH   6  21
BRANCH  17  33
ATOM     33  O   UNL     1       0.677  15.949  18.377  0.00  0.00    +0.000 OA
ATOM     34  H   UNL     1       1.095  16.699  18.829  0.00  0.00    +0.000 HD
ENDBRANCH  17  33
TORSDOF 6
ENDMDL
MODEL 5
REMARK VINA RESULT:      -6.6      3.217      8.696
REMARK  Name = 
REMARK  8 active torsions:
REMARK  status: ('A' for Active; 'I' for Inactive)
REMARK    1  A    between atoms: C_1  and  C_2
REMARK    2  A    between atoms: N_6  and  C1*_7
REMARK    3  A    between atoms: C4*_9  and  C5*_10
REMARK    4  A    between atoms: C5*_10  and  O5*_11
REMARK    5  A    between atoms: C3*_12  and  O3*_13
REMARK    6  A    between atoms: C2*_14  and  O2*_15
REMARK    7  A    between atoms: C_18  and  C_19
REMARK    8  A    between atoms: C_26  and  O_27
REMARK                            x       y       z     vdW  Elec       q    Type
REMARK                         _______ _______ _______ _____ _____    ______ ____
ROOT
ATOM      1  C   UNL     1       1.766  11.080  17.748  0.00  0.00    +0.000 C 
ATOM      2  C   UNL     1       1.251  10.391  18.986  0.00  0.00    +0.000 A 
ATOM      3  C   UNL     1       1.570   9.045  19.346  0.00  0.00    +0.000 A 
ATOM      4  C   UNL     1       2.392   8.222  18.547  0.00  0.00    +0.000 A 
ATOM      5  C   UNL     1       2.698   6.915  18.913  0.00  0.00    +0.000 A 
ATOM      6  N   UNL     1       2.218   6.397  20.060  0.00  0.00    +0.000 N 
ATOM      7  C   UNL     1       1.428   7.159  20.847  0.00  0.00    +0.000 A 
ATOM      8  C   UNL     1       1.058   8.480  20.540  0.00  0.00    +0.000 A 
ATOM      9  C   UNL     1       0.198   9.240  21.398  0.00  0.00    +0.000 A 
ATOM     10  C   UNL     1      -0.396   8.676  22.671  0.00  0.00    +0.000 C 
ATOM     11  C   UNL     1      -0.149  10.567  21.023  0.00  0.00    +0.000 A 
ATOM     12  C   UNL     1       0.383  11.095  19.846  0.00  0.00    +0.000 A 
ATOM     13  N   UNL     1      -0.123  12.374  19.724  0.00  0.00    +0.000 N 
ATOM     14  C   UNL     1      -0.960  12.690  20.766  0.00  0.00    +0.000 A 
ATOM     15  C   UNL     1      -1.692  13.860  21.014  0.00  0.00    +0.000 A 
ATOM     16  C   UNL     1      -2.484  13.900  22.167  0.00  0.00    +0.000 A 
ATOM     17  C   UNL     1      -2.527  12.810  23.024  0.00  0.00    +0.000 A 
ATOM     18  C   UNL     1      -1.794  11.655  22.763  0.00  0.00    +0.000 A 
ATOM     19  C   UNL     1      -0.989  11.581  21.604  0.00  0.00    +0.000 A 
ATOM     20  H   UNL     1       0.078  12.993  18.953  0.00  0.00    +0.000 HD
ENDROOT
BRANCH   6  21
ATOM     21  C1* UNL     1       2.682   5.045  20.526  0.00  0.00    +0.000 C 
ATOM     22  O4* UNL     1       1.682   4.036  20.243  0.00  0.00    +0.000 OA
ATOM     23  C4* UNL     1       2.227   3.141  19.239  0.00  0.00    +0.000 C 
ATOM     24  C3* UNL     1       3.486   3.787  18.684  0.00  0.00    +0.000 C 
ATOM     25  C2* UNL     1       3.985   4.540  19.902  0.00  0.00    +0.000 C 
BRANCH  24  26
ATOM     26  O3* UNL     1       4.385   2.795  18.216  0.00  0.00    +0.000 OA
ATOM     27  H3* UNL     1       5.160   2.713  18.793  0.00  0.00    +0.000 HD
ENDBRANCH  24  26
BRANCH  25  28
ATOM     28  O2* UNL     1       4.959   5.534  19.683  0.00  0.00    +0.000 OA
ATOM     29  H2* UNL     1       5.039   5.692  18.711  0.00  0.00    +0.000 HD
ENDBRANCH  25  28
BRANCH  23  30
ATOM     30  C5* UNL     1       1.185   2.863  18.159  0.00  0.00    +0.000 C 
BRANCH  30  31
ATOM     31  O5* UNL     1       1.058   4.007  17.311  0.00  0.00    +0.000 OA
ATOM     32  H5* UNL     1       0.378   3.805  16.645  0.00  0.00    +0.000 HD
ENDBRANCH  30  31
ENDBRANCH  23  30
ENDBRANCH   6  21
BRANCH  17  33
ATOM     33  O   UNL     1      -3.292  12.820  24.154  0.00  0.00    +0.000 OA
ATOM     34  H   UNL     1      -4.223  12.915  23.896  0.00  0.00    +0.000 HD
ENDBRANCH  17  33
TORSDOF 6
ENDMDL
MODEL 6
REMARK VINA RESULT:      -6.6      2.536      4.315
REMARK  Name = 
REMARK  8 active torsions:
REMARK  status: ('A' for Active; 'I' for Inactive)
REMARK    1  A    between atoms: C_1  and  C_2
REMARK    2  A    between atoms: N_6  and  C1*_7
REMARK    3  A    between atoms: C4*_9  and  C5*_10
REMARK    4  A    between atoms: C5*_10  and  O5*_11
REMARK    5  A    between atoms: C3*_12  and  O3*_13
REMARK    6  A    between atoms: C2*_14  and  O2*_15
REMARK    7  A    between atoms: C_18  and  C_19
REMARK    8  A    between atoms: C_26  and  O_27
REMARK                            x       y       z     vdW  Elec       q    Type
REMARK                         _______ _______ _______ _____ _____    ______ ____
ROOT
ATOM      1  C   UNL     1       4.331   7.504  16.601  0.00  0.00    +0.000 C 
ATOM      2  C   UNL     1       3.373   7.500  17.765  0.00  0.00    +0.000 A 
ATOM      3  C   UNL     1       2.600   8.631  18.172  0.00  0.00    +0.000 A 
ATOM      4  C   UNL     1       2.686   9.881  17.522  0.00  0.00    +0.000 A 
ATOM      5  C   UNL     1       1.924  10.972  17.927  0.00  0.00    +0.000 A 
ATOM      6  N   UNL     1       1.066  10.860  18.959  0.00  0.00    +0.000 N 
ATOM      7  C   UNL     1       0.961   9.677  19.603  0.00  0.00    +0.000 A 
ATOM      8  C   UNL     1       1.707   8.534  19.267  0.00  0.00    +0.000 A 
ATOM      9  C   UNL     1       1.576   7.308  19.997  0.00  0.00    +0.000 A 
ATOM     10  C   UNL     1       0.655   7.159  21.190  0.00  0.00    +0.000 C 
ATOM     11  C   UNL     1       2.370   6.192  19.615  0.00  0.00    +0.000 A 
ATOM     12  C   UNL     1       3.231   6.320  18.524  0.00  0.00    +0.000 A 
ATOM     13  N   UNL     1       3.876   5.107  18.388  0.00  0.00    +0.000 N 
ATOM     14  C   UNL     1       3.475   4.208  19.345  0.00  0.00    +0.000 A 
ATOM     15  C   UNL     1       3.892   2.890  19.578  0.00  0.00    +0.000 A 
ATOM     16  C   UNL     1       3.310   2.202  20.649  0.00  0.00    +0.000 A 
ATOM     17  C   UNL     1       2.352   2.821  21.439  0.00  0.00    +0.000 A 
ATOM     18  C   UNL     1       1.949   4.132  21.194  0.00  0.00    +0.000 A 
ATOM     19  C   UNL     1       2.522   4.855  20.124  0.00  0.00    +0.000 A 
ATOM     20  H   UNL     1       4.576   4.912  17.687  0.00  0.00    +0.000 HD
ENDROOT
BRANCH   6  21
ATOM     21  C1* UNL     1       0.133  11.992  19.286  0.00  0.00    +0.000 C 
ATOM     22  O4* UNL     1      -1.004  11.515  20.044  0.00  0.00    +0.000 OA
ATOM     23  C4* UNL     1      -0.917  12.081  21.377  0.00  0.00    +0.000 C 
ATOM     24  C3* UNL     1       0.466  12.694  21.526  0.00  0.00    +0.000 C 
ATOM     25  C2* UNL     1       0.739  13.137  20.101  0.00  0.00    +0.000 C 
BRANCH  24  26
ATOM     26  O3* UNL     1       0.435  13.760  22.461  0.00  0.00    +0.000 OA
ATOM     27  H3* UNL     1       0.898  13.530  23.282  0.00  0.00    +0.000 HD
ENDBRANCH  24  26
BRANCH  25  28
ATOM     28  O2* UNL     1       2.073  13.453  19.777  0.00  0.00    +0.000 OA
ATOM     29  H2* UNL     1       2.670  13.035  20.443  0.00  0.00    +0.000 HD
ENDBRANCH  25  28
BRANCH  23  30
ATOM     30  C5* UNL     1      -1.198  11.007  22.426  0.00  0.00    +0.000 C 
BRANCH  30  31
ATOM     31  O5* UNL     1       0.016  10.662  23.096  0.00  0.00    +0.000 OA
ATOM     32  H5* UNL     1      -0.201  10.492  24.029  0.00  0.00    +0.000 HD
ENDBRANCH  30  31
ENDBRANCH  23  30
ENDBRANCH   6  21
BRANCH  17  33
ATOM     33  O   UNL     1       1.770   2.176  22.492  0.00  0.00    +0.000 OA
ATOM     34  H   UNL     1       2.341   2.276  23.270  0.00  0.00    +0.000 HD
ENDBRANCH  17  33
TORSDOF 6
ENDMDL
MODEL 7
REMARK VINA RESULT:      -6.6      3.520      9.095
REMARK  Name = 
REMARK  8 active torsions:
REMARK  status: ('A' for Active; 'I' for Inactive)
REMARK    1  A    between atoms: C_1  and  C_2
REMARK    2  A    between atoms: N_6  and  C1*_7
REMARK    3  A    between atoms: C4*_9  and  C5*_10
REMARK    4  A    between atoms: C5*_10  and  O5*_11
REMARK    5  A    between atoms: C3*_12  and  O3*_13
REMARK    6  A    between atoms: C2*_14  and  O2*_15
REMARK    7  A    between atoms: C_18  and  C_19
REMARK    8  A    between atoms: C_26  and  O_27
REMARK                            x       y       z     vdW  Elec       q    Type
REMARK                         _______ _______ _______ _____ _____    ______ ____
ROOT
ATOM      1  C   UNL     1      -1.105  12.120  17.514  0.00  0.00    +0.000 C 
ATOM      2  C   UNL     1      -0.898  11.462  18.854  0.00  0.00    +0.000 A 
ATOM      3  C   UNL     1      -0.019  10.356  19.077  0.00  0.00    +0.000 A 
ATOM      4  C   UNL     1       0.727   9.760  18.039  0.00  0.00    +0.000 A 
ATOM      5  C   UNL     1       1.581   8.687  18.273  0.00  0.00    +0.000 A 
ATOM      6  N   UNL     1       1.727   8.188  19.516  0.00  0.00    +0.000 N 
ATOM      7  C   UNL     1       1.026   8.737  20.532  0.00  0.00    +0.000 A 
ATOM      8  C   UNL     1       0.131   9.809  20.375  0.00  0.00    +0.000 A 
ATOM      9  C   UNL     1      -0.608  10.341  21.483  0.00  0.00    +0.000 A 
ATOM     10  C   UNL     1      -0.503   9.778  22.884  0.00  0.00    +0.000 C 
ATOM     11  C   UNL     1      -1.508  11.418  21.255  0.00  0.00    +0.000 A 
ATOM     12  C   UNL     1      -1.622  11.939  19.966  0.00  0.00    +0.000 A 
ATOM     13  N   UNL     1      -2.560  12.950  20.031  0.00  0.00    +0.000 N 
ATOM     14  C   UNL     1      -3.059  13.098  21.302  0.00  0.00    +0.000 A 
ATOM     15  C   UNL     1      -4.033  13.978  21.793  0.00  0.00    +0.000 A 
ATOM     16  C   UNL     1      -4.358  13.898  23.152  0.00  0.00    +0.000 A 
ATOM     17  C   UNL     1      -3.722  12.975  23.970  0.00  0.00    +0.000 A 
ATOM     18  C   UNL     1      -2.756  12.106  23.465  0.00  0.00    +0.000 A 
ATOM     19  C   UNL     1      -2.411  12.158  22.096  0.00  0.00    +0.000 A 
ATOM     20  H   UNL     1      -2.861  13.497  19.238  0.00  0.00    +0.000 HD
ENDROOT
BRANCH   6  21
ATOM     21  C1* UNL     1       2.769   7.140  19.787  0.00  0.00    +0.000 C 
ATOM     22  O4* UNL     1       2.230   6.089  20.625  0.00  0.00    +0.000 OA
ATOM     23  C4* UNL     1       2.170   4.876  19.832  0.00  0.00    +0.000 C 
ATOM     24  C3* UNL     1       2.412   5.263  18.382  0.00  0.00    +0.000 C 
ATOM     25  C2* UNL     1       3.347   6.445  18.552  0.00  0.00    +0.000 C 
BRANCH  24  26
ATOM     26  O3* UNL     1       2.984   4.178  17.669  0.00  0.00    +0.000 OA
ATOM     27  H3* UNL     1       2.498   3.353  17.823  0.00  0.00    +0.000 HD
ENDBRANCH  24  26
BRANCH  25  28
ATOM     28  O2* UNL     1       3.528   7.281  17.433  0.00  0.00    +0.000 OA
ATOM     29  H2* UNL     1       4.245   7.930  17.633  0.00  0.00    +0.000 HD
ENDBRANCH  25  28
BRANCH  23  30
ATOM     30  C5* UNL     1       0.828   4.178  20.036  0.00  0.00    +0.000 C 
BRANCH  30  31
ATOM     31  O5* UNL     1       0.804   2.958  19.292  0.00  0.00    +0.000 OA
ATOM     32  H5* UNL     1       0.058   2.427  19.621  0.00  0.00    +0.000 HD
ENDBRANCH  30  31
ENDBRANCH  23  30
ENDBRANCH   6  21
BRANCH  17  33
ATOM     33  O   UNL     1      -4.019  12.872  25.297  0.00  0.00    +0.000 OA
ATOM     34  H   UNL     1      -3.207  13.013  25.808  0.00  0.00    +0.000 HD
ENDBRANCH  17  33
TORSDOF 6
ENDMDL
MODEL 8
REMARK VINA RESULT:      -6.5      2.542      4.286
REMARK  Name = 
REMARK  8 active torsions:
REMARK  status: ('A' for Active; 'I' for Inactive)
REMARK    1  A    between atoms: C_1  and  C_2
REMARK    2  A    between atoms: N_6  and  C1*_7
REMARK    3  A    between atoms: C4*_9  and  C5*_10
REMARK    4  A    between atoms: C5*_10  and  O5*_11
REMARK    5  A    between atoms: C3*_12  and  O3*_13
REMARK    6  A    between atoms: C2*_14  and  O2*_15
REMARK    7  A    between atoms: C_18  and  C_19
REMARK    8  A    between atoms: C_26  and  O_27
REMARK                            x       y       z     vdW  Elec       q    Type
REMARK                         _______ _______ _______ _____ _____    ______ ____
ROOT
ATOM      1  C   UNL     1       0.110   9.297  23.186  0.00  0.00    +0.000 C 
ATOM      2  C   UNL     1       0.559   9.484  21.759  0.00  0.00    +0.000 A 
ATOM      3  C   UNL     1       0.410  10.701  21.023  0.00  0.00    +0.000 A 
ATOM      4  C   UNL     1      -0.203  11.847  21.572  0.00  0.00    +0.000 A 
ATOM      5  C   UNL     1      -0.337  13.026  20.846  0.00  0.00    +0.000 A 
ATOM      6  N   UNL     1       0.129  13.107  19.585  0.00  0.00    +0.000 N 
ATOM      7  C   UNL     1       0.721  12.027  19.030  0.00  0.00    +0.000 A 
ATOM      8  C   UNL     1       0.878  10.796  19.690  0.00  0.00    +0.000 A 
ATOM      9  C   UNL     1       1.493   9.671  19.049  0.00  0.00    +0.000 A 
ATOM     10  C   UNL     1       1.988   9.712  17.619  0.00  0.00    +0.000 C 
ATOM     11  C   UNL     1       1.610   8.450  19.767  0.00  0.00    +0.000 A 
ATOM     12  C   UNL     1       1.148   8.395  21.083  0.00  0.00    +0.000 A 
ATOM     13  N   UNL     1       1.372   7.107  21.526  0.00  0.00    +0.000 N 
ATOM     14  C   UNL     1       1.952   6.329  20.554  0.00  0.00    +0.000 A 
ATOM     15  C   UNL     1       2.319   4.977  20.579  0.00  0.00    +0.000 A 
ATOM     16  C   UNL     1       2.889   4.435  19.421  0.00  0.00    +0.000 A 
ATOM     17  C   UNL     1       3.079   5.228  18.298  0.00  0.00    +0.000 A 
ATOM     18  C   UNL     1       2.707   6.571  18.290  0.00  0.00    +0.000 A 
ATOM     19  C   UNL     1       2.124   7.145  19.441  0.00  0.00    +0.000 A 
ATOM     20  H   UNL     1       1.120   6.770  22.443  0.00  0.00    +0.000 HD
ENDROOT
BRANCH   6  21
ATOM     21  C1* UNL     1       0.126  14.427  18.867  0.00  0.00    +0.000 C 
ATOM     22  O4* UNL     1      -0.869  15.314  19.433  0.00  0.00    +0.000 OA
ATOM     23  C4* UNL     1      -0.171  16.416  20.069  0.00  0.00    +0.000 C 
ATOM     24  C3* UNL     1       1.302  16.045  20.141  0.00  0.00    +0.000 C 
ATOM     25  C2* UNL     1       1.447  15.199  18.890  0.00  0.00    +0.000 C 
BRANCH  24  26
ATOM     26  O3* UNL     1       2.106  17.213  20.139  0.00  0.00    +0.000 OA
ATOM     27  H3* UNL     1       2.784  17.182  20.831  0.00  0.00    +0.000 HD
ENDBRANCH  24  26
BRANCH  25  28
ATOM     28  O2* UNL     1       2.601  14.398  18.793  0.00  0.00    +0.000 OA
ATOM     29  H2* UNL     1       2.979  14.493  17.885  0.00  0.00    +0.000 HD
ENDBRANCH  25  28
BRANCH  23  30
ATOM     30  C5* UNL     1      -0.772  16.699  21.443  0.00  0.00    +0.000 C 
BRANCH  30  31
ATOM     31  O5* UNL     1       0.215  16.479  22.453  0.00  0.00    +0.000 OA
ATOM     32  H5* UNL     1      -0.160  15.859  23.102  0.00  0.00    +0.000 HD
ENDBRANCH  30  31
ENDBRANCH  23  30
ENDBRANCH   6  21
BRANCH  17  33
ATOM     33  O   UNL     1       3.629   4.727  17.155  0.00  0.00    +0.000 OA
ATOM     34  H   UNL     1       3.174   3.900  16.929  0.00  0.00    +0.000 HD
ENDBRANCH  17  33
TORSDOF 6
ENDMDL
MODEL 9
REMARK VINA RESULT:      -6.4      3.317      8.836
REMARK  Name = 
REMARK  8 active torsions:
REMARK  status: ('A' for Active; 'I' for Inactive)
REMARK    1  A    between atoms: C_1  and  C_2
REMARK    2  A    between atoms: N_6  and  C1*_7
REMARK    3  A    between atoms: C4*_9  and  C5*_10
REMARK    4  A    between atoms: C5*_10  and  O5*_11
REMARK    5  A    between atoms: C3*_12  and  O3*_13
REMARK    6  A    between atoms: C2*_14  and  O2*_15
REMARK    7  A    between atoms: C_18  and  C_19
REMARK    8  A    between atoms: C_26  and  O_27
REMARK                            x       y       z     vdW  Elec       q    Type
REMARK                         _______ _______ _______ _____ _____    ______ ____
ROOT
ATOM      1  C   UNL     1       0.789  12.244  17.786  0.00  0.00    +0.000 C 
ATOM      2  C   UNL     1       0.547  11.337  18.965  0.00  0.00    +0.000 A 
ATOM      3  C   UNL     1       1.146  10.048  19.122  0.00  0.00    +0.000 A 
ATOM      4  C   UNL     1       2.015   9.494  18.157  0.00  0.00    +0.000 A 
ATOM      5  C   UNL     1       2.594   8.241  18.326  0.00  0.00    +0.000 A 
ATOM      6  N   UNL     1       2.344   7.517  19.434  0.00  0.00    +0.000 N 
ATOM      7  C   UNL     1       1.517   8.019  20.376  0.00  0.00    +0.000 A 
ATOM      8  C   UNL     1       0.879   9.268  20.273  0.00  0.00    +0.000 A 
ATOM      9  C   UNL     1      -0.009   9.746  21.291  0.00  0.00    +0.000 A 
ATOM     10  C   UNL     1      -0.348   8.941  22.527  0.00  0.00    +0.000 C 
ATOM     11  C   UNL     1      -0.633  11.012  21.119  0.00  0.00    +0.000 A 
ATOM     12  C   UNL     1      -0.339  11.759  19.978  0.00  0.00    +0.000 A 
ATOM     13  N   UNL     1      -1.081  12.919  20.064  0.00  0.00    +0.000 N 
ATOM     14  C   UNL     1      -1.846  12.950  21.205  0.00  0.00    +0.000 A 
ATOM     15  C   UNL     1      -2.749  13.919  21.661  0.00  0.00    +0.000 A 
ATOM     16  C   UNL     1      -3.407  13.677  22.873  0.00  0.00    +0.000 A 
ATOM     17  C   UNL     1      -3.155  12.513  23.585  0.00  0.00    +0.000 A 
ATOM     18  C   UNL     1      -2.253  11.560  23.117  0.00  0.00    +0.000 A 
ATOM     19  C   UNL     1      -1.579  11.771  21.893  0.00  0.00    +0.000 A 
ATOM     20  H   UNL     1      -1.083  13.646  19.364  0.00  0.00    +0.000 HD
ENDROOT
BRANCH   6  21
ATOM     21  C1* UNL     1       3.097   6.240  19.682  0.00  0.00    +0.000 C 
ATOM     22  O4* UNL     1       2.355   5.374  20.574  0.00  0.00    +0.000 OA
ATOM     23  C4* UNL     1       1.945   4.206  19.817  0.00  0.00    +0.000 C 
ATOM     24  C3* UNL     1       2.199   4.499  18.347  0.00  0.00    +0.000 C 
ATOM     25  C2* UNL     1       3.412   5.404  18.440  0.00  0.00    +0.000 C 
BRANCH  24  26
ATOM     26  O3* UNL     1       2.436   3.293  17.637  0.00  0.00    +0.000 OA
ATOM     27  H3* UNL     1       1.843   3.204  16.876  0.00  0.00    +0.000 HD
ENDBRANCH  24  26
BRANCH  25  28
ATOM     28  O2* UNL     1       3.739   6.151  17.291  0.00  0.00    +0.000 OA
ATOM     29  H2* UNL     1       4.591   6.624  17.452  0.00  0.00    +0.000 HD
ENDBRANCH  25  28
BRANCH  23  30
ATOM     30  C5* UNL     1       0.482   3.877  20.106  0.00  0.00    +0.000 C 
BRANCH  30  31
ATOM     31  O5* UNL     1       0.114   2.681  19.415  0.00  0.00    +0.000 OA
ATOM     32  H5* UNL     1      -0.362   2.942  18.608  0.00  0.00    +0.000 HD
ENDBRANCH  30  31
ENDBRANCH  23  30
ENDBRANCH   6  21
BRANCH  17  33
ATOM     33  O   UNL     1      -3.782  12.250  24.768  0.00  0.00    +0.000 OA
ATOM     34  H   UNL     1      -4.081  13.089  25.153  0.00  0.00    +0.000 HD
ENDBRANCH  17  33
TORSDOF 6
ENDMDL
