MODEL 1
REMARK VINA RESULT:      -8.1      0.000      0.000
REMARK  Name = 
REMARK  2 active torsions:
REMARK  status: ('A' for Active; 'I' for Inactive)
REMARK    1  A    between atoms: C_2  and  C_3
REMARK    2  A    between atoms: C_2  and  C_9
REMARK                            x       y       z     vdW  Elec       q    Type
REMARK                         _______ _______ _______ _____ _____    ______ ____
ROOT
ATOM      1  C   UNL     1       4.032   4.044  16.949  0.00  0.00    +0.000 C 
ATOM      2  C   UNL     1       3.530   5.205  17.790  0.00  0.00    +0.000 C 
ATOM      3  O   UNL     1       3.631   6.397  17.561  0.00  0.00    +0.000 OA
ATOM      4  C   UNL     1       2.748   4.663  18.899  0.00  0.00    +0.000 A 
ATOM      5  C   UNL     1       1.934   5.338  19.789  0.00  0.00    +0.000 A 
ATOM      6  C   UNL     1       1.173   4.569  20.675  0.00  0.00    +0.000 A 
ATOM      7  C   UNL     1       1.239   3.159  20.653  0.00  0.00    +0.000 A 
ATOM      8  C   UNL     1       2.086   2.502  19.762  0.00  0.00    +0.000 A 
ATOM      9  C   UNL     1       2.832   3.285  18.898  0.00  0.00    +0.000 A 
ATOM     10  C   UNL     1       3.716   2.850  17.822  0.00  0.00    +0.000 C 
ATOM     11  O   UNL     1       4.048   1.688  17.669  0.00  0.00    +0.000 OA
ENDROOT
BRANCH   1  13
ATOM     12  O   UNL     1       5.865   3.523  15.495  0.00  0.00    +0.000 OA
ATOM     13  C   UNL     1       5.452   4.146  16.472  0.00  0.00    +0.000 C 
BRANCH  13  14
ATOM     14  C   UNL     1       6.402   5.042  17.210  0.00  0.00    +0.000 A 
ATOM     15  C   UNL     1       6.867   4.737  18.495  0.00  0.00    +0.000 A 
ATOM     16  C   UNL     1       7.636   5.658  19.209  0.00  0.00    +0.000 A 
ATOM     17  C   UNL     1       7.985   6.873  18.628  0.00  0.00    +0.000 A 
ATOM     18  C   UNL     1       7.584   7.160  17.324  0.00  0.00    +0.000 A 
ATOM     19  C   UNL     1       6.790   6.250  16.617  0.00  0.00    +0.000 A 
ENDBRANCH  13  14
ENDBRANCH   1  13
TORSDOF 2
ENDMDL
MODEL 2
REMARK VINA RESULT:      -8.0      0.351      1.151
REMARK  Name = 
REMARK  2 active torsions:
REMARK  status: ('A' for Active; 'I' for Inactive)
REMARK    1  A    between atoms: C_2  and  C_3
REMARK    2  A    between atoms: C_2  and  C_9
REMARK                            x       y       z     vdW  Elec       q    Type
REMARK                         _______ _______ _______ _____ _____    ______ ____
ROOT
ATOM      1  C   UNL     1       3.794   4.263  16.975  0.00  0.00    +0.000 C 
ATOM      2  C   UNL     1       3.244   5.312  17.926  0.00  0.00    +0.000 C 
ATOM      3  O   UNL     1       3.225   6.520  17.781  0.00  0.00    +0.000 OA
ATOM      4  C   UNL     1       2.583   4.624  19.033  0.00  0.00    +0.000 A 
ATOM      5  C   UNL     1       1.770   5.158  20.015  0.00  0.00    +0.000 A 
ATOM      6  C   UNL     1       1.137   4.262  20.883  0.00  0.00    +0.000 A 
ATOM      7  C   UNL     1       1.326   2.869  20.753  0.00  0.00    +0.000 A 
ATOM      8  C   UNL     1       2.172   2.357  19.770  0.00  0.00    +0.000 A 
ATOM      9  C   UNL     1       2.790   3.264  18.926  0.00  0.00    +0.000 A 
ATOM     10  C   UNL     1       3.641   2.987  17.773  0.00  0.00    +0.000 C 
ATOM     11  O   UNL     1       4.064   1.875  17.516  0.00  0.00    +0.000 OA
ENDROOT
BRANCH   1  13
ATOM     12  O   UNL     1       5.549   4.069  15.354  0.00  0.00    +0.000 OA
ATOM     13  C   UNL     1       5.167   4.529  16.429  0.00  0.00    +0.000 C 
BRANCH  13  14
ATOM     14  C   UNL     1       6.106   5.391  17.218  0.00  0.00    +0.000 A 
ATOM     15  C   UNL     1       6.458   6.683  16.805  0.00  0.00    +0.000 A 
ATOM     16  C   UNL     1       7.441   7.403  17.485  0.00  0.00    +0.000 A 
ATOM     17  C   UNL     1       8.051   6.858  18.611  0.00  0.00    +0.000 A 
ATOM     18  C   UNL     1       7.662   5.600  19.071  0.00  0.00    +0.000 A 
ATOM     19  C   UNL     1       6.697   4.866  18.375  0.00  0.00    +0.000 A 
ENDBRANCH  13  14
ENDBRANCH   1  13
TORSDOF 2
ENDMDL
MODEL 3
REMARK VINA RESULT:      -7.8      2.081      3.083
REMARK  Name = 
REMARK  2 active torsions:
REMARK  status: ('A' for Active; 'I' for Inactive)
REMARK    1  A    between atoms: C_2  and  C_3
REMARK    2  A    between atoms: C_2  and  C_9
REMARK                            x       y       z     vdW  Elec       q    Type
REMARK                         _______ _______ _______ _____ _____    ______ ____
ROOT
ATOM      1  C   UNL     1       4.486   4.628  16.751  0.00  0.00    +0.000 C 
ATOM      2  C   UNL     1       4.223   5.885  17.563  0.00  0.00    +0.000 C 
ATOM      3  O   UNL     1       4.566   7.026  17.310  0.00  0.00    +0.000 OA
ATOM      4  C   UNL     1       3.340   5.538  18.673  0.00  0.00    +0.000 A 
ATOM      5  C   UNL     1       2.674   6.384  19.540  0.00  0.00    +0.000 A 
ATOM      6  C   UNL     1       1.767   5.806  20.433  0.00  0.00    +0.000 A 
ATOM      7  C   UNL     1       1.545   4.411  20.441  0.00  0.00    +0.000 A 
ATOM      8  C   UNL     1       2.248   3.576  19.574  0.00  0.00    +0.000 A 
ATOM      9  C   UNL     1       3.143   4.172  18.702  0.00  0.00    +0.000 A 
ATOM     10  C   UNL     1       3.928   3.542  17.646  0.00  0.00    +0.000 C 
ATOM     11  O   UNL     1       4.018   2.334  17.521  0.00  0.00    +0.000 OA
ENDROOT
BRANCH   1  13
ATOM     12  O   UNL     1       6.837   4.297  17.076  0.00  0.00    +0.000 OA
ATOM     13  C   UNL     1       5.901   4.429  16.289  0.00  0.00    +0.000 C 
BRANCH  13  14
ATOM     14  C   UNL     1       6.183   4.385  14.818  0.00  0.00    +0.000 A 
ATOM     15  C   UNL     1       5.419   3.611  13.935  0.00  0.00    +0.000 A 
ATOM     16  C   UNL     1       5.795   3.481  12.597  0.00  0.00    +0.000 A 
ATOM     17  C   UNL     1       6.912   4.159  12.118  0.00  0.00    +0.000 A 
ATOM     18  C   UNL     1       7.641   4.985  12.971  0.00  0.00    +0.000 A 
ATOM     19  C   UNL     1       7.283   5.096  14.318  0.00  0.00    +0.000 A 
ENDBRANCH  13  14
ENDBRANCH   1  13
TORSDOF 2
ENDMDL
MODEL 4
REMARK VINA RESULT:      -7.5      1.825      2.882
REMARK  Name = 
REMARK  2 active torsions:
REMARK  status: ('A' for Active; 'I' for Inactive)
REMARK    1  A    between atoms: C_2  and  C_3
REMARK    2  A    between atoms: C_2  and  C_9
REMARK                            x       y       z     vdW  Elec       q    Type
REMARK                         _______ _______ _______ _____ _____    ______ ____
ROOT
ATOM      1  C   UNL     1       4.311   4.331  17.003  0.00  0.00    +0.000 C 
ATOM      2  C   UNL     1       3.854   5.455  17.917  0.00  0.00    +0.000 C 
ATOM      3  O   UNL     1       4.094   6.645  17.819  0.00  0.00    +0.000 OA
ATOM      4  C   UNL     1       2.926   4.899  18.898  0.00  0.00    +0.000 A 
ATOM      5  C   UNL     1       2.107   5.572  19.786  0.00  0.00    +0.000 A 
ATOM      6  C   UNL     1       1.198   4.810  20.526  0.00  0.00    +0.000 A 
ATOM      7  C   UNL     1       1.124   3.409  20.365  0.00  0.00    +0.000 A 
ATOM      8  C   UNL     1       1.978   2.750  19.481  0.00  0.00    +0.000 A 
ATOM      9  C   UNL     1       2.872   3.526  18.763  0.00  0.00    +0.000 A 
ATOM     10  C   UNL     1       3.801   3.100  17.722  0.00  0.00    +0.000 C 
ATOM     11  O   UNL     1       4.028   1.930  17.477  0.00  0.00    +0.000 OA
ENDROOT
BRANCH   1  13
ATOM     12  O   UNL     1       6.653   4.362  17.510  0.00  0.00    +0.000 OA
ATOM     13  C   UNL     1       5.771   4.323  16.653  0.00  0.00    +0.000 C 
BRANCH  13  14
ATOM     14  C   UNL     1       6.171   4.261  15.210  0.00  0.00    +0.000 A 
ATOM     15  C   UNL     1       7.292   4.940  14.717  0.00  0.00    +0.000 A 
ATOM     16  C   UNL     1       7.555   4.976  13.347  0.00  0.00    +0.000 A 
ATOM     17  C   UNL     1       6.725   4.297  12.459  0.00  0.00    +0.000 A 
ATOM     18  C   UNL     1       5.644   3.563  12.944  0.00  0.00    +0.000 A 
ATOM     19  C   UNL     1       5.363   3.547  14.314  0.00  0.00    +0.000 A 
ENDBRANCH  13  14
ENDBRANCH   1  13
TORSDOF 2
ENDMDL
MODEL 5
REMARK VINA RESULT:      -7.5      2.059      2.935
REMARK  Name = 
REMARK  2 active torsions:
REMARK  status: ('A' for Active; 'I' for Inactive)
REMARK    1  A    between atoms: C_2  and  C_3
REMARK    2  A    between atoms: C_2  and  C_9
REMARK                            x       y       z     vdW  Elec       q    Type
REMARK                         _______ _______ _______ _____ _____    ______ ____
ROOT
ATOM      1  C   UNL     1       3.777   4.049  17.621  0.00  0.00    +0.000 C 
ATOM      2  C   UNL     1       2.292   4.147  17.929  0.00  0.00    +0.000 C 
ATOM      3  O   UNL     1       1.390   4.465  17.176  0.00  0.00    +0.000 OA
ATOM      4  C   UNL     1       2.072   3.649  19.284  0.00  0.00    +0.000 A 
ATOM      5  C   UNL     1       0.875   3.356  19.910  0.00  0.00    +0.000 A 
ATOM      6  C   UNL     1       0.938   2.750  21.168  0.00  0.00    +0.000 A 
ATOM      7  C   UNL     1       2.180   2.450  21.769  0.00  0.00    +0.000 A 
ATOM      8  C   UNL     1       3.375   2.778  21.129  0.00  0.00    +0.000 A 
ATOM      9  C   UNL     1       3.286   3.381  19.885  0.00  0.00    +0.000 A 
ATOM     10  C   UNL     1       4.371   3.739  18.978  0.00  0.00    +0.000 C 
ATOM     11  O   UNL     1       5.543   3.704  19.303  0.00  0.00    +0.000 OA
ENDROOT
BRANCH   1  13
ATOM     12  O   UNL     1       4.163   6.384  17.243  0.00  0.00    +0.000 OA
ATOM     13  C   UNL     1       4.375   5.222  16.900  0.00  0.00    +0.000 C 
BRANCH  13  14
ATOM     14  C   UNL     1       5.268   4.971  15.722  0.00  0.00    +0.000 A 
ATOM     15  C   UNL     1       4.836   4.254  14.599  0.00  0.00    +0.000 A 
ATOM     16  C   UNL     1       5.732   3.917  13.584  0.00  0.00    +0.000 A 
ATOM     17  C   UNL     1       7.059   4.330  13.659  0.00  0.00    +0.000 A 
ATOM     18  C   UNL     1       7.485   5.101  14.740  0.00  0.00    +0.000 A 
ATOM     19  C   UNL     1       6.595   5.417  15.771  0.00  0.00    +0.000 A 
ENDBRANCH  13  14
ENDBRANCH   1  13
TORSDOF 2
ENDMDL
MODEL 6
REMARK VINA RESULT:      -7.5      2.149      5.510
REMARK  Name = 
REMARK  2 active torsions:
REMARK  status: ('A' for Active; 'I' for Inactive)
REMARK    1  A    between atoms: C_2  and  C_3
REMARK    2  A    between atoms: C_2  and  C_9
REMARK                            x       y       z     vdW  Elec       q    Type
REMARK                         _______ _______ _______ _____ _____    ______ ____
ROOT
ATOM      1  C   UNL     1       4.039   6.246  18.952  0.00  0.00    +0.000 C 
ATOM      2  C   UNL     1       3.938   6.745  17.521  0.00  0.00    +0.000 C 
ATOM      3  O   UNL     1       3.315   7.704  17.103  0.00  0.00    +0.000 OA
ATOM      4  C   UNL     1       4.848   5.955  16.695  0.00  0.00    +0.000 A 
ATOM      5  C   UNL     1       5.243   6.182  15.390  0.00  0.00    +0.000 A 
ATOM      6  C   UNL     1       6.244   5.357  14.868  0.00  0.00    +0.000 A 
ATOM      7  C   UNL     1       6.823   4.334  15.651  0.00  0.00    +0.000 A 
ATOM      8  C   UNL     1       6.390   4.108  16.957  0.00  0.00    +0.000 A 
ATOM      9  C   UNL     1       5.396   4.937  17.450  0.00  0.00    +0.000 A 
ATOM     10  C   UNL     1       4.835   4.969  18.796  0.00  0.00    +0.000 C 
ATOM     11  O   UNL     1       5.068   4.113  19.630  0.00  0.00    +0.000 OA
ENDROOT
BRANCH   1  13
ATOM     12  O   UNL     1       2.222   7.065  20.285  0.00  0.00    +0.000 OA
ATOM     13  C   UNL     1       2.740   6.118  19.695  0.00  0.00    +0.000 C 
BRANCH  13  14
ATOM     14  C   UNL     1       2.045   4.790  19.716  0.00  0.00    +0.000 A 
ATOM     15  C   UNL     1       1.827   4.082  20.904  0.00  0.00    +0.000 A 
ATOM     16  C   UNL     1       1.305   2.787  20.874  0.00  0.00    +0.000 A 
ATOM     17  C   UNL     1       0.955   2.205  19.659  0.00  0.00    +0.000 A 
ATOM     18  C   UNL     1       1.106   2.925  18.475  0.00  0.00    +0.000 A 
ATOM     19  C   UNL     1       1.653   4.212  18.501  0.00  0.00    +0.000 A 
ENDBRANCH  13  14
ENDBRANCH   1  13
TORSDOF 2
ENDMDL
MODEL 7
REMARK VINA RESULT:      -7.4      2.036      5.102
REMARK  Name = 
REMARK  2 active torsions:
REMARK  status: ('A' for Active; 'I' for Inactive)
REMARK    1  A    between atoms: C_2  and  C_3
REMARK    2  A    between atoms: C_2  and  C_9
REMARK                            x       y       z     vdW  Elec       q    Type
REMARK                         _______ _______ _______ _____ _____    ______ ____
ROOT
ATOM      1  C   UNL     1       4.002   3.795  18.803  0.00  0.00    +0.000 C 
ATOM      2  C   UNL     1       5.313   4.561  18.781  0.00  0.00    +0.000 C 
ATOM      3  O   UNL     1       5.957   4.973  19.729  0.00  0.00    +0.000 OA
ATOM      4  C   UNL     1       5.788   4.618  17.401  0.00  0.00    +0.000 A 
ATOM      5  C   UNL     1       7.023   5.024  16.932  0.00  0.00    +0.000 A 
ATOM      6  C   UNL     1       7.284   4.846  15.570  0.00  0.00    +0.000 A 
ATOM      7  C   UNL     1       6.319   4.270  14.715  0.00  0.00    +0.000 A 
ATOM      8  C   UNL     1       5.071   3.891  15.208  0.00  0.00    +0.000 A 
ATOM      9  C   UNL     1       4.835   4.082  16.559  0.00  0.00    +0.000 A 
ATOM     10  C   UNL     1       3.661   3.693  17.332  0.00  0.00    +0.000 C 
ATOM     11  O   UNL     1       2.633   3.293  16.817  0.00  0.00    +0.000 OA
ENDROOT
BRANCH   1  13
ATOM     12  O   UNL     1       2.394   3.708  20.579  0.00  0.00    +0.000 OA
ATOM     13  C   UNL     1       2.925   4.363  19.683  0.00  0.00    +0.000 C 
BRANCH  13  14
ATOM     14  C   UNL     1       2.485   5.780  19.468  0.00  0.00    +0.000 A 
ATOM     15  C   UNL     1       2.637   6.428  18.235  0.00  0.00    +0.000 A 
ATOM     16  C   UNL     1       2.348   7.788  18.108  0.00  0.00    +0.000 A 
ATOM     17  C   UNL     1       1.861   8.502  19.198  0.00  0.00    +0.000 A 
ATOM     18  C   UNL     1       1.641   7.852  20.412  0.00  0.00    +0.000 A 
ATOM     19  C   UNL     1       1.956   6.496  20.549  0.00  0.00    +0.000 A 
ENDBRANCH  13  14
ENDBRANCH   1  13
TORSDOF 2
ENDMDL
MODEL 8
REMARK VINA RESULT:      -7.4      2.130      5.638
REMARK  Name = 
REMARK  2 active torsions:
REMARK  status: ('A' for Active; 'I' for Inactive)
REMARK    1  A    between atoms: C_2  and  C_3
REMARK    2  A    between atoms: C_2  and  C_9
REMARK                            x       y       z     vdW  Elec       q    Type
REMARK                         _______ _______ _______ _____ _____    ______ ____
ROOT
ATOM      1  C   UNL     1       4.099   6.261  18.915  0.00  0.00    +0.000 C 
ATOM      2  C   UNL     1       3.966   6.722  17.474  0.00  0.00    +0.000 C 
ATOM      3  O   UNL     1       3.290   7.636  17.038  0.00  0.00    +0.000 OA
ATOM      4  C   UNL     1       4.916   5.966  16.662  0.00  0.00    +0.000 A 
ATOM      5  C   UNL     1       5.294   6.187  15.351  0.00  0.00    +0.000 A 
ATOM      6  C   UNL     1       6.337   5.407  14.842  0.00  0.00    +0.000 A 
ATOM      7  C   UNL     1       6.975   4.435  15.644  0.00  0.00    +0.000 A 
ATOM      8  C   UNL     1       6.559   4.214  16.956  0.00  0.00    +0.000 A 
ATOM      9  C   UNL     1       5.522   4.996  17.436  0.00  0.00    +0.000 A 
ATOM     10  C   UNL     1       4.965   5.026  18.783  0.00  0.00    +0.000 C 
ATOM     11  O   UNL     1       5.248   4.203  19.634  0.00  0.00    +0.000 OA
ENDROOT
BRANCH   1  13
ATOM     12  O   UNL     1       2.263   6.998  20.269  0.00  0.00    +0.000 OA
ATOM     13  C   UNL     1       2.811   6.076  19.666  0.00  0.00    +0.000 C 
BRANCH  13  14
ATOM     14  C   UNL     1       2.167   4.723  19.679  0.00  0.00    +0.000 A 
ATOM     15  C   UNL     1       1.706   4.106  18.509  0.00  0.00    +0.000 A 
ATOM     16  C   UNL     1       0.986   2.913  18.572  0.00  0.00    +0.000 A 
ATOM     17  C   UNL     1       0.757   2.300  19.801  0.00  0.00    +0.000 A 
ATOM     18  C   UNL     1       1.269   2.870  20.965  0.00  0.00    +0.000 A 
ATOM     19  C   UNL     1       1.967   4.080  20.907  0.00  0.00    +0.000 A 
ENDBRANCH  13  14
ENDBRANCH   1  13
TORSDOF 2
ENDMDL
MODEL 9
REMARK VINA RESULT:      -7.4      1.346      5.381
REMARK  Name = 
REMARK  2 active torsions:
REMARK  status: ('A' for Active; 'I' for Inactive)
REMARK    1  A    between atoms: C_2  and  C_3
REMARK    2  A    between atoms: C_2  and  C_9
REMARK                            x       y       z     vdW  Elec       q    Type
REMARK                         _______ _______ _______ _____ _____    ______ ____
ROOT
ATOM      1  C   UNL     1       4.687   4.261  17.306  0.00  0.00    +0.000 C 
ATOM      2  C   UNL     1       5.465   4.240  18.611  0.00  0.00    +0.000 C 
ATOM      3  O   UNL     1       5.432   3.399  19.490  0.00  0.00    +0.000 OA
ATOM      4  C   UNL     1       6.408   5.356  18.600  0.00  0.00    +0.000 A 
ATOM      5  C   UNL     1       7.452   5.608  19.469  0.00  0.00    +0.000 A 
ATOM      6  C   UNL     1       8.306   6.671  19.157  0.00  0.00    +0.000 A 
ATOM      7  C   UNL     1       8.102   7.449  17.997  0.00  0.00    +0.000 A 
ATOM      8  C   UNL     1       7.026   7.191  17.149  0.00  0.00    +0.000 A 
ATOM      9  C   UNL     1       6.193   6.136  17.481  0.00  0.00    +0.000 A 
ATOM     10  C   UNL     1       5.064   5.607  16.725  0.00  0.00    +0.000 C 
ATOM     11  O   UNL     1       4.597   6.171  15.752  0.00  0.00    +0.000 OA
ENDROOT
BRANCH   1  13
ATOM     12  O   UNL     1       2.611   3.292  16.602  0.00  0.00    +0.000 OA
ATOM     13  C   UNL     1       3.214   3.989  17.417  0.00  0.00    +0.000 C 
BRANCH  13  14
ATOM     14  C   UNL     1       2.451   4.583  18.562  0.00  0.00    +0.000 A 
ATOM     15  C   UNL     1       2.531   5.944  18.884  0.00  0.00    +0.000 A 
ATOM     16  C   UNL     1       1.921   6.437  20.039  0.00  0.00    +0.000 A 
ATOM     17  C   UNL     1       1.188   5.584  20.859  0.00  0.00    +0.000 A 
ATOM     18  C   UNL     1       1.045   4.241  20.513  0.00  0.00    +0.000 A 
ATOM     19  C   UNL     1       1.678   3.739  19.371  0.00  0.00    +0.000 A 
ENDBRANCH  13  14
ENDBRANCH   1  13
TORSDOF 2
ENDMDL
