MODEL 1
REMARK VINA RESULT:      -6.2      0.000      0.000
REMARK  Name = 
REMARK  7 active torsions:
REMARK  status: ('A' for Active; 'I' for Inactive)
REMARK    1  A    between atoms: C_1  and  N_2
REMARK    2  A    between atoms: N_9  and  C_10
REMARK    3  A    between atoms: C_10  and  C_11
REMARK    4  A    between atoms: C_11  and  C_12
REMARK    5  A    between atoms: C_12  and  C_13
REMARK    6  A    between atoms: C_13  and  O_14
REMARK    7  A    between atoms: N_15  and  C_16
REMARK                            x       y       z     vdW  Elec       q    Type
REMARK                         _______ _______ _______ _____ _____    ______ ____
ROOT
ATOM      1  C   UNL     1       7.858   6.754  17.909  0.00  0.00    +0.000 C 
ATOM      2  N   UNL     1       6.815   5.841  17.499  0.00  0.00    +0.000 N 
ATOM      3  C   UNL     1       5.897   5.408  18.463  0.00  0.00    +0.000 A 
ATOM      4  O   UNL     1       5.925   5.746  19.639  0.00  0.00    +0.000 OA
ATOM      5  C   UNL     1       4.917   4.520  17.928  0.00  0.00    +0.000 A 
ATOM      6  C   UNL     1       4.890   4.139  16.620  0.00  0.00    +0.000 A 
ATOM      7  N   UNL     1       3.859   3.287  16.363  0.00  0.00    +0.000 NA
ATOM      8  C   UNL     1       3.247   3.149  17.520  0.00  0.00    +0.000 A 
ATOM      9  N   UNL     1       3.852   3.888  18.506  0.00  0.00    +0.000 N 
ATOM     10  N   UNL     1       5.818   4.590  15.718  0.00  0.00    +0.000 N 
ATOM     11  C   UNL     1       5.792   4.189  14.326  0.00  0.00    +0.000 C 
ATOM     12  C   UNL     1       6.816   5.465  16.143  0.00  0.00    +0.000 A 
ATOM     13  O   UNL     1       7.672   5.896  15.363  0.00  0.00    +0.000 OA
ENDROOT
BRANCH   9  14
ATOM     14  C   UNL     1       3.456   3.955  19.900  0.00  0.00    +0.000 C 
BRANCH  14  15
ATOM     15  C   UNL     1       2.255   4.866  20.127  0.00  0.00    +0.000 C 
BRANCH  15  16
ATOM     16  C   UNL     1       1.065   4.120  20.739  0.00  0.00    +0.000 C 
BRANCH  16  17
ATOM     17  C   UNL     1       1.428   2.657  20.976  0.00  0.00    +0.000 C 
BRANCH  17  18
ATOM     18  O   UNL     1       1.413   2.361  22.365  0.00  0.00    +0.000 OA
ATOM     19  H   UNL     1       1.351   3.205  22.845  0.00  0.00    +0.000 HD
ENDBRANCH  17  18
ENDBRANCH  16  17
ENDBRANCH  15  16
ENDBRANCH  14  15
ENDBRANCH   9  14
TORSDOF 5
ENDMDL
MODEL 2
REMARK VINA RESULT:      -6.1      2.062      5.536
REMARK  Name = 
REMARK  7 active torsions:
REMARK  status: ('A' for Active; 'I' for Inactive)
REMARK    1  A    between atoms: C_1  and  N_2
REMARK    2  A    between atoms: N_9  and  C_10
REMARK    3  A    between atoms: C_10  and  C_11
REMARK    4  A    between atoms: C_11  and  C_12
REMARK    5  A    between atoms: C_12  and  C_13
REMARK    6  A    between atoms: C_13  and  O_14
REMARK    7  A    between atoms: N_15  and  C_16
REMARK                            x       y       z     vdW  Elec       q    Type
REMARK                         _______ _______ _______ _____ _____    ______ ____
ROOT
ATOM      1  C   UNL     1       3.656   1.462  18.267  0.00  0.00    +0.000 C 
ATOM      2  N   UNL     1       3.464   2.888  18.395  0.00  0.00    +0.000 N 
ATOM      3  C   UNL     1       4.141   3.732  17.508  0.00  0.00    +0.000 A 
ATOM      4  O   UNL     1       4.898   3.339  16.630  0.00  0.00    +0.000 OA
ATOM      5  C   UNL     1       3.858   5.111  17.735  0.00  0.00    +0.000 A 
ATOM      6  C   UNL     1       3.020   5.548  18.716  0.00  0.00    +0.000 A 
ATOM      7  N   UNL     1       2.918   6.906  18.726  0.00  0.00    +0.000 NA
ATOM      8  C   UNL     1       3.695   7.304  17.742  0.00  0.00    +0.000 A 
ATOM      9  N   UNL     1       4.287   6.243  17.102  0.00  0.00    +0.000 N 
ATOM     10  N   UNL     1       2.385   4.678  19.563  0.00  0.00    +0.000 N 
ATOM     11  C   UNL     1       1.490   5.138  20.606  0.00  0.00    +0.000 C 
ATOM     12  C   UNL     1       2.594   3.308  19.420  0.00  0.00    +0.000 A 
ATOM     13  O   UNL     1       2.041   2.489  20.161  0.00  0.00    +0.000 OA
ENDROOT
BRANCH   9  14
ATOM     14  C   UNL     1       5.216   6.316  15.989  0.00  0.00    +0.000 C 
BRANCH  14  15
ATOM     15  C   UNL     1       6.626   5.881  16.371  0.00  0.00    +0.000 C 
BRANCH  15  16
ATOM     16  C   UNL     1       7.143   6.610  17.615  0.00  0.00    +0.000 C 
BRANCH  16  17
ATOM     17  C   UNL     1       7.550   5.600  18.684  0.00  0.00    +0.000 C 
BRANCH  17  18
ATOM     18  O   UNL     1       7.525   4.282  18.155  0.00  0.00    +0.000 OA
ATOM     19  H   UNL     1       7.269   4.345  17.218  0.00  0.00    +0.000 HD
ENDBRANCH  17  18
ENDBRANCH  16  17
ENDBRANCH  15  16
ENDBRANCH  14  15
ENDBRANCH   9  14
TORSDOF 5
ENDMDL
MODEL 3
REMARK VINA RESULT:      -6.1      2.265      6.240
REMARK  Name = 
REMARK  7 active torsions:
REMARK  status: ('A' for Active; 'I' for Inactive)
REMARK    1  A    between atoms: C_1  and  N_2
REMARK    2  A    between atoms: N_9  and  C_10
REMARK    3  A    between atoms: C_10  and  C_11
REMARK    4  A    between atoms: C_11  and  C_12
REMARK    5  A    between atoms: C_12  and  C_13
REMARK    6  A    between atoms: C_13  and  O_14
REMARK    7  A    between atoms: N_15  and  C_16
REMARK                            x       y       z     vdW  Elec       q    Type
REMARK                         _______ _______ _______ _____ _____    ______ ____
ROOT
ATOM      1  C   UNL     1       1.843   2.338  19.657  0.00  0.00    +0.000 C 
ATOM      2  N   UNL     1       2.444   3.543  19.134  0.00  0.00    +0.000 N 
ATOM      3  C   UNL     1       3.383   3.424  18.103  0.00  0.00    +0.000 A 
ATOM      4  O   UNL     1       3.738   2.357  17.619  0.00  0.00    +0.000 OA
ATOM      5  C   UNL     1       3.890   4.685  17.671  0.00  0.00    +0.000 A 
ATOM      6  C   UNL     1       3.499   5.872  18.215  0.00  0.00    +0.000 A 
ATOM      7  N   UNL     1       4.129   6.928  17.632  0.00  0.00    +0.000 NA
ATOM      8  C   UNL     1       4.909   6.386  16.721  0.00  0.00    +0.000 A 
ATOM      9  N   UNL     1       4.793   5.018  16.702  0.00  0.00    +0.000 N 
ATOM     10  N   UNL     1       2.578   5.932  19.229  0.00  0.00    +0.000 N 
ATOM     11  C   UNL     1       2.157   7.191  19.808  0.00  0.00    +0.000 C 
ATOM     12  C   UNL     1       2.020   4.752  19.718  0.00  0.00    +0.000 A 
ATOM     13  O   UNL     1       1.187   4.761  20.630  0.00  0.00    +0.000 OA
ENDROOT
BRANCH   9  14
ATOM     14  C   UNL     1       5.519   4.102  15.841  0.00  0.00    +0.000 C 
BRANCH  14  15
ATOM     15  C   UNL     1       6.852   4.670  15.370  0.00  0.00    +0.000 C 
BRANCH  15  16
ATOM     16  C   UNL     1       6.994   4.633  13.845  0.00  0.00    +0.000 C 
BRANCH  16  17
ATOM     17  C   UNL     1       5.928   3.725  13.240  0.00  0.00    +0.000 C 
BRANCH  17  18
ATOM     18  O   UNL     1       6.498   2.886  12.245  0.00  0.00    +0.000 OA
ATOM     19  H   UNL     1       6.718   3.445  11.480  0.00  0.00    +0.000 HD
ENDBRANCH  17  18
ENDBRANCH  16  17
ENDBRANCH  15  16
ENDBRANCH  14  15
ENDBRANCH   9  14
TORSDOF 5
ENDMDL
MODEL 4
REMARK VINA RESULT:      -6.1      2.095      5.617
REMARK  Name = 
REMARK  7 active torsions:
REMARK  status: ('A' for Active; 'I' for Inactive)
REMARK    1  A    between atoms: C_1  and  N_2
REMARK    2  A    between atoms: N_9  and  C_10
REMARK    3  A    between atoms: C_10  and  C_11
REMARK    4  A    between atoms: C_11  and  C_12
REMARK    5  A    between atoms: C_12  and  C_13
REMARK    6  A    between atoms: C_13  and  O_14
REMARK    7  A    between atoms: N_15  and  C_16
REMARK                            x       y       z     vdW  Elec       q    Type
REMARK                         _______ _______ _______ _____ _____    ______ ____
ROOT
ATOM      1  C   UNL     1       2.163   2.257  19.577  0.00  0.00    +0.000 C 
ATOM      2  N   UNL     1       2.568   3.583  19.169  0.00  0.00    +0.000 N 
ATOM      3  C   UNL     1       3.510   3.701  18.140  0.00  0.00    +0.000 A 
ATOM      4  O   UNL     1       4.023   2.749  17.567  0.00  0.00    +0.000 OA
ATOM      5  C   UNL     1       3.815   5.058  17.827  0.00  0.00    +0.000 A 
ATOM      6  C   UNL     1       3.248   6.118  18.470  0.00  0.00    +0.000 A 
ATOM      7  N   UNL     1       3.706   7.306  17.988  0.00  0.00    +0.000 NA
ATOM      8  C   UNL     1       4.556   6.973  17.040  0.00  0.00    +0.000 A 
ATOM      9  N   UNL     1       4.652   5.611  16.900  0.00  0.00    +0.000 N 
ATOM     10  N   UNL     1       2.333   5.945  19.476  0.00  0.00    +0.000 N 
ATOM     11  C   UNL     1       1.726   7.069  20.161  0.00  0.00    +0.000 C 
ATOM     12  C   UNL     1       1.966   4.655  19.854  0.00  0.00    +0.000 A 
ATOM     13  O   UNL     1       1.145   4.455  20.755  0.00  0.00    +0.000 OA
ENDROOT
BRANCH   9  14
ATOM     14  C   UNL     1       5.506   4.898  15.968  0.00  0.00    +0.000 C 
BRANCH  14  15
ATOM     15  C   UNL     1       6.988   5.145  16.221  0.00  0.00    +0.000 C 
BRANCH  15  16
ATOM     16  C   UNL     1       7.468   4.517  17.532  0.00  0.00    +0.000 C 
BRANCH  16  17
ATOM     17  C   UNL     1       7.686   5.600  18.585  0.00  0.00    +0.000 C 
BRANCH  17  18
ATOM     18  O   UNL     1       6.918   5.322  19.747  0.00  0.00    +0.000 OA
ATOM     19  H   UNL     1       6.410   6.123  19.962  0.00  0.00    +0.000 HD
ENDBRANCH  17  18
ENDBRANCH  16  17
ENDBRANCH  15  16
ENDBRANCH  14  15
ENDBRANCH   9  14
TORSDOF 5
ENDMDL
MODEL 5
REMARK VINA RESULT:      -6.1      1.105      1.298
REMARK  Name = 
REMARK  7 active torsions:
REMARK  status: ('A' for Active; 'I' for Inactive)
REMARK    1  A    between atoms: C_1  and  N_2
REMARK    2  A    between atoms: N_9  and  C_10
REMARK    3  A    between atoms: C_10  and  C_11
REMARK    4  A    between atoms: C_11  and  C_12
REMARK    5  A    between atoms: C_12  and  C_13
REMARK    6  A    between atoms: C_13  and  O_14
REMARK    7  A    between atoms: N_15  and  C_16
REMARK                            x       y       z     vdW  Elec       q    Type
REMARK                         _______ _______ _______ _____ _____    ______ ____
ROOT
ATOM      1  C   UNL     1       7.874   6.507  18.309  0.00  0.00    +0.000 C 
ATOM      2  N   UNL     1       6.853   5.597  17.841  0.00  0.00    +0.000 N 
ATOM      3  C   UNL     1       6.061   4.943  18.791  0.00  0.00    +0.000 A 
ATOM      4  O   UNL     1       6.182   5.086  20.001  0.00  0.00    +0.000 OA
ATOM      5  C   UNL     1       5.089   4.083  18.200  0.00  0.00    +0.000 A 
ATOM      6  C   UNL     1       4.958   3.920  16.853  0.00  0.00    +0.000 A 
ATOM      7  N   UNL     1       3.961   3.047  16.544  0.00  0.00    +0.000 NA
ATOM      8  C   UNL     1       3.473   2.675  17.708  0.00  0.00    +0.000 A 
ATOM      9  N   UNL     1       4.125   3.286  18.750  0.00  0.00    +0.000 N 
ATOM     10  N   UNL     1       5.766   4.582  15.965  0.00  0.00    +0.000 N 
ATOM     11  C   UNL     1       5.629   4.413  14.532  0.00  0.00    +0.000 C 
ATOM     12  C   UNL     1       6.746   5.449  16.445  0.00  0.00    +0.000 A 
ATOM     13  O   UNL     1       7.494   6.065  15.680  0.00  0.00    +0.000 OA
ENDROOT
BRANCH   9  14
ATOM     14  C   UNL     1       3.862   3.094  20.164  0.00  0.00    +0.000 C 
BRANCH  14  15
ATOM     15  C   UNL     1       2.454   2.579  20.436  0.00  0.00    +0.000 C 
BRANCH  15  16
ATOM     16  C   UNL     1       1.628   3.558  21.276  0.00  0.00    +0.000 C 
BRANCH  16  17
ATOM     17  C   UNL     1       1.360   4.834  20.484  0.00  0.00    +0.000 C 
BRANCH  17  18
ATOM     18  O   UNL     1       2.113   5.914  21.015  0.00  0.00    +0.000 OA
ATOM     19  H   UNL     1       2.872   5.538  21.493  0.00  0.00    +0.000 HD
ENDBRANCH  17  18
ENDBRANCH  16  17
ENDBRANCH  15  16
ENDBRANCH  14  15
ENDBRANCH   9  14
TORSDOF 5
ENDMDL
MODEL 6
REMARK VINA RESULT:      -6.0      2.352      2.877
REMARK  Name = 
REMARK  7 active torsions:
REMARK  status: ('A' for Active; 'I' for Inactive)
REMARK    1  A    between atoms: C_1  and  N_2
REMARK    2  A    between atoms: N_9  and  C_10
REMARK    3  A    between atoms: C_10  and  C_11
REMARK    4  A    between atoms: C_11  and  C_12
REMARK    5  A    between atoms: C_12  and  C_13
REMARK    6  A    between atoms: C_13  and  O_14
REMARK    7  A    between atoms: N_15  and  C_16
REMARK                            x       y       z     vdW  Elec       q    Type
REMARK                         _______ _______ _______ _____ _____    ______ ____
ROOT
ATOM      1  C   UNL     1       3.185   8.091  17.598  0.00  0.00    +0.000 C 
ATOM      2  N   UNL     1       3.711   6.804  17.992  0.00  0.00    +0.000 N 
ATOM      3  C   UNL     1       3.111   6.144  19.071  0.00  0.00    +0.000 A 
ATOM      4  O   UNL     1       2.169   6.592  19.712  0.00  0.00    +0.000 OA
ATOM      5  C   UNL     1       3.716   4.883  19.350  0.00  0.00    +0.000 A 
ATOM      6  C   UNL     1       4.768   4.387  18.639  0.00  0.00    +0.000 A 
ATOM      7  N   UNL     1       5.162   3.169  19.103  0.00  0.00    +0.000 NA
ATOM      8  C   UNL     1       4.344   2.914  20.102  0.00  0.00    +0.000 A 
ATOM      9  N   UNL     1       3.438   3.929  20.288  0.00  0.00    +0.000 N 
ATOM     10  N   UNL     1       5.322   5.078  17.593  0.00  0.00    +0.000 N 
ATOM     11  C   UNL     1       6.438   4.554  16.833  0.00  0.00    +0.000 C 
ATOM     12  C   UNL     1       4.798   6.320  17.240  0.00  0.00    +0.000 A 
ATOM     13  O   UNL     1       5.267   6.976  16.304  0.00  0.00    +0.000 OA
ENDROOT
BRANCH   9  14
ATOM     14  C   UNL     1       2.408   3.990  21.308  0.00  0.00    +0.000 C 
BRANCH  14  15
ATOM     15  C   UNL     1       1.291   2.979  21.076  0.00  0.00    +0.000 C 
BRANCH  15  16
ATOM     16  C   UNL     1       0.516   3.253  19.783  0.00  0.00    +0.000 C 
BRANCH  16  17
ATOM     17  C   UNL     1       0.842   2.187  18.741  0.00  0.00    +0.000 C 
BRANCH  17  18
ATOM     18  O   UNL     1       1.615   2.744  17.688  0.00  0.00    +0.000 OA
ATOM     19  H   UNL     1       2.301   2.097  17.452  0.00  0.00    +0.000 HD
ENDBRANCH  17  18
ENDBRANCH  16  17
ENDBRANCH  15  16
ENDBRANCH  14  15
ENDBRANCH   9  14
TORSDOF 5
ENDMDL
MODEL 7
REMARK VINA RESULT:      -6.0      1.907      5.840
REMARK  Name = 
REMARK  7 active torsions:
REMARK  status: ('A' for Active; 'I' for Inactive)
REMARK    1  A    between atoms: C_1  and  N_2
REMARK    2  A    between atoms: N_9  and  C_10
REMARK    3  A    between atoms: C_10  and  C_11
REMARK    4  A    between atoms: C_11  and  C_12
REMARK    5  A    between atoms: C_12  and  C_13
REMARK    6  A    between atoms: C_13  and  O_14
REMARK    7  A    between atoms: N_15  and  C_16
REMARK                            x       y       z     vdW  Elec       q    Type
REMARK                         _______ _______ _______ _____ _____    ______ ____
ROOT
ATOM      1  C   UNL     1       4.826   1.908  20.352  0.00  0.00    +0.000 C 
ATOM      2  N   UNL     1       4.160   3.118  19.930  0.00  0.00    +0.000 N 
ATOM      3  C   UNL     1       4.848   3.994  19.081  0.00  0.00    +0.000 A 
ATOM      4  O   UNL     1       5.988   3.804  18.678  0.00  0.00    +0.000 OA
ATOM      5  C   UNL     1       4.076   5.142  18.733  0.00  0.00    +0.000 A 
ATOM      6  C   UNL     1       2.809   5.355  19.187  0.00  0.00    +0.000 A 
ATOM      7  N   UNL     1       2.292   6.521  18.713  0.00  0.00    +0.000 NA
ATOM      8  C   UNL     1       3.246   7.025  17.959  0.00  0.00    +0.000 A 
ATOM      9  N   UNL     1       4.354   6.215  17.935  0.00  0.00    +0.000 N 
ATOM     10  N   UNL     1       2.183   4.467  20.022  0.00  0.00    +0.000 N 
ATOM     11  C   UNL     1       0.835   4.688  20.505  0.00  0.00    +0.000 C 
ATOM     12  C   UNL     1       2.853   3.310  20.418  0.00  0.00    +0.000 A 
ATOM     13  O   UNL     1       2.326   2.483  21.168  0.00  0.00    +0.000 OA
ENDROOT
BRANCH   9  14
ATOM     14  C   UNL     1       5.594   6.470  17.224  0.00  0.00    +0.000 C 
BRANCH  14  15
ATOM     15  C   UNL     1       5.461   6.268  15.720  0.00  0.00    +0.000 C 
BRANCH  15  16
ATOM     16  C   UNL     1       5.532   4.791  15.322  0.00  0.00    +0.000 C 
BRANCH  16  17
ATOM     17  C   UNL     1       6.609   4.584  14.260  0.00  0.00    +0.000 C 
BRANCH  17  18
ATOM     18  O   UNL     1       7.742   5.394  14.540  0.00  0.00    +0.000 OA
ATOM     19  H   UNL     1       7.825   5.461  15.507  0.00  0.00    +0.000 HD
ENDBRANCH  17  18
ENDBRANCH  16  17
ENDBRANCH  15  16
ENDBRANCH  14  15
ENDBRANCH   9  14
TORSDOF 5
ENDMDL
MODEL 8
REMARK VINA RESULT:      -6.0      2.419      3.249
REMARK  Name = 
REMARK  7 active torsions:
REMARK  status: ('A' for Active; 'I' for Inactive)
REMARK    1  A    between atoms: C_1  and  N_2
REMARK    2  A    between atoms: N_9  and  C_10
REMARK    3  A    between atoms: C_10  and  C_11
REMARK    4  A    between atoms: C_11  and  C_12
REMARK    5  A    between atoms: C_12  and  C_13
REMARK    6  A    between atoms: C_13  and  O_14
REMARK    7  A    between atoms: N_15  and  C_16
REMARK                            x       y       z     vdW  Elec       q    Type
REMARK                         _______ _______ _______ _____ _____    ______ ____
ROOT
ATOM      1  C   UNL     1       6.585   4.529  17.440  0.00  0.00    +0.000 C 
ATOM      2  N   UNL     1       5.387   5.095  18.017  0.00  0.00    +0.000 N 
ATOM      3  C   UNL     1       4.755   4.397  19.052  0.00  0.00    +0.000 A 
ATOM      4  O   UNL     1       5.148   3.327  19.499  0.00  0.00    +0.000 OA
ATOM      5  C   UNL     1       3.593   5.066  19.538  0.00  0.00    +0.000 A 
ATOM      6  C   UNL     1       3.153   6.255  19.037  0.00  0.00    +0.000 A 
ATOM      7  N   UNL     1       2.025   6.683  19.668  0.00  0.00    +0.000 NA
ATOM      8  C   UNL     1       1.774   5.754  20.566  0.00  0.00    +0.000 A 
ATOM      9  N   UNL     1       2.708   4.748  20.529  0.00  0.00    +0.000 N 
ATOM     10  N   UNL     1       3.807   6.894  18.017  0.00  0.00    +0.000 N 
ATOM     11  C   UNL     1       3.344   8.159  17.483  0.00  0.00    +0.000 C 
ATOM     12  C   UNL     1       4.957   6.321  17.476  0.00  0.00    +0.000 A 
ATOM     13  O   UNL     1       5.577   6.864  16.556  0.00  0.00    +0.000 OA
ENDROOT
BRANCH   9  14
ATOM     14  C   UNL     1       2.729   3.559  21.362  0.00  0.00    +0.000 C 
BRANCH  14  15
ATOM     15  C   UNL     1       1.625   2.571  21.004  0.00  0.00    +0.000 C 
BRANCH  15  16
ATOM     16  C   UNL     1       1.803   1.982  19.602  0.00  0.00    +0.000 C 
BRANCH  16  17
ATOM     17  C   UNL     1       0.667   2.439  18.692  0.00  0.00    +0.000 C 
BRANCH  17  18
ATOM     18  O   UNL     1       1.140   3.385  17.745  0.00  0.00    +0.000 OA
ATOM     19  H   UNL     1       2.038   3.646  18.012  0.00  0.00    +0.000 HD
ENDBRANCH  17  18
ENDBRANCH  16  17
ENDBRANCH  15  16
ENDBRANCH  14  15
ENDBRANCH   9  14
TORSDOF 5
ENDMDL
MODEL 9
REMARK VINA RESULT:      -6.0      1.857      5.288
REMARK  Name = 
REMARK  7 active torsions:
REMARK  status: ('A' for Active; 'I' for Inactive)
REMARK    1  A    between atoms: C_1  and  N_2
REMARK    2  A    between atoms: N_9  and  C_10
REMARK    3  A    between atoms: C_10  and  C_11
REMARK    4  A    between atoms: C_11  and  C_12
REMARK    5  A    between atoms: C_12  and  C_13
REMARK    6  A    between atoms: C_13  and  O_14
REMARK    7  A    between atoms: N_15  and  C_16
REMARK                            x       y       z     vdW  Elec       q    Type
REMARK                         _______ _______ _______ _____ _____    ______ ____
ROOT
ATOM      1  C   UNL     1       1.496   6.543  20.635  0.00  0.00    +0.000 C 
ATOM      2  N   UNL     1       2.155   5.607  19.754  0.00  0.00    +0.000 N 
ATOM      3  C   UNL     1       3.114   6.098  18.860  0.00  0.00    +0.000 A 
ATOM      4  O   UNL     1       3.426   7.278  18.769  0.00  0.00    +0.000 OA
ATOM      5  C   UNL     1       3.694   5.073  18.056  0.00  0.00    +0.000 A 
ATOM      6  C   UNL     1       3.342   3.760  18.154  0.00  0.00    +0.000 A 
ATOM      7  N   UNL     1       4.038   2.983  17.279  0.00  0.00    +0.000 NA
ATOM      8  C   UNL     1       4.826   3.824  16.644  0.00  0.00    +0.000 A 
ATOM      9  N   UNL     1       4.657   5.112  17.088  0.00  0.00    +0.000 N 
ATOM     10  N   UNL     1       2.391   3.332  19.044  0.00  0.00    +0.000 N 
ATOM     11  C   UNL     1       2.016   1.937  19.154  0.00  0.00    +0.000 C 
ATOM     12  C   UNL     1       1.768   4.259  19.878  0.00  0.00    +0.000 A 
ATOM     13  O   UNL     1       0.907   3.917  20.694  0.00  0.00    +0.000 OA
ENDROOT
BRANCH   9  14
ATOM     14  C   UNL     1       5.345   6.292  16.597  0.00  0.00    +0.000 C 
BRANCH  14  15
ATOM     15  C   UNL     1       6.862   6.154  16.654  0.00  0.00    +0.000 C 
BRANCH  15  16
ATOM     16  C   UNL     1       7.454   6.770  17.925  0.00  0.00    +0.000 C 
BRANCH  16  17
ATOM     17  C   UNL     1       7.826   5.671  18.916  0.00  0.00    +0.000 C 
BRANCH  17  18
ATOM     18  O   UNL     1       6.749   5.423  19.808  0.00  0.00    +0.000 OA
ATOM     19  H   UNL     1       7.035   4.730  20.429  0.00  0.00    +0.000 HD
ENDBRANCH  17  18
ENDBRANCH  16  17
ENDBRANCH  15  16
ENDBRANCH  14  15
ENDBRANCH   9  14
TORSDOF 5
ENDMDL
