MODEL 1
REMARK VINA RESULT:      -9.3      0.000      0.000
REMARK  Name = 
REMARK  5 active torsions:
REMARK  status: ('A' for Active; 'I' for Inactive)
REMARK    1  A    between atoms: C_1  and  C_2
REMARK    2  A    between atoms: C_8  and  N_9
REMARK    3  A    between atoms: N_9  and  C_10
REMARK    4  A    between atoms: C_10  and  C_11
REMARK    5  A    between atoms: C_10  and  C_17
REMARK                            x       y       z     vdW  Elec       q    Type
REMARK                         _______ _______ _______ _____ _____    ______ ____
ROOT
ATOM      1  C   UNL     1       3.206   6.312  19.347  0.00  0.00    +0.000 C 
ENDROOT
BRANCH   1   2
ATOM      2  C   UNL     1       2.384   4.995  19.236  0.00  0.00    +0.000 A 
ATOM      3  C   UNL     1       2.043   4.244  20.372  0.00  0.00    +0.000 A 
ATOM      4  C   UNL     1       1.294   3.073  20.220  0.00  0.00    +0.000 A 
ATOM      5  C   UNL     1       0.937   2.670  18.949  0.00  0.00    +0.000 A 
ATOM      6  F   UNL     1       0.212   1.553  18.772  0.00  0.00    +0.000 F 
ATOM      7  C   UNL     1       1.335   3.431  17.870  0.00  0.00    +0.000 A 
ATOM      8  N   UNL     1       2.060   4.575  17.978  0.00  0.00    +0.000 NA
ENDBRANCH   1   2
BRANCH   1   9
ATOM      9  C   UNL     1       2.343   7.565  19.219  0.00  0.00    +0.000 A 
ATOM     10  C   UNL     1       1.617   8.066  20.314  0.00  0.00    +0.000 A 
ATOM     11  C   UNL     1       0.951   9.289  20.224  0.00  0.00    +0.000 A 
ATOM     12  C   UNL     1       0.979  10.014  19.034  0.00  0.00    +0.000 A 
ATOM     13  C   UNL     1       1.658   9.508  17.926  0.00  0.00    +0.000 A 
ATOM     14  C   UNL     1       2.333   8.291  18.015  0.00  0.00    +0.000 A 
ENDBRANCH   1   9
BRANCH   1  15
ATOM     15  N   UNL     1       4.337   6.302  18.385  0.00  0.00    +0.000 NA
ATOM     16  H   UNL     1       3.913   6.203  17.459  0.00  0.00    +0.000 HD
BRANCH  15  24
ATOM     17  C   UNL     1       6.659   3.886  12.987  0.00  0.00    +0.000 C 
ATOM     18  C   UNL     1       6.602   4.274  14.410  0.00  0.00    +0.000 A 
ATOM     19  N   UNL     1       7.268   5.377  14.888  0.00  0.00    +0.000 NA
ATOM     20  C   UNL     1       6.890   5.434  16.146  0.00  0.00    +0.000 A 
ATOM     21  N   UNL     1       6.056   4.388  16.406  0.00  0.00    +0.000 N 
ATOM     22  N   UNL     1       5.866   3.620  15.322  0.00  0.00    +0.000 NA
ATOM     23  C   UNL     1       5.454   4.086  17.684  0.00  0.00    +0.000 C 
ATOM     24  C   UNL     1       5.404   5.316  18.619  0.00  0.00    +0.000 C 
ATOM     25  C   UNL     1       6.775   6.039  18.569  0.00  0.00    +0.000 C 
ATOM     26  C   UNL     1       7.186   6.478  17.158  0.00  0.00    +0.000 C 
ENDBRANCH  15  24
ENDBRANCH   1  15
TORSDOF 4
ENDMDL
MODEL 2
REMARK VINA RESULT:      -9.1      0.554      1.366
REMARK  Name = 
REMARK  5 active torsions:
REMARK  status: ('A' for Active; 'I' for Inactive)
REMARK    1  A    between atoms: C_1  and  C_2
REMARK    2  A    between atoms: C_8  and  N_9
REMARK    3  A    between atoms: N_9  and  C_10
REMARK    4  A    between atoms: C_10  and  C_11
REMARK    5  A    between atoms: C_10  and  C_17
REMARK                            x       y       z     vdW  Elec       q    Type
REMARK                         _______ _______ _______ _____ _____    ______ ____
ROOT
ATOM      1  C   UNL     1       3.295   6.325  19.342  0.00  0.00    +0.000 C 
ENDROOT
BRANCH   1   2
ATOM      2  C   UNL     1       2.457   5.031  19.134  0.00  0.00    +0.000 A 
ATOM      3  C   UNL     1       1.916   4.698  17.882  0.00  0.00    +0.000 A 
ATOM      4  C   UNL     1       1.179   3.519  17.745  0.00  0.00    +0.000 A 
ATOM      5  C   UNL     1       0.976   2.725  18.856  0.00  0.00    +0.000 A 
ATOM      6  F   UNL     1       0.277   1.583  18.754  0.00  0.00    +0.000 F 
ATOM      7  C   UNL     1       1.500   3.126  20.067  0.00  0.00    +0.000 A 
ATOM      8  N   UNL     1       2.224   4.263  20.240  0.00  0.00    +0.000 NA
ENDBRANCH   1   2
BRANCH   1   9
ATOM      9  C   UNL     1       2.456   7.597  19.260  0.00  0.00    +0.000 A 
ATOM     10  C   UNL     1       2.346   8.324  18.062  0.00  0.00    +0.000 A 
ATOM     11  C   UNL     1       1.463   9.400  17.962  0.00  0.00    +0.000 A 
ATOM     12  C   UNL     1       0.698   9.780  19.063  0.00  0.00    +0.000 A 
ATOM     13  C   UNL     1       0.828   9.097  20.271  0.00  0.00    +0.000 A 
ATOM     14  C   UNL     1       1.703   8.015  20.372  0.00  0.00    +0.000 A 
ENDBRANCH   1   9
BRANCH   1  15
ATOM     15  N   UNL     1       4.453   6.350  18.412  0.00  0.00    +0.000 NA
ATOM     16  H   UNL     1       4.055   6.299  17.471  0.00  0.00    +0.000 HD
BRANCH  15  24
ATOM     17  C   UNL     1       6.623   3.875  12.977  0.00  0.00    +0.000 C 
ATOM     18  C   UNL     1       6.602   4.268  14.401  0.00  0.00    +0.000 A 
ATOM     19  N   UNL     1       7.298   5.357  14.863  0.00  0.00    +0.000 NA
ATOM     20  C   UNL     1       6.945   5.425  16.128  0.00  0.00    +0.000 A 
ATOM     21  N   UNL     1       6.096   4.396  16.407  0.00  0.00    +0.000 N 
ATOM     22  N   UNL     1       5.870   3.631  15.327  0.00  0.00    +0.000 NA
ATOM     23  C   UNL     1       5.512   4.109  17.696  0.00  0.00    +0.000 C 
ATOM     24  C   UNL     1       5.504   5.343  18.629  0.00  0.00    +0.000 C 
ATOM     25  C   UNL     1       6.889   6.037  18.551  0.00  0.00    +0.000 C 
ATOM     26  C   UNL     1       7.281   6.465  17.132  0.00  0.00    +0.000 C 
ENDBRANCH  15  24
ENDBRANCH   1  15
TORSDOF 4
ENDMDL
MODEL 3
REMARK VINA RESULT:      -9.0      2.114      4.316
REMARK  Name = 
REMARK  5 active torsions:
REMARK  status: ('A' for Active; 'I' for Inactive)
REMARK    1  A    between atoms: C_1  and  C_2
REMARK    2  A    between atoms: C_8  and  N_9
REMARK    3  A    between atoms: N_9  and  C_10
REMARK    4  A    between atoms: C_10  and  C_11
REMARK    5  A    between atoms: C_10  and  C_17
REMARK                            x       y       z     vdW  Elec       q    Type
REMARK                         _______ _______ _______ _____ _____    ______ ____
ROOT
ATOM      1  C   UNL     1       3.015   6.039  18.699  0.00  0.00    +0.000 C 
ENDROOT
BRANCH   1   2
ATOM      2  C   UNL     1       2.298   7.413  18.834  0.00  0.00    +0.000 A 
ATOM      3  C   UNL     1       2.178   8.289  17.743  0.00  0.00    +0.000 A 
ATOM      4  C   UNL     1       1.515   9.508  17.912  0.00  0.00    +0.000 A 
ATOM      5  C   UNL     1       1.023   9.833  19.160  0.00  0.00    +0.000 A 
ATOM      6  F   UNL     1       0.376  10.993  19.352  0.00  0.00    +0.000 F 
ATOM      7  C   UNL     1       1.207   8.947  20.202  0.00  0.00    +0.000 A 
ATOM      8  N   UNL     1       1.842   7.752  20.076  0.00  0.00    +0.000 NA
ENDBRANCH   1   2
BRANCH   1   9
ATOM      9  C   UNL     1       2.309   4.922  19.463  0.00  0.00    +0.000 A 
ATOM     10  C   UNL     1       1.475   4.001  18.804  0.00  0.00    +0.000 A 
ATOM     11  C   UNL     1       0.954   2.900  19.486  0.00  0.00    +0.000 A 
ATOM     12  C   UNL     1       1.235   2.720  20.839  0.00  0.00    +0.000 A 
ATOM     13  C   UNL     1       2.023   3.649  21.517  0.00  0.00    +0.000 A 
ATOM     14  C   UNL     1       2.554   4.745  20.836  0.00  0.00    +0.000 A 
ENDBRANCH   1   9
BRANCH   1  15
ATOM     15  N   UNL     1       4.448   6.161  19.071  0.00  0.00    +0.000 NA
ATOM     16  H   UNL     1       4.844   6.852  18.429  0.00  0.00    +0.000 HD
BRANCH  15  24
ATOM     17  C   UNL     1       6.846   4.606  13.397  0.00  0.00    +0.000 C 
ATOM     18  C   UNL     1       6.697   4.646  14.865  0.00  0.00    +0.000 A 
ATOM     19  N   UNL     1       7.521   5.408  15.657  0.00  0.00    +0.000 NA
ATOM     20  C   UNL     1       7.010   5.255  16.859  0.00  0.00    +0.000 A 
ATOM     21  N   UNL     1       5.941   4.412  16.781  0.00  0.00    +0.000 N 
ATOM     22  N   UNL     1       5.727   3.995  15.524  0.00  0.00    +0.000 NA
ATOM     23  C   UNL     1       5.132   3.971  17.893  0.00  0.00    +0.000 C 
ATOM     24  C   UNL     1       5.235   4.919  19.111  0.00  0.00    +0.000 C 
ATOM     25  C   UNL     1       6.726   5.276  19.342  0.00  0.00    +0.000 C 
ATOM     26  C   UNL     1       7.397   5.924  18.125  0.00  0.00    +0.000 C 
ENDBRANCH  15  24
ENDBRANCH   1  15
TORSDOF 4
ENDMDL
MODEL 4
REMARK VINA RESULT:      -9.0      2.075      4.191
REMARK  Name = 
REMARK  5 active torsions:
REMARK  status: ('A' for Active; 'I' for Inactive)
REMARK    1  A    between atoms: C_1  and  C_2
REMARK    2  A    between atoms: C_8  and  N_9
REMARK    3  A    between atoms: N_9  and  C_10
REMARK    4  A    between atoms: C_10  and  C_11
REMARK    5  A    between atoms: C_10  and  C_17
REMARK                            x       y       z     vdW  Elec       q    Type
REMARK                         _______ _______ _______ _____ _____    ______ ____
ROOT
ATOM      1  C   UNL     1       2.955   6.053  18.496  0.00  0.00    +0.000 C 
ENDROOT
BRANCH   1   2
ATOM      2  C   UNL     1       2.235   7.401  18.786  0.00  0.00    +0.000 A 
ATOM      3  C   UNL     1       2.007   8.345  17.773  0.00  0.00    +0.000 A 
ATOM      4  C   UNL     1       1.346   9.538  18.083  0.00  0.00    +0.000 A 
ATOM      5  C   UNL     1       0.962   9.768  19.389  0.00  0.00    +0.000 A 
ATOM      6  F   UNL     1       0.320  10.900  19.716  0.00  0.00    +0.000 F 
ATOM      7  C   UNL     1       1.249   8.817  20.346  0.00  0.00    +0.000 A 
ATOM      8  N   UNL     1       1.886   7.646  20.084  0.00  0.00    +0.000 NA
ENDBRANCH   1   2
BRANCH   1   9
ATOM      9  C   UNL     1       2.392   4.889  19.309  0.00  0.00    +0.000 A 
ATOM     10  C   UNL     1       2.666   4.758  20.682  0.00  0.00    +0.000 A 
ATOM     11  C   UNL     1       2.029   3.776  21.442  0.00  0.00    +0.000 A 
ATOM     12  C   UNL     1       1.133   2.897  20.837  0.00  0.00    +0.000 A 
ATOM     13  C   UNL     1       0.885   2.986  19.468  0.00  0.00    +0.000 A 
ATOM     14  C   UNL     1       1.512   3.973  18.707  0.00  0.00    +0.000 A 
ENDBRANCH   1   9
BRANCH   1  15
ATOM     15  N   UNL     1       4.424   6.201  18.661  0.00  0.00    +0.000 NA
ATOM     16  H   UNL     1       4.731   6.801  17.891  0.00  0.00    +0.000 HD
BRANCH  15  24
ATOM     17  C   UNL     1       6.896   4.458  13.073  0.00  0.00    +0.000 C 
ATOM     18  C   UNL     1       6.729   4.549  14.537  0.00  0.00    +0.000 A 
ATOM     19  N   UNL     1       7.542   5.339  15.313  0.00  0.00    +0.000 NA
ATOM     20  C   UNL     1       7.016   5.226  16.512  0.00  0.00    +0.000 A 
ATOM     21  N   UNL     1       5.950   4.378  16.451  0.00  0.00    +0.000 N 
ATOM     22  N   UNL     1       5.752   3.917  15.206  0.00  0.00    +0.000 NA
ATOM     23  C   UNL     1       5.127   3.973  17.567  0.00  0.00    +0.000 C 
ATOM     24  C   UNL     1       5.213   4.962  18.752  0.00  0.00    +0.000 C 
ATOM     25  C   UNL     1       6.700   5.331  18.990  0.00  0.00    +0.000 C 
ATOM     26  C   UNL     1       7.385   5.939  17.760  0.00  0.00    +0.000 C 
ENDBRANCH  15  24
ENDBRANCH   1  15
TORSDOF 4
ENDMDL
MODEL 5
REMARK VINA RESULT:      -8.7      1.205      1.509
REMARK  Name = 
REMARK  5 active torsions:
REMARK  status: ('A' for Active; 'I' for Inactive)
REMARK    1  A    between atoms: C_1  and  C_2
REMARK    2  A    between atoms: C_8  and  N_9
REMARK    3  A    between atoms: N_9  and  C_10
REMARK    4  A    between atoms: C_10  and  C_11
REMARK    5  A    between atoms: C_10  and  C_17
REMARK                            x       y       z     vdW  Elec       q    Type
REMARK                         _______ _______ _______ _____ _____    ______ ____
ROOT
ATOM      1  C   UNL     1       3.330   6.175  19.173  0.00  0.00    +0.000 C 
ENDROOT
BRANCH   1   2
ATOM      2  C   UNL     1       2.574   5.022  19.894  0.00  0.00    +0.000 A 
ATOM      3  C   UNL     1       1.477   4.378  19.300  0.00  0.00    +0.000 A 
ATOM      4  C   UNL     1       0.838   3.340  19.984  0.00  0.00    +0.000 A 
ATOM      5  C   UNL     1       1.286   2.996  21.244  0.00  0.00    +0.000 A 
ATOM      6  F   UNL     1       0.697   1.999  21.923  0.00  0.00    +0.000 F 
ATOM      7  C   UNL     1       2.344   3.692  21.789  0.00  0.00    +0.000 A 
ATOM      8  N   UNL     1       2.992   4.704  21.155  0.00  0.00    +0.000 NA
ENDBRANCH   1   2
BRANCH   1   9
ATOM      9  C   UNL     1       2.477   7.430  19.002  0.00  0.00    +0.000 A 
ATOM     10  C   UNL     1       1.725   7.953  20.070  0.00  0.00    +0.000 A 
ATOM     11  C   UNL     1       1.069   9.178  19.942  0.00  0.00    +0.000 A 
ATOM     12  C   UNL     1       1.132   9.883  18.742  0.00  0.00    +0.000 A 
ATOM     13  C   UNL     1       1.836   9.356  17.660  0.00  0.00    +0.000 A 
ATOM     14  C   UNL     1       2.502   8.137  17.787  0.00  0.00    +0.000 A 
ENDBRANCH   1   9
BRANCH   1  15
ATOM     15  N   UNL     1       3.901   5.700  17.887  0.00  0.00    +0.000 NA
ATOM     16  H   UNL     1       3.106   5.596  17.251  0.00  0.00    +0.000 HD
BRANCH  15  24
ATOM     17  C   UNL     1       7.448   4.972  12.666  0.00  0.00    +0.000 C 
ATOM     18  C   UNL     1       7.013   4.819  14.069  0.00  0.00    +0.000 A 
ATOM     19  N   UNL     1       7.621   5.500  15.095  0.00  0.00    +0.000 NA
ATOM     20  C   UNL     1       6.895   5.177  16.142  0.00  0.00    +0.000 A 
ATOM     21  N   UNL     1       5.915   4.314  15.752  0.00  0.00    +0.000 N 
ATOM     22  N   UNL     1       5.974   4.054  14.437  0.00  0.00    +0.000 NA
ATOM     23  C   UNL     1       4.932   3.705  16.619  0.00  0.00    +0.000 C 
ATOM     24  C   UNL     1       4.739   4.491  17.936  0.00  0.00    +0.000 C 
ATOM     25  C   UNL     1       6.132   4.868  18.503  0.00  0.00    +0.000 C 
ATOM     26  C   UNL     1       6.987   5.690  17.531  0.00  0.00    +0.000 C 
ENDBRANCH  15  24
ENDBRANCH   1  15
TORSDOF 4
ENDMDL
MODEL 6
REMARK VINA RESULT:      -8.6      2.717      5.050
REMARK  Name = 
REMARK  5 active torsions:
REMARK  status: ('A' for Active; 'I' for Inactive)
REMARK    1  A    between atoms: C_1  and  C_2
REMARK    2  A    between atoms: C_8  and  N_9
REMARK    3  A    between atoms: N_9  and  C_10
REMARK    4  A    between atoms: C_10  and  C_11
REMARK    5  A    between atoms: C_10  and  C_17
REMARK                            x       y       z     vdW  Elec       q    Type
REMARK                         _______ _______ _______ _____ _____    ______ ____
ROOT
ATOM      1  C   UNL     1       3.193   5.553  18.599  0.00  0.00    +0.000 C 
ENDROOT
BRANCH   1   2
ATOM      2  C   UNL     1       2.519   6.946  18.760  0.00  0.00    +0.000 A 
ATOM      3  C   UNL     1       2.414   7.840  17.683  0.00  0.00    +0.000 A 
ATOM      4  C   UNL     1       1.789   9.076  17.875  0.00  0.00    +0.000 A 
ATOM      5  C   UNL     1       1.320   9.397  19.133  0.00  0.00    +0.000 A 
ATOM      6  F   UNL     1       0.710  10.574  19.347  0.00  0.00    +0.000 F 
ATOM      7  C   UNL     1       1.488   8.492  20.160  0.00  0.00    +0.000 A 
ATOM      8  N   UNL     1       2.086   7.281  20.011  0.00  0.00    +0.000 NA
ENDBRANCH   1   2
BRANCH   1   9
ATOM      9  C   UNL     1       2.540   4.473  19.458  0.00  0.00    +0.000 A 
ATOM     10  C   UNL     1       3.097   4.082  20.689  0.00  0.00    +0.000 A 
ATOM     11  C   UNL     1       2.415   3.202  21.530  0.00  0.00    +0.000 A 
ATOM     12  C   UNL     1       1.182   2.680  21.142  0.00  0.00    +0.000 A 
ATOM     13  C   UNL     1       0.638   3.023  19.905  0.00  0.00    +0.000 A 
ATOM     14  C   UNL     1       1.313   3.911  19.067  0.00  0.00    +0.000 A 
ENDBRANCH   1   9
BRANCH   1  15
ATOM     15  N   UNL     1       4.657   5.653  18.832  0.00  0.00    +0.000 NA
ATOM     16  H   UNL     1       4.804   6.553  19.296  0.00  0.00    +0.000 HD
BRANCH  15  24
ATOM     17  C   UNL     1       8.908  10.338  18.242  0.00  0.00    +0.000 C 
ATOM     18  C   UNL     1       8.294   9.006  18.075  0.00  0.00    +0.000 A 
ATOM     19  N   UNL     1       8.727   7.913  18.786  0.00  0.00    +0.000 NA
ATOM     20  C   UNL     1       7.880   6.971  18.435  0.00  0.00    +0.000 A 
ATOM     21  N   UNL     1       7.000   7.482  17.528  0.00  0.00    +0.000 N 
ATOM     22  N   UNL     1       7.249   8.774  17.266  0.00  0.00    +0.000 NA
ATOM     23  C   UNL     1       5.936   6.751  16.880  0.00  0.00    +0.000 C 
ATOM     24  C   UNL     1       5.532   5.480  17.661  0.00  0.00    +0.000 C 
ATOM     25  C   UNL     1       6.817   4.733  18.101  0.00  0.00    +0.000 C 
ATOM     26  C   UNL     1       7.760   5.587  18.957  0.00  0.00    +0.000 C 
ENDBRANCH  15  24
ENDBRANCH   1  15
TORSDOF 4
ENDMDL
MODEL 7
REMARK VINA RESULT:      -8.4      2.702      5.080
REMARK  Name = 
REMARK  5 active torsions:
REMARK  status: ('A' for Active; 'I' for Inactive)
REMARK    1  A    between atoms: C_1  and  C_2
REMARK    2  A    between atoms: C_8  and  N_9
REMARK    3  A    between atoms: N_9  and  C_10
REMARK    4  A    between atoms: C_10  and  C_11
REMARK    5  A    between atoms: C_10  and  C_17
REMARK                            x       y       z     vdW  Elec       q    Type
REMARK                         _______ _______ _______ _____ _____    ______ ____
ROOT
ATOM      1  C   UNL     1       3.164   5.667  18.333  0.00  0.00    +0.000 C 
ENDROOT
BRANCH   1   2
ATOM      2  C   UNL     1       2.508   7.030  18.699  0.00  0.00    +0.000 A 
ATOM      3  C   UNL     1       2.005   7.281  19.985  0.00  0.00    +0.000 A 
ATOM      4  C   UNL     1       1.435   8.526  20.267  0.00  0.00    +0.000 A 
ATOM      5  C   UNL     1       1.353   9.466  19.260  0.00  0.00    +0.000 A 
ATOM      6  F   UNL     1       0.816  10.673  19.502  0.00  0.00    +0.000 F 
ATOM      7  C   UNL     1       1.830   9.145  18.006  0.00  0.00    +0.000 A 
ATOM      8  N   UNL     1       2.393   7.949  17.695  0.00  0.00    +0.000 NA
ENDBRANCH   1   2
BRANCH   1   9
ATOM      9  C   UNL     1       2.442   4.473  18.952  0.00  0.00    +0.000 A 
ATOM     10  C   UNL     1       1.399   3.818  18.274  0.00  0.00    +0.000 A 
ATOM     11  C   UNL     1       0.847   2.643  18.785  0.00  0.00    +0.000 A 
ATOM     12  C   UNL     1       1.310   2.122  19.992  0.00  0.00    +0.000 A 
ATOM     13  C   UNL     1       2.312   2.784  20.699  0.00  0.00    +0.000 A 
ATOM     14  C   UNL     1       2.874   3.954  20.185  0.00  0.00    +0.000 A 
ENDBRANCH   1   9
BRANCH   1  15
ATOM     15  N   UNL     1       4.613   5.683  18.657  0.00  0.00    +0.000 NA
ATOM     16  H   UNL     1       4.776   6.560  19.159  0.00  0.00    +0.000 HD
BRANCH  15  24
ATOM     17  C   UNL     1       8.941  10.321  18.298  0.00  0.00    +0.000 C 
ATOM     18  C   UNL     1       8.323   8.995  18.099  0.00  0.00    +0.000 A 
ATOM     19  N   UNL     1       8.703   7.899  18.835  0.00  0.00    +0.000 NA
ATOM     20  C   UNL     1       7.868   6.965  18.438  0.00  0.00    +0.000 A 
ATOM     21  N   UNL     1       7.045   7.484  17.483  0.00  0.00    +0.000 N 
ATOM     22  N   UNL     1       7.322   8.773  17.234  0.00  0.00    +0.000 NA
ATOM     23  C   UNL     1       6.010   6.763  16.778  0.00  0.00    +0.000 C 
ATOM     24  C   UNL     1       5.550   5.498  17.537  0.00  0.00    +0.000 C 
ATOM     25  C   UNL     1       6.800   4.738  18.049  0.00  0.00    +0.000 C 
ATOM     26  C   UNL     1       7.704   5.584  18.955  0.00  0.00    +0.000 C 
ENDBRANCH  15  24
ENDBRANCH   1  15
TORSDOF 4
ENDMDL
MODEL 8
REMARK VINA RESULT:      -8.2      1.109      1.636
REMARK  Name = 
REMARK  5 active torsions:
REMARK  status: ('A' for Active; 'I' for Inactive)
REMARK    1  A    between atoms: C_1  and  C_2
REMARK    2  A    between atoms: C_8  and  N_9
REMARK    3  A    between atoms: N_9  and  C_10
REMARK    4  A    between atoms: C_10  and  C_11
REMARK    5  A    between atoms: C_10  and  C_17
REMARK                            x       y       z     vdW  Elec       q    Type
REMARK                         _______ _______ _______ _____ _____    ______ ____
ROOT
ATOM      1  C   UNL     1       3.412   6.090  19.066  0.00  0.00    +0.000 C 
ENDROOT
BRANCH   1   2
ATOM      2  C   UNL     1       2.646   4.988  19.853  0.00  0.00    +0.000 A 
ATOM      3  C   UNL     1       3.098   4.528  21.100  0.00  0.00    +0.000 A 
ATOM      4  C   UNL     1       2.368   3.543  21.772  0.00  0.00    +0.000 A 
ATOM      5  C   UNL     1       1.237   3.025  21.175  0.00  0.00    +0.000 A 
ATOM      6  F   UNL     1       0.512   2.083  21.799  0.00  0.00    +0.000 F 
ATOM      7  C   UNL     1       0.867   3.491  19.930  0.00  0.00    +0.000 A 
ATOM      8  N   UNL     1       1.547   4.449  19.247  0.00  0.00    +0.000 NA
ENDBRANCH   1   2
BRANCH   1   9
ATOM      9  C   UNL     1       2.631   7.398  18.961  0.00  0.00    +0.000 A 
ATOM     10  C   UNL     1       2.552   8.106  17.748  0.00  0.00    +0.000 A 
ATOM     11  C   UNL     1       1.718   9.219  17.629  0.00  0.00    +0.000 A 
ATOM     12  C   UNL     1       0.974   9.654  18.724  0.00  0.00    +0.000 A 
ATOM     13  C   UNL     1       1.076   8.989  19.945  0.00  0.00    +0.000 A 
ATOM     14  C   UNL     1       1.901   7.871  20.065  0.00  0.00    +0.000 A 
ENDBRANCH   1   9
BRANCH   1  15
ATOM     15  N   UNL     1       3.842   5.580  17.740  0.00  0.00    +0.000 NA
ATOM     16  H   UNL     1       2.988   5.504  17.181  0.00  0.00    +0.000 HD
BRANCH  15  24
ATOM     17  C   UNL     1       7.540   5.085  12.597  0.00  0.00    +0.000 C 
ATOM     18  C   UNL     1       7.051   4.848  13.970  0.00  0.00    +0.000 A 
ATOM     19  N   UNL     1       7.648   5.429  15.062  0.00  0.00    +0.000 NA
ATOM     20  C   UNL     1       6.873   5.060  16.059  0.00  0.00    +0.000 A 
ATOM     21  N   UNL     1       5.875   4.269  15.575  0.00  0.00    +0.000 N 
ATOM     22  N   UNL     1       5.971   4.102  14.247  0.00  0.00    +0.000 NA
ATOM     23  C   UNL     1       4.839   3.641  16.362  0.00  0.00    +0.000 C 
ATOM     24  C   UNL     1       4.630   4.337  17.726  0.00  0.00    +0.000 C 
ATOM     25  C   UNL     1       6.016   4.614  18.364  0.00  0.00    +0.000 C 
ATOM     26  C   UNL     1       6.936   5.468  17.484  0.00  0.00    +0.000 C 
ENDBRANCH  15  24
ENDBRANCH   1  15
TORSDOF 4
ENDMDL
MODEL 9
REMARK VINA RESULT:      -8.1      2.830      6.678
REMARK  Name = 
REMARK  5 active torsions:
REMARK  status: ('A' for Active; 'I' for Inactive)
REMARK    1  A    between atoms: C_1  and  C_2
REMARK    2  A    between atoms: C_8  and  N_9
REMARK    3  A    between atoms: N_9  and  C_10
REMARK    4  A    between atoms: C_10  and  C_11
REMARK    5  A    between atoms: C_10  and  C_17
REMARK                            x       y       z     vdW  Elec       q    Type
REMARK                         _______ _______ _______ _____ _____    ______ ____
ROOT
ATOM      1  C   UNL     1       5.426   5.709  16.333  0.00  0.00    +0.000 C 
ENDROOT
BRANCH   1   2
ATOM      2  C   UNL     1       5.937   5.077  15.007  0.00  0.00    +0.000 A 
ATOM      3  C   UNL     1       5.192   4.106  14.321  0.00  0.00    +0.000 A 
ATOM      4  C   UNL     1       5.690   3.576  13.127  0.00  0.00    +0.000 A 
ATOM      5  C   UNL     1       6.922   4.001  12.671  0.00  0.00    +0.000 A 
ATOM      6  F   UNL     1       7.424   3.514  11.525  0.00  0.00    +0.000 F 
ATOM      7  C   UNL     1       7.624   4.929  13.411  0.00  0.00    +0.000 A 
ATOM      8  N   UNL     1       7.172   5.469  14.573  0.00  0.00    +0.000 NA
ENDBRANCH   1   2
BRANCH   1   9
ATOM      9  C   UNL     1       6.558   6.155  17.256  0.00  0.00    +0.000 A 
ATOM     10  C   UNL     1       7.102   7.449  17.171  0.00  0.00    +0.000 A 
ATOM     11  C   UNL     1       8.032   7.891  18.114  0.00  0.00    +0.000 A 
ATOM     12  C   UNL     1       8.450   7.040  19.135  0.00  0.00    +0.000 A 
ATOM     13  C   UNL     1       7.953   5.739  19.205  0.00  0.00    +0.000 A 
ATOM     14  C   UNL     1       7.015   5.297  18.272  0.00  0.00    +0.000 A 
ENDBRANCH   1   9
BRANCH   1  15
ATOM     15  N   UNL     1       4.470   4.797  17.010  0.00  0.00    +0.000 NA
ATOM     16  H   UNL     1       4.551   3.899  16.525  0.00  0.00    +0.000 HD
BRANCH  15  24
ATOM     17  C   UNL     1       1.474   2.353  22.052  0.00  0.00    +0.000 C 
ATOM     18  C   UNL     1       1.772   3.280  20.943  0.00  0.00    +0.000 A 
ATOM     19  N   UNL     1       2.373   4.497  21.156  0.00  0.00    +0.000 NA
ATOM     20  C   UNL     1       2.552   4.961  19.939  0.00  0.00    +0.000 A 
ATOM     21  N   UNL     1       2.048   4.065  19.044  0.00  0.00    +0.000 N 
ATOM     22  N   UNL     1       1.529   2.989  19.656  0.00  0.00    +0.000 NA
ATOM     23  C   UNL     1       2.027   4.226  17.609  0.00  0.00    +0.000 C 
ATOM     24  C   UNL     1       3.074   5.251  17.114  0.00  0.00    +0.000 C 
ATOM     25  C   UNL     1       3.019   6.503  18.027  0.00  0.00    +0.000 C 
ATOM     26  C   UNL     1       3.261   6.192  19.509  0.00  0.00    +0.000 C 
ENDBRANCH  15  24
ENDBRANCH   1  15
TORSDOF 4
ENDMDL
