MODEL 1
REMARK VINA RESULT:      -6.1      0.000      0.000
REMARK  Name = 
REMARK  12 active torsions:
REMARK  status: ('A' for Active; 'I' for Inactive)
REMARK    1  A    between atoms: C_1  and  O_2
REMARK    2  A    between atoms: O_2  and  C_3
REMARK    3  A    between atoms: C_4  and  C_5
REMARK    4  A    between atoms: C_10  and  C_11
REMARK    5  A    between atoms: C_11  and  O_12
REMARK    6  A    between atoms: O_12  and  C_13
REMARK    7  A    between atoms: C_20  and  O_21
REMARK    8  A    between atoms: O_21  and  C_22
REMARK    9  A    between atoms: C_22  and  C_24
REMARK   10  A    between atoms: C_24  and  C_25
REMARK   11  A    between atoms: C_24  and  C_26
REMARK   12  A    between atoms: C_24  and  C_27
REMARK                            x       y       z     vdW  Elec       q    Type
REMARK                         _______ _______ _______ _____ _____    ______ ____
ROOT
ATOM      1  C   UNL     1      -0.992  14.421  20.139  0.00  0.00    +0.000 C 
ATOM      2  C   UNL     1      -0.989  14.286  21.487  0.00  0.00    +0.000 C 
ATOM      3  C   UNL     1      -1.424  15.351  22.456  0.00  0.00    +0.000 C 
ATOM      4  C   UNL     1      -0.553  13.016  22.147  0.00  0.00    +0.000 C 
ATOM      5  O   UNL     1      -0.500  12.915  23.367  0.00  0.00    +0.000 OA
ATOM      6  C   UNL     1      -0.223  11.953  21.250  0.00  0.00    +0.000 A 
ATOM      7  C   UNL     1      -0.221  12.046  19.869  0.00  0.00    +0.000 A 
ATOM      8  C   UNL     1       0.112  10.743  19.333  0.00  0.00    +0.000 A 
ATOM      9  C   UNL     1       0.346   9.949  20.437  0.00  0.00    +0.000 A 
ATOM     10  N   UNL     1       0.127  10.693  21.557  0.00  0.00    +0.000 N 
ATOM     11  C   UNL     1       0.271   9.954  22.796  0.00  0.00    +0.000 C 
ATOM     12  C   UNL     1       1.021   8.708  22.327  0.00  0.00    +0.000 C 
ATOM     13  C   UNL     1       0.681   8.550  20.817  0.00  0.00    +0.000 C 
ATOM     14  C   UNL     1      -0.531  13.298  19.198  0.00  0.00    +0.000 C 
ATOM     15  O   UNL     1      -0.410  13.440  17.989  0.00  0.00    +0.000 OA
ENDROOT
BRANCH   1  17
ATOM     16  C   UNL     1      -0.347  16.553  19.240  0.00  0.00    +0.000 C 
ATOM     17  O   UNL     1      -1.387  15.658  19.622  0.00  0.00    +0.000 OA
ENDBRANCH   1  17
BRANCH   8  18
ATOM     18  C   UNL     1       0.177  10.340  17.892  0.00  0.00    +0.000 C 
BRANCH  18  19
ATOM     19  O   UNL     1      -1.017   9.678  17.441  0.00  0.00    +0.000 OA
BRANCH  19  20
ATOM     20  C   UNL     1      -2.131  10.437  17.418  0.00  0.00    +0.000 C 
ATOM     21  N   UNL     1      -2.009  11.407  16.484  0.00  0.00    +0.000 N 
ATOM     22  O   UNL     1      -3.130  10.290  18.101  0.00  0.00    +0.000 OA
ATOM     23  H   UNL     1      -1.209  11.409  15.868  0.00  0.00    +0.000 HD
ATOM     24  H   UNL     1      -2.796  12.011  16.306  0.00  0.00    +0.000 HD
ENDBRANCH  19  20
ENDBRANCH  18  19
ENDBRANCH   8  18
BRANCH  13  25
ATOM     25  O   UNL     1       1.822   8.134  20.071  0.00  0.00    +0.000 OA
BRANCH  25  26
ATOM     26  C   UNL     1       1.948   6.777  20.000  0.00  0.00    +0.000 C 
ATOM     27  O   UNL     1       1.474   6.000  20.824  0.00  0.00    +0.000 OA
BRANCH  26  28
ATOM     28  C   UNL     1       2.786   6.344  18.798  0.00  0.00    +0.000 C 
ATOM     29  C   UNL     1       2.032   5.270  18.005  0.00  0.00    +0.000 C 
ATOM     30  C   UNL     1       3.021   7.563  17.889  0.00  0.00    +0.000 C 
ATOM     31  C   UNL     1       4.140   5.805  19.273  0.00  0.00    +0.000 C 
ENDBRANCH  26  28
ENDBRANCH  25  26
ENDBRANCH  13  25
TORSDOF 7
ENDMDL
MODEL 2
REMARK VINA RESULT:      -6.0      2.260      7.022
REMARK  Name = 
REMARK  12 active torsions:
REMARK  status: ('A' for Active; 'I' for Inactive)
REMARK    1  A    between atoms: C_1  and  O_2
REMARK    2  A    between atoms: O_2  and  C_3
REMARK    3  A    between atoms: C_4  and  C_5
REMARK    4  A    between atoms: C_10  and  C_11
REMARK    5  A    between atoms: C_11  and  O_12
REMARK    6  A    between atoms: O_12  and  C_13
REMARK    7  A    between atoms: C_20  and  O_21
REMARK    8  A    between atoms: O_21  and  C_22
REMARK    9  A    between atoms: C_22  and  C_24
REMARK   10  A    between atoms: C_24  and  C_25
REMARK   11  A    between atoms: C_24  and  C_26
REMARK   12  A    between atoms: C_24  and  C_27
REMARK                            x       y       z     vdW  Elec       q    Type
REMARK                         _______ _______ _______ _____ _____    ______ ____
ROOT
ATOM      1  C   UNL     1       2.705   7.383  18.287  0.00  0.00    +0.000 C 
ATOM      2  C   UNL     1       2.526   6.587  19.369  0.00  0.00    +0.000 C 
ATOM      3  C   UNL     1       3.091   5.201  19.516  0.00  0.00    +0.000 C 
ATOM      4  C   UNL     1       1.738   7.044  20.557  0.00  0.00    +0.000 C 
ATOM      5  O   UNL     1       1.533   6.302  21.511  0.00  0.00    +0.000 OA
ATOM      6  C   UNL     1       1.267   8.391  20.486  0.00  0.00    +0.000 A 
ATOM      7  C   UNL     1       1.434   9.239  19.404  0.00  0.00    +0.000 A 
ATOM      8  C   UNL     1       0.866  10.525  19.751  0.00  0.00    +0.000 A 
ATOM      9  C   UNL     1       0.336  10.355  21.014  0.00  0.00    +0.000 A 
ATOM     10  N   UNL     1       0.602   9.084  21.425  0.00  0.00    +0.000 N 
ATOM     11  C   UNL     1       0.158   8.792  22.774  0.00  0.00    +0.000 C 
ATOM     12  C   UNL     1      -0.807   9.948  23.038  0.00  0.00    +0.000 C 
ATOM     13  C   UNL     1      -0.354  11.103  22.099  0.00  0.00    +0.000 C 
ATOM     14  C   UNL     1       2.098   8.790  18.191  0.00  0.00    +0.000 C 
ATOM     15  O   UNL     1       2.143   9.475  17.178  0.00  0.00    +0.000 OA
ENDROOT
BRANCH   1  17
ATOM     16  C   UNL     1       4.831   7.103  17.205  0.00  0.00    +0.000 C 
ATOM     17  O   UNL     1       3.430   6.851  17.217  0.00  0.00    +0.000 OA
ENDBRANCH   1  17
BRANCH   8  18
ATOM     18  C   UNL     1       0.864  11.773  18.924  0.00  0.00    +0.000 C 
BRANCH  18  19
ATOM     19  O   UNL     1       1.782  12.767  19.407  0.00  0.00    +0.000 OA
BRANCH  19  20
ATOM     20  C   UNL     1       2.535  13.373  18.466  0.00  0.00    +0.000 C 
ATOM     21  N   UNL     1       2.758  12.523  17.438  0.00  0.00    +0.000 N 
ATOM     22  O   UNL     1       2.950  14.518  18.488  0.00  0.00    +0.000 OA
ATOM     23  H   UNL     1       2.292  11.628  17.419  0.00  0.00    +0.000 HD
ATOM     24  H   UNL     1       3.251  12.863  16.627  0.00  0.00    +0.000 HD
ENDBRANCH  19  20
ENDBRANCH  18  19
ENDBRANCH   8  18
BRANCH  13  25
ATOM     25  O   UNL     1      -1.473  11.787  21.542  0.00  0.00    +0.000 OA
BRANCH  25  26
ATOM     26  C   UNL     1      -1.653  13.034  22.067  0.00  0.00    +0.000 C 
ATOM     27  O   UNL     1      -0.741  13.828  22.274  0.00  0.00    +0.000 OA
BRANCH  26  28
ATOM     28  C   UNL     1      -3.119  13.305  22.404  0.00  0.00    +0.000 C 
ATOM     29  C   UNL     1      -3.328  14.809  22.615  0.00  0.00    +0.000 C 
ATOM     30  C   UNL     1      -3.995  12.839  21.228  0.00  0.00    +0.000 C 
ATOM     31  C   UNL     1      -3.517  12.528  23.663  0.00  0.00    +0.000 C 
ENDBRANCH  26  28
ENDBRANCH  25  26
ENDBRANCH  13  25
TORSDOF 7
ENDMDL
MODEL 3
REMARK VINA RESULT:      -5.9      2.341      7.935
REMARK  Name = 
REMARK  12 active torsions:
REMARK  status: ('A' for Active; 'I' for Inactive)
REMARK    1  A    between atoms: C_1  and  O_2
REMARK    2  A    between atoms: O_2  and  C_3
REMARK    3  A    between atoms: C_4  and  C_5
REMARK    4  A    between atoms: C_10  and  C_11
REMARK    5  A    between atoms: C_11  and  O_12
REMARK    6  A    between atoms: O_12  and  C_13
REMARK    7  A    between atoms: C_20  and  O_21
REMARK    8  A    between atoms: O_21  and  C_22
REMARK    9  A    between atoms: C_22  and  C_24
REMARK   10  A    between atoms: C_24  and  C_25
REMARK   11  A    between atoms: C_24  and  C_26
REMARK   12  A    between atoms: C_24  and  C_27
REMARK                            x       y       z     vdW  Elec       q    Type
REMARK                         _______ _______ _______ _____ _____    ______ ____
ROOT
ATOM      1  C   UNL     1       3.264   4.695  19.355  0.00  0.00    +0.000 C 
ATOM      2  C   UNL     1       3.707   5.184  18.172  0.00  0.00    +0.000 C 
ATOM      3  C   UNL     1       4.475   4.390  17.151  0.00  0.00    +0.000 C 
ATOM      4  C   UNL     1       3.446   6.599  17.761  0.00  0.00    +0.000 C 
ATOM      5  O   UNL     1       3.895   7.053  16.714  0.00  0.00    +0.000 OA
ATOM      6  C   UNL     1       2.639   7.351  18.668  0.00  0.00    +0.000 A 
ATOM      7  C   UNL     1       2.159   6.888  19.881  0.00  0.00    +0.000 A 
ATOM      8  C   UNL     1       1.341   7.930  20.466  0.00  0.00    +0.000 A 
ATOM      9  C   UNL     1       1.423   8.989  19.585  0.00  0.00    +0.000 A 
ATOM     10  N   UNL     1       2.189   8.609  18.525  0.00  0.00    +0.000 N 
ATOM     11  C   UNL     1       2.299   9.612  17.484  0.00  0.00    +0.000 C 
ATOM     12  C   UNL     1       1.821  10.867  18.213  0.00  0.00    +0.000 C 
ATOM     13  C   UNL     1       0.903  10.366  19.366  0.00  0.00    +0.000 C 
ATOM     14  C   UNL     1       2.487   5.556  20.362  0.00  0.00    +0.000 C 
ATOM     15  O   UNL     1       2.185   5.172  21.484  0.00  0.00    +0.000 OA
ENDROOT
BRANCH   1  17
ATOM     16  C   UNL     1       2.555   2.404  19.489  0.00  0.00    +0.000 C 
ATOM     17  O   UNL     1       3.587   3.370  19.660  0.00  0.00    +0.000 OA
ENDBRANCH   1  17
BRANCH   8  18
ATOM     18  C   UNL     1       0.564   7.868  21.745  0.00  0.00    +0.000 C 
BRANCH  18  19
ATOM     19  O   UNL     1      -0.322   8.987  21.917  0.00  0.00    +0.000 OA
BRANCH  19  20
ATOM     20  C   UNL     1      -0.250   9.610  23.110  0.00  0.00    +0.000 C 
ATOM     21  N   UNL     1      -1.355  10.366  23.302  0.00  0.00    +0.000 N 
ATOM     22  O   UNL     1       0.645   9.516  23.932  0.00  0.00    +0.000 OA
ATOM     23  H   UNL     1      -2.116  10.315  22.642  0.00  0.00    +0.000 HD
ATOM     24  H   UNL     1      -1.471  10.839  24.185  0.00  0.00    +0.000 HD
ENDBRANCH  19  20
ENDBRANCH  18  19
ENDBRANCH   8  18
BRANCH  13  25
ATOM     25  O   UNL     1       1.105  11.125  20.555  0.00  0.00    +0.000 OA
BRANCH  25  26
ATOM     26  C   UNL     1       0.231  12.167  20.678  0.00  0.00    +0.000 C 
ATOM     27  O   UNL     1      -0.988  12.038  20.721  0.00  0.00    +0.000 OA
BRANCH  26  28
ATOM     28  C   UNL     1       0.952  13.515  20.711  0.00  0.00    +0.000 C 
ATOM     29  C   UNL     1       2.465  13.287  20.806  0.00  0.00    +0.000 C 
ATOM     30  C   UNL     1       0.642  14.277  19.410  0.00  0.00    +0.000 C 
ATOM     31  C   UNL     1       0.458  14.339  21.905  0.00  0.00    +0.000 C 
ENDBRANCH  26  28
ENDBRANCH  25  26
ENDBRANCH  13  25
TORSDOF 7
ENDMDL
MODEL 4
REMARK VINA RESULT:      -5.8      3.346      5.516
REMARK  Name = 
REMARK  12 active torsions:
REMARK  status: ('A' for Active; 'I' for Inactive)
REMARK    1  A    between atoms: C_1  and  O_2
REMARK    2  A    between atoms: O_2  and  C_3
REMARK    3  A    between atoms: C_4  and  C_5
REMARK    4  A    between atoms: C_10  and  C_11
REMARK    5  A    between atoms: C_11  and  O_12
REMARK    6  A    between atoms: O_12  and  C_13
REMARK    7  A    between atoms: C_20  and  O_21
REMARK    8  A    between atoms: O_21  and  C_22
REMARK    9  A    between atoms: C_22  and  C_24
REMARK   10  A    between atoms: C_24  and  C_25
REMARK   11  A    between atoms: C_24  and  C_26
REMARK   12  A    between atoms: C_24  and  C_27
REMARK                            x       y       z     vdW  Elec       q    Type
REMARK                         _______ _______ _______ _____ _____    ______ ____
ROOT
ATOM      1  C   UNL     1      -5.592  11.813  19.363  0.00  0.00    +0.000 C 
ATOM      2  C   UNL     1      -5.915  12.179  20.627  0.00  0.00    +0.000 C 
ATOM      3  C   UNL     1      -7.291  12.073  21.225  0.00  0.00    +0.000 C 
ATOM      4  C   UNL     1      -4.890  12.723  21.572  0.00  0.00    +0.000 C 
ATOM      5  O   UNL     1      -5.196  13.104  22.697  0.00  0.00    +0.000 OA
ATOM      6  C   UNL     1      -3.554  12.749  21.064  0.00  0.00    +0.000 A 
ATOM      7  C   UNL     1      -3.181  12.377  19.784  0.00  0.00    +0.000 A 
ATOM      8  C   UNL     1      -1.741  12.494  19.686  0.00  0.00    +0.000 A 
ATOM      9  C   UNL     1      -1.336  12.986  20.910  0.00  0.00    +0.000 A 
ATOM     10  N   UNL     1      -2.433  13.115  21.707  0.00  0.00    +0.000 N 
ATOM     11  C   UNL     1      -2.138  13.560  23.055  0.00  0.00    +0.000 C 
ATOM     12  C   UNL     1      -0.715  14.098  22.897  0.00  0.00    +0.000 C 
ATOM     13  C   UNL     1      -0.111  13.351  21.672  0.00  0.00    +0.000 C 
ATOM     14  C   UNL     1      -4.168  11.950  18.805  0.00  0.00    +0.000 C 
ATOM     15  O   UNL     1      -3.881  11.742  17.635  0.00  0.00    +0.000 OA
ENDROOT
BRANCH   1  17
ATOM     16  C   UNL     1      -7.253  12.302  17.698  0.00  0.00    +0.000 C 
ATOM     17  O   UNL     1      -6.628  11.347  18.549  0.00  0.00    +0.000 OA
ENDBRANCH   1  17
BRANCH   8  18
ATOM     18  C   UNL     1      -0.876  12.144  18.515  0.00  0.00    +0.000 C 
BRANCH  18  19
ATOM     19  O   UNL     1      -0.715  10.726  18.341  0.00  0.00    +0.000 OA
BRANCH  19  20
ATOM     20  C   UNL     1       0.440  10.208  18.807  0.00  0.00    +0.000 C 
ATOM     21  N   UNL     1       1.275   9.945  17.776  0.00  0.00    +0.000 N 
ATOM     22  O   UNL     1       0.737  10.015  19.973  0.00  0.00    +0.000 OA
ATOM     23  H   UNL     1       1.023  10.234  16.843  0.00  0.00    +0.000 HD
ATOM     24  H   UNL     1       2.206   9.616  17.979  0.00  0.00    +0.000 HD
ENDBRANCH  19  20
ENDBRANCH  18  19
ENDBRANCH   8  18
BRANCH  13  25
ATOM     25  O   UNL     1       0.681  14.224  20.873  0.00  0.00    +0.000 OA
BRANCH  25  26
ATOM     26  C   UNL     1       1.930  13.733  20.623  0.00  0.00    +0.000 C 
ATOM     27  O   UNL     1       2.510  12.932  21.349  0.00  0.00    +0.000 OA
BRANCH  26  28
ATOM     28  C   UNL     1       2.535  14.332  19.354  0.00  0.00    +0.000 C 
ATOM     29  C   UNL     1       2.676  13.241  18.286  0.00  0.00    +0.000 C 
ATOM     30  C   UNL     1       1.596  15.431  18.825  0.00  0.00    +0.000 C 
ATOM     31  C   UNL     1       3.901  14.951  19.670  0.00  0.00    +0.000 C 
ENDBRANCH  26  28
ENDBRANCH  25  26
ENDBRANCH  13  25
TORSDOF 7
ENDMDL
MODEL 5
REMARK VINA RESULT:      -5.8      1.936      6.745
REMARK  Name = 
REMARK  12 active torsions:
REMARK  status: ('A' for Active; 'I' for Inactive)
REMARK    1  A    between atoms: C_1  and  O_2
REMARK    2  A    between atoms: O_2  and  C_3
REMARK    3  A    between atoms: C_4  and  C_5
REMARK    4  A    between atoms: C_10  and  C_11
REMARK    5  A    between atoms: C_11  and  O_12
REMARK    6  A    between atoms: O_12  and  C_13
REMARK    7  A    between atoms: C_20  and  O_21
REMARK    8  A    between atoms: O_21  and  C_22
REMARK    9  A    between atoms: C_22  and  C_24
REMARK   10  A    between atoms: C_24  and  C_25
REMARK   11  A    between atoms: C_24  and  C_26
REMARK   12  A    between atoms: C_24  and  C_27
REMARK                            x       y       z     vdW  Elec       q    Type
REMARK                         _______ _______ _______ _____ _____    ______ ____
ROOT
ATOM      1  C   UNL     1       2.644   7.477  18.222  0.00  0.00    +0.000 C 
ATOM      2  C   UNL     1       2.421   6.646  19.268  0.00  0.00    +0.000 C 
ATOM      3  C   UNL     1       2.917   5.229  19.358  0.00  0.00    +0.000 C 
ATOM      4  C   UNL     1       1.648   7.089  20.471  0.00  0.00    +0.000 C 
ATOM      5  O   UNL     1       1.402   6.318  21.392  0.00  0.00    +0.000 OA
ATOM      6  C   UNL     1       1.243   8.460  20.456  0.00  0.00    +0.000 A 
ATOM      7  C   UNL     1       1.458   9.343  19.413  0.00  0.00    +0.000 A 
ATOM      8  C   UNL     1       0.950  10.640  19.812  0.00  0.00    +0.000 A 
ATOM      9  C   UNL     1       0.406  10.442  21.065  0.00  0.00    +0.000 A 
ATOM     10  N   UNL     1       0.607   9.143  21.422  0.00  0.00    +0.000 N 
ATOM     11  C   UNL     1       0.142   8.816  22.756  0.00  0.00    +0.000 C 
ATOM     12  C   UNL     1      -0.768  10.005  23.065  0.00  0.00    +0.000 C 
ATOM     13  C   UNL     1      -0.254  11.176  22.178  0.00  0.00    +0.000 C 
ATOM     14  C   UNL     1       2.107   8.915  18.184  0.00  0.00    +0.000 C 
ATOM     15  O   UNL     1       2.191   9.639  17.202  0.00  0.00    +0.000 OA
ENDROOT
BRANCH   1  17
ATOM     16  C   UNL     1       4.767   7.082  17.170  0.00  0.00    +0.000 C 
ATOM     17  O   UNL     1       3.349   6.957  17.133  0.00  0.00    +0.000 OA
ENDBRANCH   1  17
BRANCH   8  18
ATOM     18  C   UNL     1       1.013  11.920  19.039  0.00  0.00    +0.000 C 
BRANCH  18  19
ATOM     19  O   UNL     1       0.056  11.976  17.968  0.00  0.00    +0.000 OA
BRANCH  19  20
ATOM     20  C   UNL     1      -1.173  12.415  18.306  0.00  0.00    +0.000 C 
ATOM     21  N   UNL     1      -1.077  13.601  18.951  0.00  0.00    +0.000 N 
ATOM     22  O   UNL     1      -2.236  11.871  18.065  0.00  0.00    +0.000 OA
ATOM     23  H   UNL     1      -0.182  14.061  19.020  0.00  0.00    +0.000 HD
ATOM     24  H   UNL     1      -1.925  14.084  19.205  0.00  0.00    +0.000 HD
ENDBRANCH  19  20
ENDBRANCH  18  19
ENDBRANCH   8  18
BRANCH  13  25
ATOM     25  O   UNL     1      -1.336  11.936  21.647  0.00  0.00    +0.000 OA
BRANCH  25  26
ATOM     26  C   UNL     1      -1.645  13.027  22.405  0.00  0.00    +0.000 C 
ATOM     27  O   UNL     1      -0.810  13.767  22.916  0.00  0.00    +0.000 OA
BRANCH  26  28
ATOM     28  C   UNL     1      -3.155  13.194  22.577  0.00  0.00    +0.000 C 
ATOM     29  C   UNL     1      -3.878  12.639  21.343  0.00  0.00    +0.000 C 
ATOM     30  C   UNL     1      -3.606  12.403  23.818  0.00  0.00    +0.000 C 
ATOM     31  C   UNL     1      -3.497  14.674  22.775  0.00  0.00    +0.000 C 
ENDBRANCH  26  28
ENDBRANCH  25  26
ENDBRANCH  13  25
TORSDOF 7
ENDMDL
MODEL 6
REMARK VINA RESULT:      -5.8      2.377      8.079
REMARK  Name = 
REMARK  12 active torsions:
REMARK  status: ('A' for Active; 'I' for Inactive)
REMARK    1  A    between atoms: C_1  and  O_2
REMARK    2  A    between atoms: O_2  and  C_3
REMARK    3  A    between atoms: C_4  and  C_5
REMARK    4  A    between atoms: C_10  and  C_11
REMARK    5  A    between atoms: C_11  and  O_12
REMARK    6  A    between atoms: O_12  and  C_13
REMARK    7  A    between atoms: C_20  and  O_21
REMARK    8  A    between atoms: O_21  and  C_22
REMARK    9  A    between atoms: C_22  and  C_24
REMARK   10  A    between atoms: C_24  and  C_25
REMARK   11  A    between atoms: C_24  and  C_26
REMARK   12  A    between atoms: C_24  and  C_27
REMARK                            x       y       z     vdW  Elec       q    Type
REMARK                         _______ _______ _______ _____ _____    ______ ____
ROOT
ATOM      1  C   UNL     1       3.653   4.462  19.164  0.00  0.00    +0.000 C 
ATOM      2  C   UNL     1       4.129   4.959  17.997  0.00  0.00    +0.000 C 
ATOM      3  C   UNL     1       4.964   4.187  17.014  0.00  0.00    +0.000 C 
ATOM      4  C   UNL     1       3.839   6.363  17.567  0.00  0.00    +0.000 C 
ATOM      5  O   UNL     1       4.317   6.827  16.537  0.00  0.00    +0.000 OA
ATOM      6  C   UNL     1       2.970   7.093  18.435  0.00  0.00    +0.000 A 
ATOM      7  C   UNL     1       2.456   6.620  19.630  0.00  0.00    +0.000 A 
ATOM      8  C   UNL     1       1.580   7.637  20.174  0.00  0.00    +0.000 A 
ATOM      9  C   UNL     1       1.664   8.694  19.291  0.00  0.00    +0.000 A 
ATOM     10  N   UNL     1       2.486   8.334  18.266  0.00  0.00    +0.000 N 
ATOM     11  C   UNL     1       2.607   9.335  17.224  0.00  0.00    +0.000 C 
ATOM     12  C   UNL     1       2.058  10.578  17.925  0.00  0.00    +0.000 C 
ATOM     13  C   UNL     1       1.110  10.052  19.042  0.00  0.00    +0.000 C 
ATOM     14  C   UNL     1       2.807   5.301  20.133  0.00  0.00    +0.000 C 
ATOM     15  O   UNL     1       2.472   4.914  21.243  0.00  0.00    +0.000 OA
ENDROOT
BRANCH   1  17
ATOM     16  C   UNL     1       3.028   2.144  19.247  0.00  0.00    +0.000 C 
ATOM     17  O   UNL     1       4.006   3.149  19.490  0.00  0.00    +0.000 OA
ENDBRANCH   1  17
BRANCH   8  18
ATOM     18  C   UNL     1       0.753   7.556  21.420  0.00  0.00    +0.000 C 
BRANCH  18  19
ATOM     19  O   UNL     1       1.151   8.507  22.421  0.00  0.00    +0.000 OA
BRANCH  19  20
ATOM     20  C   UNL     1       0.146   9.156  23.042  0.00  0.00    +0.000 C 
ATOM     21  N   UNL     1      -1.032   8.854  22.450  0.00  0.00    +0.000 N 
ATOM     22  O   UNL     1       0.238   9.892  24.009  0.00  0.00    +0.000 OA
ATOM     23  H   UNL     1      -1.063   8.148  21.730  0.00  0.00    +0.000 HD
ATOM     24  H   UNL     1      -1.883   9.214  22.853  0.00  0.00    +0.000 HD
ENDBRANCH  19  20
ENDBRANCH  18  19
ENDBRANCH   8  18
BRANCH  13  25
ATOM     25  O   UNL     1       1.236  10.823  20.233  0.00  0.00    +0.000 OA
BRANCH  25  26
ATOM     26  C   UNL     1       0.194  11.682  20.427  0.00  0.00    +0.000 C 
ATOM     27  O   UNL     1      -0.975  11.327  20.546  0.00  0.00    +0.000 OA
BRANCH  26  28
ATOM     28  C   UNL     1       0.650  13.141  20.434  0.00  0.00    +0.000 C 
ATOM     29  C   UNL     1       0.257  13.810  19.111  0.00  0.00    +0.000 C 
ATOM     30  C   UNL     1      -0.048  13.876  21.592  0.00  0.00    +0.000 C 
ATOM     31  C   UNL     1       2.167  13.212  20.638  0.00  0.00    +0.000 C 
ENDBRANCH  26  28
ENDBRANCH  25  26
ENDBRANCH  13  25
TORSDOF 7
ENDMDL
MODEL 7
REMARK VINA RESULT:      -5.8      3.576      5.921
REMARK  Name = 
REMARK  12 active torsions:
REMARK  status: ('A' for Active; 'I' for Inactive)
REMARK    1  A    between atoms: C_1  and  O_2
REMARK    2  A    between atoms: O_2  and  C_3
REMARK    3  A    between atoms: C_4  and  C_5
REMARK    4  A    between atoms: C_10  and  C_11
REMARK    5  A    between atoms: C_11  and  O_12
REMARK    6  A    between atoms: O_12  and  C_13
REMARK    7  A    between atoms: C_20  and  O_21
REMARK    8  A    between atoms: O_21  and  C_22
REMARK    9  A    between atoms: C_22  and  C_24
REMARK   10  A    between atoms: C_24  and  C_25
REMARK   11  A    between atoms: C_24  and  C_26
REMARK   12  A    between atoms: C_24  and  C_27
REMARK                            x       y       z     vdW  Elec       q    Type
REMARK                         _______ _______ _______ _____ _____    ______ ____
ROOT
ATOM      1  C   UNL     1      -6.306  12.191  20.954  0.00  0.00    +0.000 C 
ATOM      2  C   UNL     1      -6.403  12.629  22.233  0.00  0.00    +0.000 C 
ATOM      3  C   UNL     1      -7.653  12.572  23.066  0.00  0.00    +0.000 C 
ATOM      4  C   UNL     1      -5.227  13.211  22.953  0.00  0.00    +0.000 C 
ATOM      5  O   UNL     1      -5.331  13.656  24.091  0.00  0.00    +0.000 OA
ATOM      6  C   UNL     1      -4.001  13.193  22.219  0.00  0.00    +0.000 A 
ATOM      7  C   UNL     1      -3.858  12.748  20.916  0.00  0.00    +0.000 A 
ATOM      8  C   UNL     1      -2.456  12.842  20.563  0.00  0.00    +0.000 A 
ATOM      9  C   UNL     1      -1.843  13.395  21.668  0.00  0.00    +0.000 A 
ATOM     10  N   UNL     1      -2.784  13.579  22.636  0.00  0.00    +0.000 N 
ATOM     11  C   UNL     1      -2.256  14.093  23.885  0.00  0.00    +0.000 C 
ATOM     12  C   UNL     1      -0.882  14.605  23.452  0.00  0.00    +0.000 C 
ATOM     13  C   UNL     1      -0.503  13.785  22.184  0.00  0.00    +0.000 C 
ATOM     14  C   UNL     1      -5.001  12.280  20.150  0.00  0.00    +0.000 C 
ATOM     15  O   UNL     1      -4.924  12.005  18.961  0.00  0.00    +0.000 OA
ENDROOT
BRANCH   1  17
ATOM     16  C   UNL     1      -7.627  10.279  20.348  0.00  0.00    +0.000 C 
ATOM     17  O   UNL     1      -7.470  11.694  20.360  0.00  0.00    +0.000 OA
ENDBRANCH   1  17
BRANCH   8  18
ATOM     18  C   UNL     1      -1.810  12.418  19.280  0.00  0.00    +0.000 C 
BRANCH  18  19
ATOM     19  O   UNL     1      -1.234  11.104  19.350  0.00  0.00    +0.000 OA
BRANCH  19  20
ATOM     20  C   UNL     1      -1.470  10.305  18.289  0.00  0.00    +0.000 C 
ATOM     21  N   UNL     1      -0.311  10.043  17.643  0.00  0.00    +0.000 N 
ATOM     22  O   UNL     1      -2.545   9.846  17.945  0.00  0.00    +0.000 OA
ATOM     23  H   UNL     1       0.563  10.353  18.040  0.00  0.00    +0.000 HD
ATOM     24  H   UNL     1      -0.324   9.400  16.867  0.00  0.00    +0.000 HD
ENDBRANCH  19  20
ENDBRANCH  18  19
ENDBRANCH   8  18
BRANCH  13  25
ATOM     25  O   UNL     1       0.140  14.605  21.212  0.00  0.00    +0.000 OA
BRANCH  25  26
ATOM     26  C   UNL     1       1.290  14.053  20.726  0.00  0.00    +0.000 C 
ATOM     27  O   UNL     1       2.021  13.309  21.372  0.00  0.00    +0.000 OA
BRANCH  26  28
ATOM     28  C   UNL     1       1.579  14.507  19.295  0.00  0.00    +0.000 C 
ATOM     29  C   UNL     1       2.892  15.298  19.261  0.00  0.00    +0.000 C 
ATOM     30  C   UNL     1       1.721  13.264  18.397  0.00  0.00    +0.000 C 
ATOM     31  C   UNL     1       0.422  15.368  18.777  0.00  0.00    +0.000 C 
ENDBRANCH  26  28
ENDBRANCH  25  26
ENDBRANCH  13  25
TORSDOF 7
ENDMDL
MODEL 8
REMARK VINA RESULT:      -5.8      3.303      5.573
REMARK  Name = 
REMARK  12 active torsions:
REMARK  status: ('A' for Active; 'I' for Inactive)
REMARK    1  A    between atoms: C_1  and  O_2
REMARK    2  A    between atoms: O_2  and  C_3
REMARK    3  A    between atoms: C_4  and  C_5
REMARK    4  A    between atoms: C_10  and  C_11
REMARK    5  A    between atoms: C_11  and  O_12
REMARK    6  A    between atoms: O_12  and  C_13
REMARK    7  A    between atoms: C_20  and  O_21
REMARK    8  A    between atoms: O_21  and  C_22
REMARK    9  A    between atoms: C_22  and  C_24
REMARK   10  A    between atoms: C_24  and  C_25
REMARK   11  A    between atoms: C_24  and  C_26
REMARK   12  A    between atoms: C_24  and  C_27
REMARK                            x       y       z     vdW  Elec       q    Type
REMARK                         _______ _______ _______ _____ _____    ______ ____
ROOT
ATOM      1  C   UNL     1      -5.604  11.859  19.399  0.00  0.00    +0.000 C 
ATOM      2  C   UNL     1      -5.947  12.271  20.644  0.00  0.00    +0.000 C 
ATOM      3  C   UNL     1      -7.338  12.215  21.212  0.00  0.00    +0.000 C 
ATOM      4  C   UNL     1      -4.931  12.822  21.595  0.00  0.00    +0.000 C 
ATOM      5  O   UNL     1      -5.253  13.244  22.699  0.00  0.00    +0.000 OA
ATOM      6  C   UNL     1      -3.584  12.802  21.117  0.00  0.00    +0.000 A 
ATOM      7  C   UNL     1      -3.191  12.382  19.858  0.00  0.00    +0.000 A 
ATOM      8  C   UNL     1      -1.746  12.463  19.790  0.00  0.00    +0.000 A 
ATOM      9  C   UNL     1      -1.358  12.984  21.007  0.00  0.00    +0.000 A 
ATOM     10  N   UNL     1      -2.469  13.162  21.774  0.00  0.00    +0.000 N 
ATOM     11  C   UNL     1      -2.194  13.643  23.114  0.00  0.00    +0.000 C 
ATOM     12  C   UNL     1      -0.757  14.143  22.973  0.00  0.00    +0.000 C 
ATOM     13  C   UNL     1      -0.143  13.345  21.787  0.00  0.00    +0.000 C 
ATOM     14  C   UNL     1      -4.165  11.946  18.870  0.00  0.00    +0.000 C 
ATOM     15  O   UNL     1      -3.857  11.695  17.714  0.00  0.00    +0.000 OA
ENDROOT
BRANCH   1  17
ATOM     16  C   UNL     1      -7.127  12.293  17.593  0.00  0.00    +0.000 C 
ATOM     17  O   UNL     1      -6.632  11.390  18.576  0.00  0.00    +0.000 OA
ENDBRANCH   1  17
BRANCH   8  18
ATOM     18  C   UNL     1      -0.864  12.057  18.651  0.00  0.00    +0.000 C 
BRANCH  18  19
ATOM     19  O   UNL     1      -0.680  10.634  18.563  0.00  0.00    +0.000 OA
BRANCH  19  20
ATOM     20  C   UNL     1       0.576  10.194  18.776  0.00  0.00    +0.000 C 
ATOM     21  N   UNL     1       0.841  10.180  20.102  0.00  0.00    +0.000 N 
ATOM     22  O   UNL     1       1.376   9.828  17.931  0.00  0.00    +0.000 OA
ATOM     23  H   UNL     1       0.104  10.381  20.761  0.00  0.00    +0.000 HD
ATOM     24  H   UNL     1       1.724   9.808  20.416  0.00  0.00    +0.000 HD
ENDBRANCH  19  20
ENDBRANCH  18  19
ENDBRANCH   8  18
BRANCH  13  25
ATOM     25  O   UNL     1       0.688  14.175  20.979  0.00  0.00    +0.000 OA
BRANCH  25  26
ATOM     26  C   UNL     1       1.864  13.577  20.633  0.00  0.00    +0.000 C 
ATOM     27  O   UNL     1       2.365  12.640  21.246  0.00  0.00    +0.000 OA
BRANCH  26  28
ATOM     28  C   UNL     1       2.505  14.241  19.414  0.00  0.00    +0.000 C 
ATOM     29  C   UNL     1       3.894  14.772  19.787  0.00  0.00    +0.000 C 
ATOM     30  C   UNL     1       2.654  13.193  18.296  0.00  0.00    +0.000 C 
ATOM     31  C   UNL     1       1.612  15.383  18.913  0.00  0.00    +0.000 C 
ENDBRANCH  26  28
ENDBRANCH  25  26
ENDBRANCH  13  25
TORSDOF 7
ENDMDL
MODEL 9
REMARK VINA RESULT:      -5.7      2.098      6.880
REMARK  Name = 
REMARK  12 active torsions:
REMARK  status: ('A' for Active; 'I' for Inactive)
REMARK    1  A    between atoms: C_1  and  O_2
REMARK    2  A    between atoms: O_2  and  C_3
REMARK    3  A    between atoms: C_4  and  C_5
REMARK    4  A    between atoms: C_10  and  C_11
REMARK    5  A    between atoms: C_11  and  O_12
REMARK    6  A    between atoms: O_12  and  C_13
REMARK    7  A    between atoms: C_20  and  O_21
REMARK    8  A    between atoms: O_21  and  C_22
REMARK    9  A    between atoms: C_22  and  C_24
REMARK   10  A    between atoms: C_24  and  C_25
REMARK   11  A    between atoms: C_24  and  C_26
REMARK   12  A    between atoms: C_24  and  C_27
REMARK                            x       y       z     vdW  Elec       q    Type
REMARK                         _______ _______ _______ _____ _____    ______ ____
ROOT
ATOM      1  C   UNL     1       2.897   7.115  18.164  0.00  0.00    +0.000 C 
ATOM      2  C   UNL     1       2.680   6.295  19.222  0.00  0.00    +0.000 C 
ATOM      3  C   UNL     1       3.215   4.895  19.344  0.00  0.00    +0.000 C 
ATOM      4  C   UNL     1       1.876   6.737  20.404  0.00  0.00    +0.000 C 
ATOM      5  O   UNL     1       1.636   5.976  21.334  0.00  0.00    +0.000 OA
ATOM      6  C   UNL     1       1.433   8.095  20.358  0.00  0.00    +0.000 A 
ATOM      7  C   UNL     1       1.640   8.967  19.303  0.00  0.00    +0.000 A 
ATOM      8  C   UNL     1       1.089  10.255  19.672  0.00  0.00    +0.000 A 
ATOM      9  C   UNL     1       0.530  10.064  20.918  0.00  0.00    +0.000 A 
ATOM     10  N   UNL     1       0.762   8.777  21.301  0.00  0.00    +0.000 N 
ATOM     11  C   UNL     1       0.284   8.460  22.633  0.00  0.00    +0.000 C 
ATOM     12  C   UNL     1      -0.664   9.628  22.907  0.00  0.00    +0.000 C 
ATOM     13  C   UNL     1      -0.168  10.798  22.008  0.00  0.00    +0.000 C 
ATOM     14  C   UNL     1       2.320   8.536  18.092  0.00  0.00    +0.000 C 
ATOM     15  O   UNL     1       2.400   9.245  17.099  0.00  0.00    +0.000 OA
ENDROOT
BRANCH   1  17
ATOM     16  C   UNL     1       5.031   6.873  17.088  0.00  0.00    +0.000 C 
ATOM     17  O   UNL     1       3.634   6.597  17.096  0.00  0.00    +0.000 OA
ENDBRANCH   1  17
BRANCH   8  18
ATOM     18  C   UNL     1       1.129  11.523  18.877  0.00  0.00    +0.000 C 
BRANCH  18  19
ATOM     19  O   UNL     1       1.935  12.543  19.490  0.00  0.00    +0.000 OA
BRANCH  19  20
ATOM     20  C   UNL     1       2.540  13.398  18.640  0.00  0.00    +0.000 C 
ATOM     21  N   UNL     1       2.596  12.854  17.402  0.00  0.00    +0.000 N 
ATOM     22  O   UNL     1       2.963  14.511  18.900  0.00  0.00    +0.000 OA
ATOM     23  H   UNL     1       2.126  11.981  17.219  0.00  0.00    +0.000 HD
ATOM     24  H   UNL     1       2.962  13.411  16.645  0.00  0.00    +0.000 HD
ENDBRANCH  19  20
ENDBRANCH  18  19
ENDBRANCH   8  18
BRANCH  13  25
ATOM     25  O   UNL     1      -1.262  11.517  21.446  0.00  0.00    +0.000 OA
BRANCH  25  26
ATOM     26  C   UNL     1      -1.121  12.870  21.551  0.00  0.00    +0.000 C 
ATOM     27  O   UNL     1      -0.500  13.428  22.451  0.00  0.00    +0.000 OA
BRANCH  26  28
ATOM     28  C   UNL     1      -1.863  13.609  20.437  0.00  0.00    +0.000 C 
ATOM     29  C   UNL     1      -3.026  14.409  21.037  0.00  0.00    +0.000 C 
ATOM     30  C   UNL     1      -0.889  14.583  19.750  0.00  0.00    +0.000 C 
ATOM     31  C   UNL     1      -2.383  12.606  19.402  0.00  0.00    +0.000 C 
ENDBRANCH  26  28
ENDBRANCH  25  26
ENDBRANCH  13  25
TORSDOF 7
ENDMDL
