MODEL 1
REMARK VINA RESULT:      -7.7      0.000      0.000
REMARK  Name = 
REMARK  11 active torsions:
REMARK  status: ('A' for Active; 'I' for Inactive)
REMARK    1  A    between atoms: C_1  and  C_2
REMARK    2  A    between atoms: C_2  and  O_3
REMARK    3  A    between atoms: O_3  and  C_4
REMARK    4  A    between atoms: C_6  and  N_7
REMARK    5  A    between atoms: C_8  and  C_9
REMARK    6  A    between atoms: C_13  and  C_14
REMARK    7  A    between atoms: N_16  and  N_17
REMARK    8  A    between atoms: C_18  and  C_20
REMARK    9  A    between atoms: C_25  and  O_26
REMARK   10  A    between atoms: O_26  and  C_27
REMARK   11  A    between atoms: C_27  and  C_28
REMARK                            x       y       z     vdW  Elec       q    Type
REMARK                         _______ _______ _______ _____ _____    ______ ____
ROOT
ATOM      1  C   UNL     1       0.877   9.165  21.019  0.00  0.00    +0.000 C 
ATOM      2  O   UNL     1       1.419   8.495  21.901  0.00  0.00    +0.000 OA
ATOM      3  N   UNL     1       1.236   9.009  19.686  0.00  0.00    +0.000 N 
ATOM      4  H   UNL     1       0.892   9.602  18.937  0.00  0.00    +0.000 HD
ENDROOT
BRANCH   1  10
ATOM      5  C   UNL     1      -0.609  11.279  20.610  0.00  0.00    +0.000 A 
ATOM      6  C   UNL     1      -1.385  12.309  21.213  0.00  0.00    +0.000 A 
ATOM      7  C   UNL     1      -1.803  12.254  22.549  0.00  0.00    +0.000 A 
ATOM      8  C   UNL     1      -1.474  11.113  23.277  0.00  0.00    +0.000 A 
ATOM      9  C   UNL     1      -0.654  10.119  22.714  0.00  0.00    +0.000 A 
ATOM     10  C   UNL     1      -0.146  10.212  21.399  0.00  0.00    +0.000 A 
BRANCH   7  11
ATOM     11  N   UNL     1      -2.492  13.296  23.223  0.00  0.00    +0.000 N 
ATOM     12  C   UNL     1      -1.933  14.311  23.976  0.00  0.00    +0.000 C 
ATOM     13  C   UNL     1      -2.946  15.126  24.749  0.00  0.00    +0.000 C 
ATOM     14  O   UNL     1      -0.740  14.591  24.040  0.00  0.00    +0.000 OA
ATOM     15  H   UNL     1      -3.503  13.282  23.152  0.00  0.00    +0.000 HD
ENDBRANCH   7  11
BRANCH   5  16
ATOM     16  O   UNL     1      -0.361  11.502  19.280  0.00  0.00    +0.000 OA
BRANCH  16  18
ATOM     17  C   UNL     1      -1.623  10.139  17.671  0.00  0.00    +0.000 C 
ATOM     18  C   UNL     1      -1.475  11.466  18.380  0.00  0.00    +0.000 C 
ENDBRANCH  16  18
ENDBRANCH   5  16
ENDBRANCH   1  10
BRANCH   3  19
ATOM     19  N   UNL     1       2.093   7.945  19.324  0.00  0.00    +0.000 N 
ATOM     20  C   UNL     1       2.634   7.841  18.040  0.00  0.00    +0.000 C 
ATOM     21  O   UNL     1       2.470   8.694  17.170  0.00  0.00    +0.000 OA
ATOM     22  H   UNL     1       2.189   7.220  20.030  0.00  0.00    +0.000 HD
BRANCH  20  23
ATOM     23  C   UNL     1       3.461   6.611  17.774  0.00  0.00    +0.000 A 
ATOM     24  C   UNL     1       4.760   6.778  17.254  0.00  0.00    +0.000 A 
ATOM     25  C   UNL     1       5.562   5.677  16.933  0.00  0.00    +0.000 A 
ATOM     26  C   UNL     1       5.103   4.390  17.173  0.00  0.00    +0.000 A 
ATOM     27  C   UNL     1       3.848   4.199  17.747  0.00  0.00    +0.000 A 
ATOM     28  C   UNL     1       3.011   5.296  18.029  0.00  0.00    +0.000 A 
BRANCH  28  29
ATOM     29  O   UNL     1       1.754   5.064  18.652  0.00  0.00    +0.000 OA
BRANCH  29  30
ATOM     30  C   UNL     1       1.661   4.638  19.983  0.00  0.00    +0.000 C 
ATOM     31  C   UNL     1       0.983   3.303  20.073  0.00  0.00    +0.000 C 
ATOM     32  O   UNL     1       2.029   5.261  20.976  0.00  0.00    +0.000 OA
ENDBRANCH  29  30
ENDBRANCH  28  29
ENDBRANCH  20  23
ENDBRANCH   3  19
TORSDOF 8
ENDMDL
MODEL 2
REMARK VINA RESULT:      -7.5      1.192      1.363
REMARK  Name = 
REMARK  11 active torsions:
REMARK  status: ('A' for Active; 'I' for Inactive)
REMARK    1  A    between atoms: C_1  and  C_2
REMARK    2  A    between atoms: C_2  and  O_3
REMARK    3  A    between atoms: O_3  and  C_4
REMARK    4  A    between atoms: C_6  and  N_7
REMARK    5  A    between atoms: C_8  and  C_9
REMARK    6  A    between atoms: C_13  and  C_14
REMARK    7  A    between atoms: N_16  and  N_17
REMARK    8  A    between atoms: C_18  and  C_20
REMARK    9  A    between atoms: C_25  and  O_26
REMARK   10  A    between atoms: O_26  and  C_27
REMARK   11  A    between atoms: C_27  and  C_28
REMARK                            x       y       z     vdW  Elec       q    Type
REMARK                         _______ _______ _______ _____ _____    ______ ____
ROOT
ATOM      1  C   UNL     1       0.956   8.537  20.823  0.00  0.00    +0.000 C 
ATOM      2  O   UNL     1       1.088   7.511  21.496  0.00  0.00    +0.000 OA
ATOM      3  N   UNL     1       1.715   8.738  19.677  0.00  0.00    +0.000 N 
ATOM      4  H   UNL     1       1.714   9.603  19.145  0.00  0.00    +0.000 HD
ENDROOT
BRANCH   1  10
ATOM      5  C   UNL     1      -0.496  10.694  20.535  0.00  0.00    +0.000 A 
ATOM      6  C   UNL     1      -1.185  11.749  21.198  0.00  0.00    +0.000 A 
ATOM      7  C   UNL     1      -1.483  11.711  22.566  0.00  0.00    +0.000 A 
ATOM      8  C   UNL     1      -1.125  10.564  23.269  0.00  0.00    +0.000 A 
ATOM      9  C   UNL     1      -0.389   9.543  22.642  0.00  0.00    +0.000 A 
ATOM     10  C   UNL     1       0.003   9.616  21.286  0.00  0.00    +0.000 A 
BRANCH   7  11
ATOM     11  N   UNL     1      -2.078  12.776  23.293  0.00  0.00    +0.000 N 
ATOM     12  C   UNL     1      -3.428  12.982  23.511  0.00  0.00    +0.000 C 
ATOM     13  C   UNL     1      -3.748  14.325  24.127  0.00  0.00    +0.000 C 
ATOM     14  O   UNL     1      -4.329  12.185  23.270  0.00  0.00    +0.000 OA
ATOM     15  H   UNL     1      -1.441  13.461  23.681  0.00  0.00    +0.000 HD
ENDBRANCH   7  11
BRANCH   5  16
ATOM     16  O   UNL     1      -0.361  10.905  19.187  0.00  0.00    +0.000 OA
BRANCH  16  18
ATOM     17  C   UNL     1      -2.331  11.246  17.759  0.00  0.00    +0.000 C 
ATOM     18  C   UNL     1      -1.311  10.280  18.316  0.00  0.00    +0.000 C 
ENDBRANCH  16  18
ENDBRANCH   5  16
ENDBRANCH   1  10
BRANCH   3  19
ATOM     19  N   UNL     1       2.505   7.676  19.180  0.00  0.00    +0.000 N 
ATOM     20  C   UNL     1       2.960   7.655  17.859  0.00  0.00    +0.000 C 
ATOM     21  O   UNL     1       2.775   8.578  17.069  0.00  0.00    +0.000 OA
ATOM     22  H   UNL     1       2.616   6.895  19.821  0.00  0.00    +0.000 HD
BRANCH  20  23
ATOM     23  C   UNL     1       3.719   6.422  17.447  0.00  0.00    +0.000 A 
ATOM     24  C   UNL     1       4.798   6.569  16.551  0.00  0.00    +0.000 A 
ATOM     25  C   UNL     1       5.512   5.460  16.085  0.00  0.00    +0.000 A 
ATOM     26  C   UNL     1       5.196   4.188  16.541  0.00  0.00    +0.000 A 
ATOM     27  C   UNL     1       4.177   4.022  17.477  0.00  0.00    +0.000 A 
ATOM     28  C   UNL     1       3.418   5.124  17.917  0.00  0.00    +0.000 A 
BRANCH  28  29
ATOM     29  O   UNL     1       2.413   4.921  18.902  0.00  0.00    +0.000 OA
BRANCH  29  30
ATOM     30  C   UNL     1       1.414   3.952  18.745  0.00  0.00    +0.000 C 
ATOM     31  C   UNL     1       1.037   3.350  20.066  0.00  0.00    +0.000 C 
ATOM     32  O   UNL     1       0.919   3.581  17.684  0.00  0.00    +0.000 OA
ENDBRANCH  29  30
ENDBRANCH  28  29
ENDBRANCH  20  23
ENDBRANCH   3  19
TORSDOF 8
ENDMDL
MODEL 3
REMARK VINA RESULT:      -7.4      1.361      1.408
REMARK  Name = 
REMARK  11 active torsions:
REMARK  status: ('A' for Active; 'I' for Inactive)
REMARK    1  A    between atoms: C_1  and  C_2
REMARK    2  A    between atoms: C_2  and  O_3
REMARK    3  A    between atoms: O_3  and  C_4
REMARK    4  A    between atoms: C_6  and  N_7
REMARK    5  A    between atoms: C_8  and  C_9
REMARK    6  A    between atoms: C_13  and  C_14
REMARK    7  A    between atoms: N_16  and  N_17
REMARK    8  A    between atoms: C_18  and  C_20
REMARK    9  A    between atoms: C_25  and  O_26
REMARK   10  A    between atoms: O_26  and  C_27
REMARK   11  A    between atoms: C_27  and  C_28
REMARK                            x       y       z     vdW  Elec       q    Type
REMARK                         _______ _______ _______ _____ _____    ______ ____
ROOT
ATOM      1  C   UNL     1       0.829   9.209  21.262  0.00  0.00    +0.000 C 
ATOM      2  O   UNL     1       1.444   8.768  22.236  0.00  0.00    +0.000 OA
ATOM      3  N   UNL     1       1.174   8.829  19.971  0.00  0.00    +0.000 N 
ATOM      4  H   UNL     1       0.765   9.237  19.135  0.00  0.00    +0.000 HD
ENDROOT
BRANCH   1  10
ATOM      5  C   UNL     1      -0.824  11.096  20.517  0.00  0.00    +0.000 A 
ATOM      6  C   UNL     1      -1.676  12.153  20.944  0.00  0.00    +0.000 A 
ATOM      7  C   UNL     1      -2.078  12.305  22.277  0.00  0.00    +0.000 A 
ATOM      8  C   UNL     1      -1.654  11.341  23.189  0.00  0.00    +0.000 A 
ATOM      9  C   UNL     1      -0.761  10.329  22.793  0.00  0.00    +0.000 A 
ATOM     10  C   UNL     1      -0.271  10.226  21.472  0.00  0.00    +0.000 A 
BRANCH   7  11
ATOM     11  N   UNL     1      -2.844  13.394  22.771  0.00  0.00    +0.000 N 
ATOM     12  C   UNL     1      -4.213  13.430  22.960  0.00  0.00    +0.000 C 
ATOM     13  C   UNL     1      -4.748  14.807  23.283  0.00  0.00    +0.000 C 
ATOM     14  O   UNL     1      -4.975  12.470  22.905  0.00  0.00    +0.000 OA
ATOM     15  H   UNL     1      -2.328  14.236  22.997  0.00  0.00    +0.000 HD
ENDBRANCH   7  11
BRANCH   5  16
ATOM     16  O   UNL     1      -0.604  11.096  19.163  0.00  0.00    +0.000 OA
BRANCH  16  18
ATOM     17  C   UNL     1      -1.797  10.039  17.293  0.00  0.00    +0.000 C 
ATOM     18  C   UNL     1      -1.747  11.163  18.302  0.00  0.00    +0.000 C 
ENDBRANCH  16  18
ENDBRANCH   5  16
ENDBRANCH   1  10
BRANCH   3  19
ATOM     19  N   UNL     1       2.111   7.787  19.788  0.00  0.00    +0.000 N 
ATOM     20  C   UNL     1       2.572   7.428  18.519  0.00  0.00    +0.000 C 
ATOM     21  O   UNL     1       2.259   8.031  17.494  0.00  0.00    +0.000 OA
ATOM     22  H   UNL     1       2.331   7.262  20.630  0.00  0.00    +0.000 HD
BRANCH  20  23
ATOM     23  C   UNL     1       3.502   6.245  18.470  0.00  0.00    +0.000 A 
ATOM     24  C   UNL     1       4.455   6.186  17.432  0.00  0.00    +0.000 A 
ATOM     25  C   UNL     1       5.315   5.092  17.295  0.00  0.00    +0.000 A 
ATOM     26  C   UNL     1       5.275   4.058  18.219  0.00  0.00    +0.000 A 
ATOM     27  C   UNL     1       4.387   4.122  19.292  0.00  0.00    +0.000 A 
ATOM     28  C   UNL     1       3.484   5.194  19.413  0.00  0.00    +0.000 A 
BRANCH  28  29
ATOM     29  O   UNL     1       2.621   5.246  20.544  0.00  0.00    +0.000 OA
BRANCH  29  30
ATOM     30  C   UNL     1       2.003   4.095  21.049  0.00  0.00    +0.000 C 
ATOM     31  C   UNL     1       0.852   3.678  20.182  0.00  0.00    +0.000 C 
ATOM     32  O   UNL     1       2.301   3.502  22.083  0.00  0.00    +0.000 OA
ENDBRANCH  29  30
ENDBRANCH  28  29
ENDBRANCH  20  23
ENDBRANCH   3  19
TORSDOF 8
ENDMDL
MODEL 4
REMARK VINA RESULT:      -7.3      0.876      1.171
REMARK  Name = 
REMARK  11 active torsions:
REMARK  status: ('A' for Active; 'I' for Inactive)
REMARK    1  A    between atoms: C_1  and  C_2
REMARK    2  A    between atoms: C_2  and  O_3
REMARK    3  A    between atoms: O_3  and  C_4
REMARK    4  A    between atoms: C_6  and  N_7
REMARK    5  A    between atoms: C_8  and  C_9
REMARK    6  A    between atoms: C_13  and  C_14
REMARK    7  A    between atoms: N_16  and  N_17
REMARK    8  A    between atoms: C_18  and  C_20
REMARK    9  A    between atoms: C_25  and  O_26
REMARK   10  A    between atoms: O_26  and  C_27
REMARK   11  A    between atoms: C_27  and  C_28
REMARK                            x       y       z     vdW  Elec       q    Type
REMARK                         _______ _______ _______ _____ _____    ______ ____
ROOT
ATOM      1  C   UNL     1       0.901   8.951  20.975  0.00  0.00    +0.000 C 
ATOM      2  O   UNL     1       1.303   8.136  21.809  0.00  0.00    +0.000 OA
ATOM      3  N   UNL     1       1.400   8.946  19.678  0.00  0.00    +0.000 N 
ATOM      4  H   UNL     1       1.176   9.654  18.985  0.00  0.00    +0.000 HD
ENDROOT
BRANCH   1  10
ATOM      5  C   UNL     1      -0.587  11.072  20.606  0.00  0.00    +0.000 A 
ATOM      6  C   UNL     1      -1.333  12.111  21.230  0.00  0.00    +0.000 A 
ATOM      7  C   UNL     1      -1.698  12.070  22.581  0.00  0.00    +0.000 A 
ATOM      8  C   UNL     1      -1.347  10.934  23.306  0.00  0.00    +0.000 A 
ATOM      9  C   UNL     1      -0.556   9.930  22.720  0.00  0.00    +0.000 A 
ATOM     10  C   UNL     1      -0.099  10.008  21.385  0.00  0.00    +0.000 A 
BRANCH   7  11
ATOM     11  N   UNL     1      -2.354  13.122  23.274  0.00  0.00    +0.000 N 
ATOM     12  C   UNL     1      -1.764  14.227  23.859  0.00  0.00    +0.000 C 
ATOM     13  C   UNL     1      -2.710  15.043  24.712  0.00  0.00    +0.000 C 
ATOM     14  O   UNL     1      -0.597  14.580  23.723  0.00  0.00    +0.000 OA
ATOM     15  H   UNL     1      -3.360  13.043  23.354  0.00  0.00    +0.000 HD
ENDBRANCH   7  11
BRANCH   5  16
ATOM     16  O   UNL     1      -0.390  11.281  19.265  0.00  0.00    +0.000 OA
BRANCH  16  18
ATOM     17  C   UNL     1       1.745  12.442  18.900  0.00  0.00    +0.000 C 
ATOM     18  C   UNL     1       0.235  12.507  18.867  0.00  0.00    +0.000 C 
ENDBRANCH  16  18
ENDBRANCH   5  16
ENDBRANCH   1  10
BRANCH   3  19
ATOM     19  N   UNL     1       2.233   7.881  19.266  0.00  0.00    +0.000 N 
ATOM     20  C   UNL     1       2.753   7.814  17.970  0.00  0.00    +0.000 C 
ATOM     21  O   UNL     1       2.588   8.699  17.133  0.00  0.00    +0.000 OA
ATOM     22  H   UNL     1       2.328   7.131  19.944  0.00  0.00    +0.000 HD
BRANCH  20  23
ATOM     23  C   UNL     1       3.554   6.581  17.648  0.00  0.00    +0.000 A 
ATOM     24  C   UNL     1       4.720   6.725  16.868  0.00  0.00    +0.000 A 
ATOM     25  C   UNL     1       5.481   5.616  16.487  0.00  0.00    +0.000 A 
ATOM     26  C   UNL     1       5.124   4.347  16.918  0.00  0.00    +0.000 A 
ATOM     27  C   UNL     1       4.014   4.184  17.744  0.00  0.00    +0.000 A 
ATOM     28  C   UNL     1       3.211   5.285  18.095  0.00  0.00    +0.000 A 
BRANCH  28  29
ATOM     29  O   UNL     1       2.109   5.086  18.973  0.00  0.00    +0.000 OA
BRANCH  29  30
ATOM     30  C   UNL     1       1.380   3.890  18.976  0.00  0.00    +0.000 C 
ATOM     31  C   UNL     1       1.196   3.378  20.375  0.00  0.00    +0.000 C 
ATOM     32  O   UNL     1       0.968   3.284  17.991  0.00  0.00    +0.000 OA
ENDBRANCH  29  30
ENDBRANCH  28  29
ENDBRANCH  20  23
ENDBRANCH   3  19
TORSDOF 8
ENDMDL
MODEL 5
REMARK VINA RESULT:      -7.2      1.411      1.652
REMARK  Name = 
REMARK  11 active torsions:
REMARK  status: ('A' for Active; 'I' for Inactive)
REMARK    1  A    between atoms: C_1  and  C_2
REMARK    2  A    between atoms: C_2  and  O_3
REMARK    3  A    between atoms: O_3  and  C_4
REMARK    4  A    between atoms: C_6  and  N_7
REMARK    5  A    between atoms: C_8  and  C_9
REMARK    6  A    between atoms: C_13  and  C_14
REMARK    7  A    between atoms: N_16  and  N_17
REMARK    8  A    between atoms: C_18  and  C_20
REMARK    9  A    between atoms: C_25  and  O_26
REMARK   10  A    between atoms: O_26  and  C_27
REMARK   11  A    between atoms: C_27  and  C_28
REMARK                            x       y       z     vdW  Elec       q    Type
REMARK                         _______ _______ _______ _____ _____    ______ ____
ROOT
ATOM      1  C   UNL     1       1.155   8.959  21.006  0.00  0.00    +0.000 C 
ATOM      2  O   UNL     1       1.706   8.259  21.860  0.00  0.00    +0.000 OA
ATOM      3  N   UNL     1       1.459   8.809  19.659  0.00  0.00    +0.000 N 
ATOM      4  H   UNL     1       1.107   9.423  18.930  0.00  0.00    +0.000 HD
ENDROOT
BRANCH   1  10
ATOM      5  C   UNL     1      -0.037  11.282  20.825  0.00  0.00    +0.000 A 
ATOM      6  C   UNL     1      -0.806  12.268  21.504  0.00  0.00    +0.000 A 
ATOM      7  C   UNL     1      -1.451  12.014  22.721  0.00  0.00    +0.000 A 
ATOM      8  C   UNL     1      -1.359  10.725  23.239  0.00  0.00    +0.000 A 
ATOM      9  C   UNL     1      -0.551   9.760  22.612  0.00  0.00    +0.000 A 
ATOM     10  C   UNL     1       0.183  10.036  21.436  0.00  0.00    +0.000 A 
BRANCH   7  11
ATOM     11  N   UNL     1      -2.147  12.988  23.485  0.00  0.00    +0.000 N 
ATOM     12  C   UNL     1      -3.517  13.147  23.580  0.00  0.00    +0.000 C 
ATOM     13  C   UNL     1      -3.936  14.414  24.292  0.00  0.00    +0.000 C 
ATOM     14  O   UNL     1      -4.366  12.364  23.166  0.00  0.00    +0.000 OA
ATOM     15  H   UNL     1      -1.573  13.640  24.006  0.00  0.00    +0.000 HD
ENDBRANCH   7  11
BRANCH   5  16
ATOM     16  O   UNL     1       0.457  11.719  19.623  0.00  0.00    +0.000 OA
BRANCH  16  18
ATOM     17  C   UNL     1       2.153  12.868  18.267  0.00  0.00    +0.000 C 
ATOM     18  C   UNL     1       1.606  12.573  19.645  0.00  0.00    +0.000 C 
ENDBRANCH  16  18
ENDBRANCH   5  16
ENDBRANCH   1  10
BRANCH   3  19
ATOM     19  N   UNL     1       2.264   7.721  19.253  0.00  0.00    +0.000 N 
ATOM     20  C   UNL     1       2.787   7.635  17.960  0.00  0.00    +0.000 C 
ATOM     21  O   UNL     1       2.649   8.522  17.119  0.00  0.00    +0.000 OA
ATOM     22  H   UNL     1       2.337   6.970  19.935  0.00  0.00    +0.000 HD
BRANCH  20  23
ATOM     23  C   UNL     1       3.556   6.380  17.645  0.00  0.00    +0.000 A 
ATOM     24  C   UNL     1       4.692   6.482  16.817  0.00  0.00    +0.000 A 
ATOM     25  C   UNL     1       5.422   5.349  16.441  0.00  0.00    +0.000 A 
ATOM     26  C   UNL     1       5.062   4.099  16.923  0.00  0.00    +0.000 A 
ATOM     27  C   UNL     1       3.981   3.979  17.795  0.00  0.00    +0.000 A 
ATOM     28  C   UNL     1       3.210   5.104  18.143  0.00  0.00    +0.000 A 
BRANCH  28  29
ATOM     29  O   UNL     1       2.140   4.949  19.068  0.00  0.00    +0.000 OA
BRANCH  29  30
ATOM     30  C   UNL     1       1.327   3.808  19.067  0.00  0.00    +0.000 C 
ATOM     31  C   UNL     1       1.112   3.301  20.463  0.00  0.00    +0.000 C 
ATOM     32  O   UNL     1       0.870   3.239  18.079  0.00  0.00    +0.000 OA
ENDBRANCH  29  30
ENDBRANCH  28  29
ENDBRANCH  20  23
ENDBRANCH   3  19
TORSDOF 8
ENDMDL
MODEL 6
REMARK VINA RESULT:      -7.1      2.035      9.101
REMARK  Name = 
REMARK  11 active torsions:
REMARK  status: ('A' for Active; 'I' for Inactive)
REMARK    1  A    between atoms: C_1  and  C_2
REMARK    2  A    between atoms: C_2  and  O_3
REMARK    3  A    between atoms: O_3  and  C_4
REMARK    4  A    between atoms: C_6  and  N_7
REMARK    5  A    between atoms: C_8  and  C_9
REMARK    6  A    between atoms: C_13  and  C_14
REMARK    7  A    between atoms: N_16  and  N_17
REMARK    8  A    between atoms: C_18  and  C_20
REMARK    9  A    between atoms: C_25  and  O_26
REMARK   10  A    between atoms: O_26  and  C_27
REMARK   11  A    between atoms: C_27  and  C_28
REMARK                            x       y       z     vdW  Elec       q    Type
REMARK                         _______ _______ _______ _____ _____    ______ ____
ROOT
ATOM      1  C   UNL     1       1.366   8.815  19.134  0.00  0.00    +0.000 C 
ATOM      2  O   UNL     1       1.188   9.750  18.350  0.00  0.00    +0.000 OA
ATOM      3  N   UNL     1       0.734   8.795  20.371  0.00  0.00    +0.000 N 
ATOM      4  H   UNL     1       0.922   8.100  21.089  0.00  0.00    +0.000 HD
ENDROOT
BRANCH   1  10
ATOM      5  C   UNL     1       2.519   6.485  19.437  0.00  0.00    +0.000 A 
ATOM      6  C   UNL     1       3.639   5.672  19.105  0.00  0.00    +0.000 A 
ATOM      7  C   UNL     1       4.514   5.988  18.058  0.00  0.00    +0.000 A 
ATOM      8  C   UNL     1       4.226   7.120  17.300  0.00  0.00    +0.000 A 
ATOM      9  C   UNL     1       3.162   7.965  17.657  0.00  0.00    +0.000 A 
ATOM     10  C   UNL     1       2.331   7.708  18.771  0.00  0.00    +0.000 A 
BRANCH   7  11
ATOM     11  N   UNL     1       5.698   5.266  17.749  0.00  0.00    +0.000 N 
ATOM     12  C   UNL     1       6.797   5.082  18.567  0.00  0.00    +0.000 C 
ATOM     13  C   UNL     1       7.983   4.461  17.864  0.00  0.00    +0.000 C 
ATOM     14  O   UNL     1       6.864   5.357  19.761  0.00  0.00    +0.000 OA
ATOM     15  H   UNL     1       5.740   4.853  16.825  0.00  0.00    +0.000 HD
ENDBRANCH   7  11
BRANCH   5  16
ATOM     16  O   UNL     1       1.758   5.964  20.452  0.00  0.00    +0.000 OA
BRANCH  16  18
ATOM     17  C   UNL     1       1.159   3.601  20.762  0.00  0.00    +0.000 C 
ATOM     18  C   UNL     1       2.160   4.706  21.007  0.00  0.00    +0.000 C 
ENDBRANCH  16  18
ENDBRANCH   5  16
ENDBRANCH   1  10
BRANCH   3  19
ATOM     19  N   UNL     1      -0.261   9.758  20.651  0.00  0.00    +0.000 N 
ATOM     20  C   UNL     1       0.029  10.931  21.352  0.00  0.00    +0.000 C 
ATOM     21  O   UNL     1       1.165  11.242  21.704  0.00  0.00    +0.000 OA
ATOM     22  H   UNL     1      -1.205   9.477  20.401  0.00  0.00    +0.000 HD
BRANCH  20  23
ATOM     23  C   UNL     1      -1.147  11.824  21.650  0.00  0.00    +0.000 A 
ATOM     24  C   UNL     1      -1.388  12.188  22.991  0.00  0.00    +0.000 A 
ATOM     25  C   UNL     1      -2.492  12.970  23.346  0.00  0.00    +0.000 A 
ATOM     26  C   UNL     1      -3.349  13.446  22.364  0.00  0.00    +0.000 A 
ATOM     27  C   UNL     1      -3.097  13.156  21.025  0.00  0.00    +0.000 A 
ATOM     28  C   UNL     1      -2.017  12.330  20.659  0.00  0.00    +0.000 A 
BRANCH  28  29
ATOM     29  O   UNL     1      -1.768  12.089  19.279  0.00  0.00    +0.000 OA
BRANCH  29  30
ATOM     30  C   UNL     1      -2.721  11.475  18.457  0.00  0.00    +0.000 C 
ATOM     31  C   UNL     1      -2.095  10.393  17.626  0.00  0.00    +0.000 C 
ATOM     32  O   UNL     1      -3.906  11.780  18.361  0.00  0.00    +0.000 OA
ENDBRANCH  29  30
ENDBRANCH  28  29
ENDBRANCH  20  23
ENDBRANCH   3  19
TORSDOF 8
ENDMDL
MODEL 7
REMARK VINA RESULT:      -7.1      1.664      2.497
REMARK  Name = 
REMARK  11 active torsions:
REMARK  status: ('A' for Active; 'I' for Inactive)
REMARK    1  A    between atoms: C_1  and  C_2
REMARK    2  A    between atoms: C_2  and  O_3
REMARK    3  A    between atoms: O_3  and  C_4
REMARK    4  A    between atoms: C_6  and  N_7
REMARK    5  A    between atoms: C_8  and  C_9
REMARK    6  A    between atoms: C_13  and  C_14
REMARK    7  A    between atoms: N_16  and  N_17
REMARK    8  A    between atoms: C_18  and  C_20
REMARK    9  A    between atoms: C_25  and  O_26
REMARK   10  A    between atoms: O_26  and  C_27
REMARK   11  A    between atoms: C_27  and  C_28
REMARK                            x       y       z     vdW  Elec       q    Type
REMARK                         _______ _______ _______ _____ _____    ______ ____
ROOT
ATOM      1  C   UNL     1       1.627   9.027  18.476  0.00  0.00    +0.000 C 
ATOM      2  O   UNL     1       2.072   9.529  17.441  0.00  0.00    +0.000 OA
ATOM      3  N   UNL     1       1.960   7.727  18.836  0.00  0.00    +0.000 N 
ATOM      4  H   UNL     1       1.545   7.236  19.623  0.00  0.00    +0.000 HD
ENDROOT
BRANCH   1  10
ATOM      5  C   UNL     1      -0.416  10.607  18.896  0.00  0.00    +0.000 A 
ATOM      6  C   UNL     1      -1.069  11.470  19.820  0.00  0.00    +0.000 A 
ATOM      7  C   UNL     1      -0.755  11.486  21.185  0.00  0.00    +0.000 A 
ATOM      8  C   UNL     1       0.201  10.579  21.635  0.00  0.00    +0.000 A 
ATOM      9  C   UNL     1       0.898   9.767  20.724  0.00  0.00    +0.000 A 
ATOM     10  C   UNL     1       0.658   9.813  19.331  0.00  0.00    +0.000 A 
BRANCH   7  11
ATOM     11  N   UNL     1      -1.305  12.393  22.130  0.00  0.00    +0.000 N 
ATOM     12  C   UNL     1      -0.670  13.474  22.712  0.00  0.00    +0.000 C 
ATOM     13  C   UNL     1      -1.451  14.103  23.844  0.00  0.00    +0.000 C 
ATOM     14  O   UNL     1       0.415  13.941  22.378  0.00  0.00    +0.000 OA
ATOM     15  H   UNL     1      -2.262  12.218  22.411  0.00  0.00    +0.000 HD
ENDBRANCH   7  11
BRANCH   5  16
ATOM     16  O   UNL     1      -0.916  10.706  17.623  0.00  0.00    +0.000 OA
BRANCH  16  18
ATOM     17  C   UNL     1      -2.705  10.286  15.992  0.00  0.00    +0.000 C 
ATOM     18  C   UNL     1      -2.024   9.867  17.274  0.00  0.00    +0.000 C 
ENDBRANCH  16  18
ENDBRANCH   5  16
ENDBRANCH   1  10
BRANCH   3  19
ATOM     19  N   UNL     1       2.962   7.046  18.107  0.00  0.00    +0.000 N 
ATOM     20  C   UNL     1       3.719   6.022  18.680  0.00  0.00    +0.000 C 
ATOM     21  O   UNL     1       3.521   5.593  19.815  0.00  0.00    +0.000 OA
ATOM     22  H   UNL     1       3.153   7.434  17.187  0.00  0.00    +0.000 HD
BRANCH  20  23
ATOM     23  C   UNL     1       4.806   5.446  17.811  0.00  0.00    +0.000 A 
ATOM     24  C   UNL     1       6.105   5.985  17.921  0.00  0.00    +0.000 A 
ATOM     25  C   UNL     1       7.149   5.535  17.107  0.00  0.00    +0.000 A 
ATOM     26  C   UNL     1       6.932   4.504  16.204  0.00  0.00    +0.000 A 
ATOM     27  C   UNL     1       5.674   3.910  16.122  0.00  0.00    +0.000 A 
ATOM     28  C   UNL     1       4.602   4.387  16.900  0.00  0.00    +0.000 A 
BRANCH  28  29
ATOM     29  O   UNL     1       3.343   3.729  16.819  0.00  0.00    +0.000 OA
BRANCH  29  30
ATOM     30  C   UNL     1       2.983   2.717  17.718  0.00  0.00    +0.000 C 
ATOM     31  C   UNL     1       1.615   2.962  18.282  0.00  0.00    +0.000 C 
ATOM     32  O   UNL     1       3.680   1.766  18.063  0.00  0.00    +0.000 OA
ENDBRANCH  29  30
ENDBRANCH  28  29
ENDBRANCH  20  23
ENDBRANCH   3  19
TORSDOF 8
ENDMDL
MODEL 8
REMARK VINA RESULT:      -7.0      3.031     10.037
REMARK  Name = 
REMARK  11 active torsions:
REMARK  status: ('A' for Active; 'I' for Inactive)
REMARK    1  A    between atoms: C_1  and  C_2
REMARK    2  A    between atoms: C_2  and  O_3
REMARK    3  A    between atoms: O_3  and  C_4
REMARK    4  A    between atoms: C_6  and  N_7
REMARK    5  A    between atoms: C_8  and  C_9
REMARK    6  A    between atoms: C_13  and  C_14
REMARK    7  A    between atoms: N_16  and  N_17
REMARK    8  A    between atoms: C_18  and  C_20
REMARK    9  A    between atoms: C_25  and  O_26
REMARK   10  A    between atoms: O_26  and  C_27
REMARK   11  A    between atoms: C_27  and  C_28
REMARK                            x       y       z     vdW  Elec       q    Type
REMARK                         _______ _______ _______ _____ _____    ______ ____
ROOT
ATOM      1  C   UNL     1       3.627   5.815  18.076  0.00  0.00    +0.000 C 
ATOM      2  O   UNL     1       3.151   5.050  18.919  0.00  0.00    +0.000 OA
ATOM      3  N   UNL     1       3.245   7.150  18.031  0.00  0.00    +0.000 N 
ATOM      4  H   UNL     1       3.532   7.793  17.299  0.00  0.00    +0.000 HD
ENDROOT
BRANCH   1  10
ATOM      5  C   UNL     1       5.662   5.957  16.438  0.00  0.00    +0.000 A 
ATOM      6  C   UNL     1       6.308   5.383  15.307  0.00  0.00    +0.000 A 
ATOM      7  C   UNL     1       5.989   4.107  14.826  0.00  0.00    +0.000 A 
ATOM      8  C   UNL     1       5.035   3.375  15.529  0.00  0.00    +0.000 A 
ATOM      9  C   UNL     1       4.345   3.955  16.607  0.00  0.00    +0.000 A 
ATOM     10  C   UNL     1       4.589   5.278  17.040  0.00  0.00    +0.000 A 
BRANCH   7  11
ATOM     11  N   UNL     1       6.532   3.529  13.648  0.00  0.00    +0.000 N 
ATOM     12  C   UNL     1       5.860   3.250  12.472  0.00  0.00    +0.000 C 
ATOM     13  C   UNL     1       6.665   2.429  11.489  0.00  0.00    +0.000 C 
ATOM     14  O   UNL     1       4.726   3.619  12.183  0.00  0.00    +0.000 OA
ATOM     15  H   UNL     1       7.515   3.286  13.682  0.00  0.00    +0.000 HD
ENDBRANCH   7  11
BRANCH   5  16
ATOM     16  O   UNL     1       6.167   7.186  16.777  0.00  0.00    +0.000 OA
BRANCH  16  18
ATOM     17  C   UNL     1       7.977   8.606  17.641  0.00  0.00    +0.000 C 
ATOM     18  C   UNL     1       7.379   7.222  17.540  0.00  0.00    +0.000 C 
ENDBRANCH  16  18
ENDBRANCH   5  16
ENDBRANCH   1  10
BRANCH   3  19
ATOM     19  N   UNL     1       2.450   7.674  19.075  0.00  0.00    +0.000 N 
ATOM     20  C   UNL     1       1.631   8.790  18.886  0.00  0.00    +0.000 C 
ATOM     21  O   UNL     1       1.487   9.341  17.797  0.00  0.00    +0.000 OA
ATOM     22  H   UNL     1       2.607   7.244  19.983  0.00  0.00    +0.000 HD
BRANCH  20  23
ATOM     23  C   UNL     1       0.906   9.286  20.109  0.00  0.00    +0.000 A 
ATOM     24  C   UNL     1       1.265   8.749  21.363  0.00  0.00    +0.000 A 
ATOM     25  C   UNL     1       0.597   9.125  22.533  0.00  0.00    +0.000 A 
ATOM     26  C   UNL     1      -0.408  10.080  22.482  0.00  0.00    +0.000 A 
ATOM     27  C   UNL     1      -0.738  10.673  21.265  0.00  0.00    +0.000 A 
ATOM     28  C   UNL     1      -0.107  10.269  20.074  0.00  0.00    +0.000 A 
BRANCH  28  29
ATOM     29  O   UNL     1      -0.442  10.926  18.857  0.00  0.00    +0.000 OA
BRANCH  29  30
ATOM     30  C   UNL     1      -1.643  10.663  18.186  0.00  0.00    +0.000 C 
ATOM     31  C   UNL     1      -2.163  11.899  17.513  0.00  0.00    +0.000 C 
ATOM     32  O   UNL     1      -2.246   9.594  18.164  0.00  0.00    +0.000 OA
ENDBRANCH  29  30
ENDBRANCH  28  29
ENDBRANCH  20  23
ENDBRANCH   3  19
TORSDOF 8
ENDMDL
MODEL 9
REMARK VINA RESULT:      -7.0      1.011      1.236
REMARK  Name = 
REMARK  11 active torsions:
REMARK  status: ('A' for Active; 'I' for Inactive)
REMARK    1  A    between atoms: C_1  and  C_2
REMARK    2  A    between atoms: C_2  and  O_3
REMARK    3  A    between atoms: O_3  and  C_4
REMARK    4  A    between atoms: C_6  and  N_7
REMARK    5  A    between atoms: C_8  and  C_9
REMARK    6  A    between atoms: C_13  and  C_14
REMARK    7  A    between atoms: N_16  and  N_17
REMARK    8  A    between atoms: C_18  and  C_20
REMARK    9  A    between atoms: C_25  and  O_26
REMARK   10  A    between atoms: O_26  and  C_27
REMARK   11  A    between atoms: C_27  and  C_28
REMARK                            x       y       z     vdW  Elec       q    Type
REMARK                         _______ _______ _______ _____ _____    ______ ____
ROOT
ATOM      1  C   UNL     1       0.894   9.510  21.162  0.00  0.00    +0.000 C 
ATOM      2  O   UNL     1       1.516   8.923  22.051  0.00  0.00    +0.000 OA
ATOM      3  N   UNL     1       1.128   9.225  19.823  0.00  0.00    +0.000 N 
ATOM      4  H   UNL     1       0.715   9.746  19.055  0.00  0.00    +0.000 HD
ENDROOT
BRANCH   1  10
ATOM      5  C   UNL     1      -0.331  11.802  20.851  0.00  0.00    +0.000 A 
ATOM      6  C   UNL     1      -1.112  12.815  21.474  0.00  0.00    +0.000 A 
ATOM      7  C   UNL     1      -1.749  12.623  22.706  0.00  0.00    +0.000 A 
ATOM      8  C   UNL     1      -1.638  11.367  23.298  0.00  0.00    +0.000 A 
ATOM      9  C   UNL     1      -0.818  10.379  22.725  0.00  0.00    +0.000 A 
ATOM     10  C   UNL     1      -0.091  10.596  21.532  0.00  0.00    +0.000 A 
BRANCH   7  11
ATOM     11  N   UNL     1      -2.456  13.630  23.416  0.00  0.00    +0.000 N 
ATOM     12  C   UNL     1      -1.922  14.575  24.271  0.00  0.00    +0.000 C 
ATOM     13  C   UNL     1      -2.962  15.357  25.042  0.00  0.00    +0.000 C 
ATOM     14  O   UNL     1      -0.730  14.821  24.423  0.00  0.00    +0.000 OA
ATOM     15  H   UNL     1      -3.461  13.645  23.286  0.00  0.00    +0.000 HD
ENDBRANCH   7  11
BRANCH   5  16
ATOM     16  O   UNL     1       0.152  12.174  19.623  0.00  0.00    +0.000 OA
BRANCH  16  18
ATOM     17  C   UNL     1       1.389  14.099  18.725  0.00  0.00    +0.000 C 
ATOM     18  C   UNL     1       1.413  12.853  19.581  0.00  0.00    +0.000 C 
ENDBRANCH  16  18
ENDBRANCH   5  16
ENDBRANCH   1  10
BRANCH   3  19
ATOM     19  N   UNL     1       1.950   8.125  19.487  0.00  0.00    +0.000 N 
ATOM     20  C   UNL     1       2.467   7.960  18.199  0.00  0.00    +0.000 C 
ATOM     21  O   UNL     1       2.311   8.785  17.301  0.00  0.00    +0.000 OA
ATOM     22  H   UNL     1       2.038   7.424  20.217  0.00  0.00    +0.000 HD
BRANCH  20  23
ATOM     23  C   UNL     1       3.255   6.698  17.966  0.00  0.00    +0.000 A 
ATOM     24  C   UNL     1       4.412   6.771  17.163  0.00  0.00    +0.000 A 
ATOM     25  C   UNL     1       5.161   5.629  16.861  0.00  0.00    +0.000 A 
ATOM     26  C   UNL     1       4.799   4.401  17.395  0.00  0.00    +0.000 A 
ATOM     27  C   UNL     1       3.698   4.313  18.245  0.00  0.00    +0.000 A 
ATOM     28  C   UNL     1       2.908   5.445  18.517  0.00  0.00    +0.000 A 
BRANCH  28  29
ATOM     29  O   UNL     1       1.815   5.325  19.421  0.00  0.00    +0.000 OA
BRANCH  29  30
ATOM     30  C   UNL     1       1.765   4.305  20.380  0.00  0.00    +0.000 C 
ATOM     31  C   UNL     1       0.859   3.195  19.935  0.00  0.00    +0.000 C 
ATOM     32  O   UNL     1       2.331   4.300  21.470  0.00  0.00    +0.000 OA
ENDBRANCH  29  30
ENDBRANCH  28  29
ENDBRANCH  20  23
ENDBRANCH   3  19
TORSDOF 8
ENDMDL
