MODEL 1
REMARK VINA RESULT:      -7.9      0.000      0.000
REMARK  Name = 
REMARK  6 active torsions:
REMARK  status: ('A' for Active; 'I' for Inactive)
REMARK    1  A    between atoms: C_1  and  O_2
REMARK    2  A    between atoms: O_2  and  C_3
REMARK    3  A    between atoms: C_6  and  C_7
REMARK    4  A    between atoms: C_11  and  O_12
REMARK    5  A    between atoms: O_12  and  C_13
REMARK    6  A    between atoms: C_16  and  N_17
REMARK                            x       y       z     vdW  Elec       q    Type
REMARK                         _______ _______ _______ _____ _____    ______ ____
ROOT
ATOM      1  C   UNL     1       1.589   4.400  19.358  0.00  0.00    +0.000 A 
ATOM      2  C   UNL     1       1.587   5.083  20.572  0.00  0.00    +0.000 A 
ATOM      3  C   UNL     1       1.698   6.476  20.598  0.00  0.00    +0.000 A 
ATOM      4  C   UNL     1       1.840   7.203  19.417  0.00  0.00    +0.000 A 
ATOM      5  C   UNL     1       1.862   6.509  18.199  0.00  0.00    +0.000 A 
ATOM      6  C   UNL     1       1.750   5.112  18.170  0.00  0.00    +0.000 A 
ENDROOT
BRANCH   4   7
ATOM      7  N   UNL     1       1.937   8.613  19.397  0.00  0.00    +0.000 N 
ATOM      8  C   UNL     1       0.968   9.498  19.825  0.00  0.00    +0.000 C 
ATOM      9  O   UNL     1      -0.068   9.183  20.405  0.00  0.00    +0.000 OA
ATOM     10  N   UNL     1       1.251  10.824  19.582  0.00  0.00    +0.000 N 
ATOM     11  C   UNL     1       0.351  11.856  20.103  0.00  0.00    +0.000 C 
ATOM     12  C   UNL     1       0.911  13.122  19.547  0.00  0.00    +0.000 A 
ATOM     13  C   UNL     1       0.534  14.430  19.775  0.00  0.00    +0.000 A 
ATOM     14  C   UNL     1       1.244  15.407  19.093  0.00  0.00    +0.000 A 
ATOM     15  N   UNL     1       2.265  15.154  18.230  0.00  0.00    +0.000 NA
ATOM     16  C   UNL     1       2.608  13.860  18.034  0.00  0.00    +0.000 A 
ATOM     17  C   UNL     1       1.962  12.831  18.674  0.00  0.00    +0.000 A 
ATOM     18  C   UNL     1       2.190  11.361  18.595  0.00  0.00    +0.000 C 
ATOM     19  H   UNL     1       2.865   8.993  19.305  0.00  0.00    +0.000 HD
ENDBRANCH   4   7
BRANCH   1  20
ATOM     20  O   UNL     1       1.419   3.035  19.271  0.00  0.00    +0.000 OA
BRANCH  20  25
ATOM     21  C   UNL     1       4.928   3.668  17.586  0.00  0.00    +0.000 C 
ATOM     22  O   UNL     1       4.410   3.927  16.503  0.00  0.00    +0.000 OA
ATOM     23  N   UNL     1       4.432   2.689  18.428  0.00  0.00    +0.000 N 
ATOM     24  C   UNL     1       3.308   1.819  18.084  0.00  0.00    +0.000 C 
ATOM     25  C   UNL     1       2.628   2.234  19.395  0.00  0.00    +0.000 C 
ATOM     26  C   UNL     1       3.926   2.960  19.778  0.00  0.00    +0.000 C 
BRANCH  21  30
ATOM     27  C   UNL     1       6.657   6.899  16.563  0.00  0.00    +0.000 C 
ATOM     28  C   UNL     1       6.946   5.529  15.938  0.00  0.00    +0.000 C 
ATOM     29  C   UNL     1       7.266   4.451  16.978  0.00  0.00    +0.000 C 
ATOM     30  C   UNL     1       6.208   4.349  18.091  0.00  0.00    +0.000 C 
ATOM     31  C   UNL     1       5.922   5.731  18.694  0.00  0.00    +0.000 C 
ATOM     32  C   UNL     1       5.573   6.783  17.635  0.00  0.00    +0.000 C 
BRANCH  27  34
ATOM     33  C   UNL     1       7.628   8.784  17.672  0.00  0.00    +0.000 C 
ATOM     34  O   UNL     1       7.810   7.457  17.201  0.00  0.00    +0.000 OA
ENDBRANCH  27  34
ENDBRANCH  21  30
ENDBRANCH  20  25
ENDBRANCH   1  20
TORSDOF 5
ENDMDL
MODEL 2
REMARK VINA RESULT:      -7.4      3.654      9.781
REMARK  Name = 
REMARK  6 active torsions:
REMARK  status: ('A' for Active; 'I' for Inactive)
REMARK    1  A    between atoms: C_1  and  O_2
REMARK    2  A    between atoms: O_2  and  C_3
REMARK    3  A    between atoms: C_6  and  C_7
REMARK    4  A    between atoms: C_11  and  O_12
REMARK    5  A    between atoms: O_12  and  C_13
REMARK    6  A    between atoms: C_16  and  N_17
REMARK                            x       y       z     vdW  Elec       q    Type
REMARK                         _______ _______ _______ _____ _____    ______ ____
ROOT
ATOM      1  C   UNL     1      -0.801  11.995  22.433  0.00  0.00    +0.000 A 
ATOM      2  C   UNL     1       0.203  12.070  21.470  0.00  0.00    +0.000 A 
ATOM      3  C   UNL     1       0.882  10.917  21.069  0.00  0.00    +0.000 A 
ATOM      4  C   UNL     1       0.591   9.680  21.643  0.00  0.00    +0.000 A 
ATOM      5  C   UNL     1      -0.405   9.613  22.627  0.00  0.00    +0.000 A 
ATOM      6  C   UNL     1      -1.090  10.769  23.030  0.00  0.00    +0.000 A 
ENDROOT
BRANCH   4   7
ATOM      7  N   UNL     1       1.242   8.487  21.253  0.00  0.00    +0.000 N 
ATOM      8  C   UNL     1       1.641   8.163  19.973  0.00  0.00    +0.000 C 
ATOM      9  O   UNL     1       1.604   8.923  19.008  0.00  0.00    +0.000 OA
ATOM     10  N   UNL     1       2.139   6.886  19.831  0.00  0.00    +0.000 N 
ATOM     11  C   UNL     1       2.706   6.477  18.543  0.00  0.00    +0.000 C 
ATOM     12  C   UNL     1       3.019   5.032  18.742  0.00  0.00    +0.000 A 
ATOM     13  C   UNL     1       3.657   4.143  17.900  0.00  0.00    +0.000 A 
ATOM     14  C   UNL     1       3.791   2.842  18.362  0.00  0.00    +0.000 A 
ATOM     15  N   UNL     1       3.338   2.403  19.567  0.00  0.00    +0.000 NA
ATOM     16  C   UNL     1       2.720   3.304  20.365  0.00  0.00    +0.000 A 
ATOM     17  C   UNL     1       2.551   4.614  19.989  0.00  0.00    +0.000 A 
ATOM     18  C   UNL     1       1.909   5.743  20.717  0.00  0.00    +0.000 C 
ATOM     19  H   UNL     1       1.670   7.954  21.993  0.00  0.00    +0.000 HD
ENDBRANCH   4   7
BRANCH   1  20
ATOM     20  O   UNL     1      -1.546  13.089  22.819  0.00  0.00    +0.000 OA
BRANCH  20  25
ATOM     21  C   UNL     1      -2.523  12.066  19.138  0.00  0.00    +0.000 C 
ATOM     22  O   UNL     1      -1.483  12.535  18.685  0.00  0.00    +0.000 OA
ATOM     23  N   UNL     1      -3.210  12.659  20.182  0.00  0.00    +0.000 N 
ATOM     24  C   UNL     1      -2.819  13.931  20.788  0.00  0.00    +0.000 C 
ATOM     25  C   UNL     1      -2.834  13.245  22.160  0.00  0.00    +0.000 C 
ATOM     26  C   UNL     1      -3.438  12.010  21.477  0.00  0.00    +0.000 C 
BRANCH  21  30
ATOM     27  C   UNL     1      -3.495  11.124  15.582  0.00  0.00    +0.000 C 
ATOM     28  C   UNL     1      -4.409  11.874  16.558  0.00  0.00    +0.000 C 
ATOM     29  C   UNL     1      -4.555  11.167  17.909  0.00  0.00    +0.000 C 
ATOM     30  C   UNL     1      -3.206  10.818  18.560  0.00  0.00    +0.000 C 
ATOM     31  C   UNL     1      -2.300  10.080  17.564  0.00  0.00    +0.000 C 
ATOM     32  C   UNL     1      -2.144  10.825  16.233  0.00  0.00    +0.000 C 
BRANCH  27  34
ATOM     33  C   UNL     1      -4.196   9.716  13.778  0.00  0.00    +0.000 C 
ATOM     34  O   UNL     1      -4.048   9.865  15.183  0.00  0.00    +0.000 OA
ENDBRANCH  27  34
ENDBRANCH  21  30
ENDBRANCH  20  25
ENDBRANCH   1  20
TORSDOF 5
ENDMDL
MODEL 3
REMARK VINA RESULT:      -7.2      0.899      1.021
REMARK  Name = 
REMARK  6 active torsions:
REMARK  status: ('A' for Active; 'I' for Inactive)
REMARK    1  A    between atoms: C_1  and  O_2
REMARK    2  A    between atoms: O_2  and  C_3
REMARK    3  A    between atoms: C_6  and  C_7
REMARK    4  A    between atoms: C_11  and  O_12
REMARK    5  A    between atoms: O_12  and  C_13
REMARK    6  A    between atoms: C_16  and  N_17
REMARK                            x       y       z     vdW  Elec       q    Type
REMARK                         _______ _______ _______ _____ _____    ______ ____
ROOT
ATOM      1  C   UNL     1       1.747   5.534  19.378  0.00  0.00    +0.000 A 
ATOM      2  C   UNL     1       1.542   6.253  20.554  0.00  0.00    +0.000 A 
ATOM      3  C   UNL     1       1.602   7.649  20.547  0.00  0.00    +0.000 A 
ATOM      4  C   UNL     1       1.896   8.345  19.375  0.00  0.00    +0.000 A 
ATOM      5  C   UNL     1       2.123   7.617  18.199  0.00  0.00    +0.000 A 
ATOM      6  C   UNL     1       2.060   6.216  18.203  0.00  0.00    +0.000 A 
ENDROOT
BRANCH   4   7
ATOM      7  N   UNL     1       1.949   9.757  19.321  0.00  0.00    +0.000 N 
ATOM      8  C   UNL     1       0.864  10.608  19.300  0.00  0.00    +0.000 C 
ATOM      9  O   UNL     1      -0.306  10.265  19.457  0.00  0.00    +0.000 OA
ATOM     10  N   UNL     1       1.178  11.937  19.115  0.00  0.00    +0.000 N 
ATOM     11  C   UNL     1       0.115  12.943  19.200  0.00  0.00    +0.000 C 
ATOM     12  C   UNL     1       0.806  14.213  18.834  0.00  0.00    +0.000 A 
ATOM     13  C   UNL     1       0.330  15.509  18.833  0.00  0.00    +0.000 A 
ATOM     14  C   UNL     1       1.217  16.494  18.423  0.00  0.00    +0.000 A 
ATOM     15  N   UNL     1       2.497  16.259  18.029  0.00  0.00    +0.000 NA
ATOM     16  C   UNL     1       2.929  14.977  18.046  0.00  0.00    +0.000 A 
ATOM     17  C   UNL     1       2.119  13.942  18.445  0.00  0.00    +0.000 A 
ATOM     18  C   UNL     1       2.406  12.483  18.535  0.00  0.00    +0.000 C 
ATOM     19  H   UNL     1       2.830  10.177  19.570  0.00  0.00    +0.000 HD
ENDBRANCH   4   7
BRANCH   1  20
ATOM     20  O   UNL     1       1.636   4.162  19.315  0.00  0.00    +0.000 OA
BRANCH  20  25
ATOM     21  C   UNL     1       5.238   3.653  17.793  0.00  0.00    +0.000 C 
ATOM     22  O   UNL     1       4.782   3.431  16.675  0.00  0.00    +0.000 OA
ATOM     23  N   UNL     1       4.615   3.214  18.948  0.00  0.00    +0.000 N 
ATOM     24  C   UNL     1       3.412   2.383  18.951  0.00  0.00    +0.000 C 
ATOM     25  C   UNL     1       2.745   3.407  19.878  0.00  0.00    +0.000 C 
ATOM     26  C   UNL     1       4.104   4.114  19.987  0.00  0.00    +0.000 C 
BRANCH  21  30
ATOM     27  C   UNL     1       6.578   6.981  16.526  0.00  0.00    +0.000 C 
ATOM     28  C   UNL     1       6.776   5.640  15.809  0.00  0.00    +0.000 C 
ATOM     29  C   UNL     1       7.356   4.553  16.719  0.00  0.00    +0.000 C 
ATOM     30  C   UNL     1       6.571   4.377  18.030  0.00  0.00    +0.000 C 
ATOM     31  C   UNL     1       6.371   5.731  18.726  0.00  0.00    +0.000 C 
ATOM     32  C   UNL     1       5.759   6.792  17.803  0.00  0.00    +0.000 C 
BRANCH  27  34
ATOM     33  C   UNL     1       7.681   8.758  17.688  0.00  0.00    +0.000 C 
ATOM     34  O   UNL     1       7.821   7.574  16.916  0.00  0.00    +0.000 OA
ENDBRANCH  27  34
ENDBRANCH  21  30
ENDBRANCH  20  25
ENDBRANCH   1  20
TORSDOF 5
ENDMDL
MODEL 4
REMARK VINA RESULT:      -7.1      1.512      1.993
REMARK  Name = 
REMARK  6 active torsions:
REMARK  status: ('A' for Active; 'I' for Inactive)
REMARK    1  A    between atoms: C_1  and  O_2
REMARK    2  A    between atoms: O_2  and  C_3
REMARK    3  A    between atoms: C_6  and  C_7
REMARK    4  A    between atoms: C_11  and  O_12
REMARK    5  A    between atoms: O_12  and  C_13
REMARK    6  A    between atoms: C_16  and  N_17
REMARK                            x       y       z     vdW  Elec       q    Type
REMARK                         _______ _______ _______ _____ _____    ______ ____
ROOT
ATOM      1  C   UNL     1       2.322   3.474  20.433  0.00  0.00    +0.000 A 
ATOM      2  C   UNL     1       3.313   4.450  20.504  0.00  0.00    +0.000 A 
ATOM      3  C   UNL     1       2.971   5.805  20.486  0.00  0.00    +0.000 A 
ATOM      4  C   UNL     1       1.640   6.204  20.367  0.00  0.00    +0.000 A 
ATOM      5  C   UNL     1       0.648   5.218  20.274  0.00  0.00    +0.000 A 
ATOM      6  C   UNL     1       0.989   3.858  20.294  0.00  0.00    +0.000 A 
ENDROOT
BRANCH   4   7
ATOM      7  N   UNL     1       1.250   7.563  20.362  0.00  0.00    +0.000 N 
ATOM      8  C   UNL     1       1.553   8.489  19.385  0.00  0.00    +0.000 C 
ATOM      9  O   UNL     1       2.098   8.233  18.314  0.00  0.00    +0.000 OA
ATOM     10  N   UNL     1       1.167   9.780  19.676  0.00  0.00    +0.000 N 
ATOM     11  C   UNL     1       1.328  10.822  18.658  0.00  0.00    +0.000 C 
ATOM     12  C   UNL     1       0.922  12.069  19.368  0.00  0.00    +0.000 A 
ATOM     13  C   UNL     1       0.781  13.354  18.885  0.00  0.00    +0.000 A 
ATOM     14  C   UNL     1       0.398  14.322  19.802  0.00  0.00    +0.000 A 
ATOM     15  N   UNL     1       0.161  14.081  21.120  0.00  0.00    +0.000 NA
ATOM     16  C   UNL     1       0.306  12.809  21.556  0.00  0.00    +0.000 A 
ATOM     17  C   UNL     1       0.676  11.789  20.714  0.00  0.00    +0.000 A 
ATOM     18  C   UNL     1       0.883  10.342  20.998  0.00  0.00    +0.000 C 
ATOM     19  H   UNL     1       0.492   7.809  20.977  0.00  0.00    +0.000 HD
ENDBRANCH   4   7
BRANCH   1  20
ATOM     20  O   UNL     1       2.597   2.126  20.511  0.00  0.00    +0.000 OA
BRANCH  20  25
ATOM     21  C   UNL     1       3.869   3.877  17.215  0.00  0.00    +0.000 C 
ATOM     22  O   UNL     1       2.960   4.702  17.251  0.00  0.00    +0.000 OA
ATOM     23  N   UNL     1       3.686   2.558  17.589  0.00  0.00    +0.000 N 
ATOM     24  C   UNL     1       2.392   2.001  17.982  0.00  0.00    +0.000 C 
ATOM     25  C   UNL     1       3.040   1.494  19.277  0.00  0.00    +0.000 C 
ATOM     26  C   UNL     1       4.398   1.925  18.705  0.00  0.00    +0.000 C 
BRANCH  21  30
ATOM     27  C   UNL     1       5.924   7.078  17.259  0.00  0.00    +0.000 C 
ATOM     28  C   UNL     1       4.972   6.678  16.126  0.00  0.00    +0.000 C 
ATOM     29  C   UNL     1       5.236   5.268  15.589  0.00  0.00    +0.000 C 
ATOM     30  C   UNL     1       5.276   4.197  16.692  0.00  0.00    +0.000 C 
ATOM     31  C   UNL     1       6.224   4.621  17.824  0.00  0.00    +0.000 C 
ATOM     32  C   UNL     1       5.917   6.022  18.365  0.00  0.00    +0.000 C 
BRANCH  27  34
ATOM     33  C   UNL     1       8.077   8.066  17.600  0.00  0.00    +0.000 C 
ATOM     34  O   UNL     1       7.279   7.196  16.810  0.00  0.00    +0.000 OA
ENDBRANCH  27  34
ENDBRANCH  21  30
ENDBRANCH  20  25
ENDBRANCH   1  20
TORSDOF 5
ENDMDL
MODEL 5
REMARK VINA RESULT:      -7.1      1.360      1.688
REMARK  Name = 
REMARK  6 active torsions:
REMARK  status: ('A' for Active; 'I' for Inactive)
REMARK    1  A    between atoms: C_1  and  O_2
REMARK    2  A    between atoms: O_2  and  C_3
REMARK    3  A    between atoms: C_6  and  C_7
REMARK    4  A    between atoms: C_11  and  O_12
REMARK    5  A    between atoms: O_12  and  C_13
REMARK    6  A    between atoms: C_16  and  N_17
REMARK                            x       y       z     vdW  Elec       q    Type
REMARK                         _______ _______ _______ _____ _____    ______ ____
ROOT
ATOM      1  C   UNL     1       1.972   3.450  20.489  0.00  0.00    +0.000 A 
ATOM      2  C   UNL     1       0.746   4.039  20.185  0.00  0.00    +0.000 A 
ATOM      3  C   UNL     1       0.633   5.429  20.102  0.00  0.00    +0.000 A 
ATOM      4  C   UNL     1       1.732   6.251  20.348  0.00  0.00    +0.000 A 
ATOM      5  C   UNL     1       2.958   5.656  20.674  0.00  0.00    +0.000 A 
ATOM      6  C   UNL     1       3.075   4.261  20.756  0.00  0.00    +0.000 A 
ENDROOT
BRANCH   4   7
ATOM      7  N   UNL     1       1.664   7.660  20.258  0.00  0.00    +0.000 N 
ATOM      8  C   UNL     1       0.889   8.487  21.045  0.00  0.00    +0.000 C 
ATOM      9  O   UNL     1       0.243   8.125  22.026  0.00  0.00    +0.000 OA
ATOM     10  N   UNL     1       0.901   9.814  20.674  0.00  0.00    +0.000 N 
ATOM     11  C   UNL     1       0.212  10.798  21.513  0.00  0.00    +0.000 C 
ATOM     12  C   UNL     1       0.343  12.068  20.740  0.00  0.00    +0.000 A 
ATOM     13  C   UNL     1      -0.032  13.351  21.081  0.00  0.00    +0.000 A 
ATOM     14  C   UNL     1       0.208  14.338  20.136  0.00  0.00    +0.000 A 
ATOM     15  N   UNL     1       0.777  14.116  18.921  0.00  0.00    +0.000 NA
ATOM     16  C   UNL     1       1.134  12.845  18.623  0.00  0.00    +0.000 A 
ATOM     17  C   UNL     1       0.938  11.810  19.504  0.00  0.00    +0.000 A 
ATOM     18  C   UNL     1       1.260  10.362  19.365  0.00  0.00    +0.000 C 
ATOM     19  H   UNL     1       2.417   8.110  19.762  0.00  0.00    +0.000 HD
ENDBRANCH   4   7
BRANCH   1  20
ATOM     20  O   UNL     1       2.156   2.085  20.520  0.00  0.00    +0.000 OA
BRANCH  20  25
ATOM     21  C   UNL     1       3.730   3.866  17.374  0.00  0.00    +0.000 C 
ATOM     22  O   UNL     1       2.897   4.766  17.412  0.00  0.00    +0.000 OA
ATOM     23  N   UNL     1       3.415   2.552  17.673  0.00  0.00    +0.000 N 
ATOM     24  C   UNL     1       2.060   2.096  17.982  0.00  0.00    +0.000 C 
ATOM     25  C   UNL     1       2.599   1.474  19.276  0.00  0.00    +0.000 C 
ATOM     26  C   UNL     1       4.015   1.807  18.785  0.00  0.00    +0.000 C 
BRANCH  21  30
ATOM     27  C   UNL     1       5.875   7.000  17.149  0.00  0.00    +0.000 C 
ATOM     28  C   UNL     1       5.002   6.467  16.008  0.00  0.00    +0.000 C 
ATOM     29  C   UNL     1       5.263   4.991  15.691  0.00  0.00    +0.000 C 
ATOM     30  C   UNL     1       5.184   4.082  16.929  0.00  0.00    +0.000 C 
ATOM     31  C   UNL     1       6.053   4.639  18.066  0.00  0.00    +0.000 C 
ATOM     32  C   UNL     1       5.749   6.107  18.385  0.00  0.00    +0.000 C 
BRANCH  27  34
ATOM     33  C   UNL     1       8.038   7.931  17.576  0.00  0.00    +0.000 C 
ATOM     34  O   UNL     1       7.263   7.028  16.801  0.00  0.00    +0.000 OA
ENDBRANCH  27  34
ENDBRANCH  21  30
ENDBRANCH  20  25
ENDBRANCH   1  20
TORSDOF 5
ENDMDL
MODEL 6
REMARK VINA RESULT:      -7.0      3.192     10.461
REMARK  Name = 
REMARK  6 active torsions:
REMARK  status: ('A' for Active; 'I' for Inactive)
REMARK    1  A    between atoms: C_1  and  O_2
REMARK    2  A    between atoms: O_2  and  C_3
REMARK    3  A    between atoms: C_6  and  C_7
REMARK    4  A    between atoms: C_11  and  O_12
REMARK    5  A    between atoms: O_12  and  C_13
REMARK    6  A    between atoms: C_16  and  N_17
REMARK                            x       y       z     vdW  Elec       q    Type
REMARK                         _______ _______ _______ _____ _____    ______ ____
ROOT
ATOM      1  C   UNL     1      -0.625  11.596  22.514  0.00  0.00    +0.000 A 
ATOM      2  C   UNL     1       0.341  11.677  21.514  0.00  0.00    +0.000 A 
ATOM      3  C   UNL     1       0.996  10.525  21.071  0.00  0.00    +0.000 A 
ATOM      4  C   UNL     1       0.717   9.282  21.637  0.00  0.00    +0.000 A 
ATOM      5  C   UNL     1      -0.241   9.209  22.659  0.00  0.00    +0.000 A 
ATOM      6  C   UNL     1      -0.901  10.363  23.104  0.00  0.00    +0.000 A 
ENDROOT
BRANCH   4   7
ATOM      7  N   UNL     1       1.343   8.091  21.206  0.00  0.00    +0.000 N 
ATOM      8  C   UNL     1       1.776   7.821  19.924  0.00  0.00    +0.000 C 
ATOM      9  O   UNL     1       1.796   8.631  19.001  0.00  0.00    +0.000 OA
ATOM     10  N   UNL     1       2.238   6.537  19.730  0.00  0.00    +0.000 N 
ATOM     11  C   UNL     1       2.835   6.178  18.441  0.00  0.00    +0.000 C 
ATOM     12  C   UNL     1       3.095   4.715  18.572  0.00  0.00    +0.000 A 
ATOM     13  C   UNL     1       3.734   3.851  17.706  0.00  0.00    +0.000 A 
ATOM     14  C   UNL     1       3.811   2.523  18.101  0.00  0.00    +0.000 A 
ATOM     15  N   UNL     1       3.302   2.037  19.266  0.00  0.00    +0.000 NA
ATOM     16  C   UNL     1       2.686   2.915  20.090  0.00  0.00    +0.000 A 
ATOM     17  C   UNL     1       2.572   4.248  19.779  0.00  0.00    +0.000 A 
ATOM     18  C   UNL     1       1.941   5.358  20.546  0.00  0.00    +0.000 C 
ATOM     19  H   UNL     1       1.728   7.505  21.930  0.00  0.00    +0.000 HD
ENDBRANCH   4   7
BRANCH   1  20
ATOM     20  O   UNL     1      -1.346  12.689  22.944  0.00  0.00    +0.000 OA
BRANCH  20  25
ATOM     21  C   UNL     1      -1.414  16.027  20.844  0.00  0.00    +0.000 C 
ATOM     22  O   UNL     1      -1.014  16.687  21.799  0.00  0.00    +0.000 OA
ATOM     23  N   UNL     1      -2.294  14.970  20.992  0.00  0.00    +0.000 N 
ATOM     24  C   UNL     1      -2.893  14.588  22.271  0.00  0.00    +0.000 C 
ATOM     25  C   UNL     1      -2.389  13.157  22.043  0.00  0.00    +0.000 C 
ATOM     26  C   UNL     1      -1.969  13.586  20.630  0.00  0.00    +0.000 C 
BRANCH  21  30
ATOM     27  C   UNL     1       1.774  17.397  19.285  0.00  0.00    +0.000 C 
ATOM     28  C   UNL     1       0.608  18.265  19.772  0.00  0.00    +0.000 C 
ATOM     29  C   UNL     1      -0.743  17.836  19.194  0.00  0.00    +0.000 C 
ATOM     30  C   UNL     1      -1.038  16.339  19.389  0.00  0.00    +0.000 C 
ATOM     31  C   UNL     1       0.145  15.487  18.908  0.00  0.00    +0.000 C 
ATOM     32  C   UNL     1       1.480  15.916  19.527  0.00  0.00    +0.000 C 
BRANCH  27  34
ATOM     33  C   UNL     1       3.086  16.764  17.386  0.00  0.00    +0.000 C 
ATOM     34  O   UNL     1       2.009  17.546  17.880  0.00  0.00    +0.000 OA
ENDBRANCH  27  34
ENDBRANCH  21  30
ENDBRANCH  20  25
ENDBRANCH   1  20
TORSDOF 5
ENDMDL
MODEL 7
REMARK VINA RESULT:      -6.9      4.547     11.379
REMARK  Name = 
REMARK  6 active torsions:
REMARK  status: ('A' for Active; 'I' for Inactive)
REMARK    1  A    between atoms: C_1  and  O_2
REMARK    2  A    between atoms: O_2  and  C_3
REMARK    3  A    between atoms: C_6  and  C_7
REMARK    4  A    between atoms: C_11  and  O_12
REMARK    5  A    between atoms: O_12  and  C_13
REMARK    6  A    between atoms: C_16  and  N_17
REMARK                            x       y       z     vdW  Elec       q    Type
REMARK                         _______ _______ _______ _____ _____    ______ ____
ROOT
ATOM      1  C   UNL     1      -0.198   9.851  21.546  0.00  0.00    +0.000 A 
ATOM      2  C   UNL     1       0.644   8.844  22.013  0.00  0.00    +0.000 A 
ATOM      3  C   UNL     1       1.506   8.183  21.134  0.00  0.00    +0.000 A 
ATOM      4  C   UNL     1       1.521   8.496  19.776  0.00  0.00    +0.000 A 
ATOM      5  C   UNL     1       0.656   9.496  19.307  0.00  0.00    +0.000 A 
ATOM      6  C   UNL     1      -0.209  10.162  20.187  0.00  0.00    +0.000 A 
ENDROOT
BRANCH   4   7
ATOM      7  N   UNL     1       2.390   7.865  18.857  0.00  0.00    +0.000 N 
ATOM      8  C   UNL     1       2.548   6.503  18.697  0.00  0.00    +0.000 C 
ATOM      9  O   UNL     1       1.860   5.643  19.242  0.00  0.00    +0.000 OA
ATOM     10  N   UNL     1       3.551   6.139  17.825  0.00  0.00    +0.000 N 
ATOM     11  C   UNL     1       3.727   4.724  17.487  0.00  0.00    +0.000 C 
ATOM     12  C   UNL     1       4.952   4.718  16.636  0.00  0.00    +0.000 A 
ATOM     13  C   UNL     1       5.546   3.678  15.950  0.00  0.00    +0.000 A 
ATOM     14  C   UNL     1       6.703   3.980  15.248  0.00  0.00    +0.000 A 
ATOM     15  N   UNL     1       7.274   5.214  15.201  0.00  0.00    +0.000 NA
ATOM     16  C   UNL     1       6.662   6.209  15.884  0.00  0.00    +0.000 A 
ATOM     17  C   UNL     1       5.509   5.998  16.599  0.00  0.00    +0.000 A 
ATOM     18  C   UNL     1       4.694   6.951  17.404  0.00  0.00    +0.000 C 
ATOM     19  H   UNL     1       2.724   8.436  18.098  0.00  0.00    +0.000 HD
ENDBRANCH   4   7
BRANCH   1  20
ATOM     20  O   UNL     1      -1.021  10.579  22.378  0.00  0.00    +0.000 OA
BRANCH  20  25
ATOM     21  C   UNL     1      -3.877  13.298  22.410  0.00  0.00    +0.000 C 
ATOM     22  O   UNL     1      -4.557  12.657  21.614  0.00  0.00    +0.000 OA
ATOM     23  N   UNL     1      -2.498  13.359  22.326  0.00  0.00    +0.000 N 
ATOM     24  C   UNL     1      -1.725  12.742  21.248  0.00  0.00    +0.000 C 
ATOM     25  C   UNL     1      -0.879  12.025  22.308  0.00  0.00    +0.000 C 
ATOM     26  C   UNL     1      -1.598  12.864  23.374  0.00  0.00    +0.000 C 
BRANCH  21  30
ATOM     27  C   UNL     1      -5.994  16.459  22.348  0.00  0.00    +0.000 C 
ATOM     28  C   UNL     1      -4.462  16.446  22.399  0.00  0.00    +0.000 C 
ATOM     29  C   UNL     1      -3.906  15.577  23.531  0.00  0.00    +0.000 C 
ATOM     30  C   UNL     1      -4.480  14.149  23.537  0.00  0.00    +0.000 C 
ATOM     31  C   UNL     1      -6.014  14.182  23.471  0.00  0.00    +0.000 C 
ATOM     32  C   UNL     1      -6.543  15.032  22.310  0.00  0.00    +0.000 C 
BRANCH  27  34
ATOM     33  C   UNL     1      -7.917  17.500  23.320  0.00  0.00    +0.000 C 
ATOM     34  O   UNL     1      -6.568  17.092  23.496  0.00  0.00    +0.000 OA
ENDBRANCH  27  34
ENDBRANCH  21  30
ENDBRANCH  20  25
ENDBRANCH   1  20
TORSDOF 5
ENDMDL
MODEL 8
REMARK VINA RESULT:      -6.9      3.643     11.083
REMARK  Name = 
REMARK  6 active torsions:
REMARK  status: ('A' for Active; 'I' for Inactive)
REMARK    1  A    between atoms: C_1  and  O_2
REMARK    2  A    between atoms: O_2  and  C_3
REMARK    3  A    between atoms: C_6  and  C_7
REMARK    4  A    between atoms: C_11  and  O_12
REMARK    5  A    between atoms: O_12  and  C_13
REMARK    6  A    between atoms: C_16  and  N_17
REMARK                            x       y       z     vdW  Elec       q    Type
REMARK                         _______ _______ _______ _____ _____    ______ ____
ROOT
ATOM      1  C   UNL     1       0.837  12.963  18.781  0.00  0.00    +0.000 A 
ATOM      2  C   UNL     1      -0.201  12.050  18.950  0.00  0.00    +0.000 A 
ATOM      3  C   UNL     1       0.043  10.678  18.851  0.00  0.00    +0.000 A 
ATOM      4  C   UNL     1       1.319  10.199  18.554  0.00  0.00    +0.000 A 
ATOM      5  C   UNL     1       2.356  11.123  18.364  0.00  0.00    +0.000 A 
ATOM      6  C   UNL     1       2.114  12.500  18.465  0.00  0.00    +0.000 A 
ENDROOT
BRANCH   4   7
ATOM      7  N   UNL     1       1.613   8.820  18.462  0.00  0.00    +0.000 N 
ATOM      8  C   UNL     1       1.826   7.964  19.524  0.00  0.00    +0.000 C 
ATOM      9  O   UNL     1       1.663   8.253  20.707  0.00  0.00    +0.000 OA
ATOM     10  N   UNL     1       2.223   6.693  19.169  0.00  0.00    +0.000 N 
ATOM     11  C   UNL     1       2.358   5.669  20.208  0.00  0.00    +0.000 C 
ATOM     12  C   UNL     1       2.907   4.494  19.470  0.00  0.00    +0.000 A 
ATOM     13  C   UNL     1       3.151   3.209  19.913  0.00  0.00    +0.000 A 
ATOM     14  C   UNL     1       3.685   2.327  18.985  0.00  0.00    +0.000 A 
ATOM     15  N   UNL     1       3.978   2.650  17.697  0.00  0.00    +0.000 NA
ATOM     16  C   UNL     1       3.722   3.917  17.299  0.00  0.00    +0.000 A 
ATOM     17  C   UNL     1       3.187   4.853  18.151  0.00  0.00    +0.000 A 
ATOM     18  C   UNL     1       2.836   6.279  17.905  0.00  0.00    +0.000 C 
ATOM     19  H   UNL     1       1.402   8.379  17.582  0.00  0.00    +0.000 HD
ENDBRANCH   4   7
BRANCH   1  20
ATOM     20  O   UNL     1       0.666  14.323  18.931  0.00  0.00    +0.000 OA
BRANCH  20  25
ATOM     21  C   UNL     1      -2.088  14.975  21.678  0.00  0.00    +0.000 C 
ATOM     22  O   UNL     1      -2.841  15.498  20.862  0.00  0.00    +0.000 OA
ATOM     23  N   UNL     1      -0.716  15.148  21.637  0.00  0.00    +0.000 N 
ATOM     24  C   UNL     1      -0.039  16.024  20.681  0.00  0.00    +0.000 C 
ATOM     25  C   UNL     1       0.852  14.842  20.278  0.00  0.00    +0.000 C 
ATOM     26  C   UNL     1       0.235  14.049  21.439  0.00  0.00    +0.000 C 
BRANCH  21  30
ATOM     27  C   UNL     1      -5.413  13.253  22.351  0.00  0.00    +0.000 C 
ATOM     28  C   UNL     1      -5.084  14.691  22.769  0.00  0.00    +0.000 C 
ATOM     29  C   UNL     1      -3.779  14.802  23.564  0.00  0.00    +0.000 C 
ATOM     30  C   UNL     1      -2.584  14.134  22.863  0.00  0.00    +0.000 C 
ATOM     31  C   UNL     1      -2.937  12.701  22.440  0.00  0.00    +0.000 C 
ATOM     32  C   UNL     1      -4.228  12.622  21.618  0.00  0.00    +0.000 C 
BRANCH  27  34
ATOM     33  C   UNL     1      -7.037  12.497  23.938  0.00  0.00    +0.000 C 
ATOM     34  O   UNL     1      -5.696  12.414  23.476  0.00  0.00    +0.000 OA
ENDBRANCH  27  34
ENDBRANCH  21  30
ENDBRANCH  20  25
ENDBRANCH   1  20
TORSDOF 5
ENDMDL
MODEL 9
REMARK VINA RESULT:      -6.9      2.130      2.841
REMARK  Name = 
REMARK  6 active torsions:
REMARK  status: ('A' for Active; 'I' for Inactive)
REMARK    1  A    between atoms: C_1  and  O_2
REMARK    2  A    between atoms: O_2  and  C_3
REMARK    3  A    between atoms: C_6  and  C_7
REMARK    4  A    between atoms: C_11  and  O_12
REMARK    5  A    between atoms: O_12  and  C_13
REMARK    6  A    between atoms: C_16  and  N_17
REMARK                            x       y       z     vdW  Elec       q    Type
REMARK                         _______ _______ _______ _____ _____    ______ ____
ROOT
ATOM      1  C   UNL     1       2.463   2.833  20.214  0.00  0.00    +0.000 A 
ATOM      2  C   UNL     1       1.090   3.035  20.086  0.00  0.00    +0.000 A 
ATOM      3  C   UNL     1       0.540   4.299  20.310  0.00  0.00    +0.000 A 
ATOM      4  C   UNL     1       1.344   5.372  20.693  0.00  0.00    +0.000 A 
ATOM      5  C   UNL     1       2.722   5.159  20.842  0.00  0.00    +0.000 A 
ATOM      6  C   UNL     1       3.278   3.891  20.615  0.00  0.00    +0.000 A 
ENDROOT
BRANCH   4   7
ATOM      7  N   UNL     1       0.830   6.670  20.913  0.00  0.00    +0.000 N 
ATOM      8  C   UNL     1       1.333   7.841  20.384  0.00  0.00    +0.000 C 
ATOM      9  O   UNL     1       2.224   7.909  19.540  0.00  0.00    +0.000 OA
ATOM     10  N   UNL     1       0.732   8.989  20.852  0.00  0.00    +0.000 N 
ATOM     11  C   UNL     1       1.103  10.281  20.267  0.00  0.00    +0.000 C 
ATOM     12  C   UNL     1       0.351  11.267  21.095  0.00  0.00    +0.000 A 
ATOM     13  C   UNL     1       0.236  12.635  20.952  0.00  0.00    +0.000 A 
ATOM     14  C   UNL     1      -0.532  13.295  21.900  0.00  0.00    +0.000 A 
ATOM     15  N   UNL     1      -1.161  12.684  22.940  0.00  0.00    +0.000 NA
ATOM     16  C   UNL     1      -1.027  11.342  23.047  0.00  0.00    +0.000 A 
ATOM     17  C   UNL     1      -0.291  10.611  22.147  0.00  0.00    +0.000 A 
ATOM     18  C   UNL     1      -0.030   9.145  22.092  0.00  0.00    +0.000 C 
ATOM     19  H   UNL     1      -0.111   6.720  21.269  0.00  0.00    +0.000 HD
ENDBRANCH   4   7
BRANCH   1  20
ATOM     20  O   UNL     1       3.067   1.625  19.943  0.00  0.00    +0.000 OA
BRANCH  20  25
ATOM     21  C   UNL     1       3.972   4.169  17.069  0.00  0.00    +0.000 C 
ATOM     22  O   UNL     1       3.119   4.967  17.447  0.00  0.00    +0.000 OA
ATOM     23  N   UNL     1       3.775   2.800  17.110  0.00  0.00    +0.000 N 
ATOM     24  C   UNL     1       2.519   2.175  17.524  0.00  0.00    +0.000 C 
ATOM     25  C   UNL     1       3.309   1.336  18.537  0.00  0.00    +0.000 C 
ATOM     26  C   UNL     1       4.597   1.886  17.909  0.00  0.00    +0.000 C 
BRANCH  21  30
ATOM     27  C   UNL     1       6.095   7.291  17.535  0.00  0.00    +0.000 C 
ATOM     28  C   UNL     1       5.000   7.142  16.473  0.00  0.00    +0.000 C 
ATOM     29  C   UNL     1       5.160   5.881  15.618  0.00  0.00    +0.000 C 
ATOM     30  C   UNL     1       5.311   4.597  16.453  0.00  0.00    +0.000 C 
ATOM     31  C   UNL     1       6.402   4.770  17.519  0.00  0.00    +0.000 C 
ATOM     32  C   UNL     1       6.200   6.021  18.382  0.00  0.00    +0.000 C 
BRANCH  27  34
ATOM     33  C   UNL     1       8.200   8.422  17.673  0.00  0.00    +0.000 C 
ATOM     34  O   UNL     1       7.386   7.506  16.955  0.00  0.00    +0.000 OA
ENDBRANCH  27  34
ENDBRANCH  21  30
ENDBRANCH  20  25
ENDBRANCH   1  20
TORSDOF 5
ENDMDL
