MODEL 1
REMARK VINA RESULT:      -8.4      0.000      0.000
REMARK  Name = 
REMARK  8 active torsions:
REMARK  status: ('A' for Active; 'I' for Inactive)
REMARK    1  A    between atoms: C_1  and  C_2
REMARK    2  A    between atoms: C_11  and  O_12
REMARK    3  A    between atoms: O_12  and  C_13
REMARK    4  A    between atoms: C_16  and  C_17
REMARK    5  A    between atoms: N_19  and  CA_20
REMARK    6  A    between atoms: CA_20  and  CB_21
REMARK    7  A    between atoms: CA_20  and  C_22
REMARK    8  A    between atoms: C_22  and  OXT_24
REMARK                            x       y       z     vdW  Elec       q    Type
REMARK                         _______ _______ _______ _____ _____    ______ ____
ROOT
ATOM      1  C   UNK A   0       4.019   5.875  18.277  0.00  0.00    +0.000 A 
ATOM      2  C   UNK A   0       3.223   5.767  19.419  0.00  0.00    +0.000 A 
ATOM      3  C   UNK A   0       2.308   6.781  19.739  0.00  0.00    +0.000 A 
ATOM      4  C   UNK A   0       2.177   7.912  18.919  0.00  0.00    +0.000 A 
ATOM      5  C   UNK A   0       2.965   8.012  17.767  0.00  0.00    +0.000 A 
ATOM      6  C   UNK A   0       3.891   7.006  17.460  0.00  0.00    +0.000 A 
ENDROOT
BRANCH   4   7
ATOM      7  C   UNK A   0       1.271   9.015  19.360  0.00  0.00    +0.000 C 
ATOM      8  O   UNK A   0       1.167   9.286  20.551  0.00  0.00    +0.000 OA
ATOM      9  N   ALA A   1       0.576   9.696  18.386  0.00  0.00    +0.000 N 
ATOM     10  H   ALA A   1       0.559   9.365  17.427  0.00  0.00    +0.000 HD
BRANCH   9  11
ATOM     11  CA  ALA A   1      -0.305  10.816  18.711  0.00  0.00    +0.000 C 
ATOM     12  CB  ALA A   1       0.424  12.146  18.567  0.00  0.00    +0.000 C 
BRANCH  11  13
ATOM     13  C   ALA A   1      -1.512  10.791  17.771  0.00  0.00    +0.000 C 
ATOM     14  O   ALA A   1      -2.293   9.850  17.692  0.00  0.00    +0.000 OA
BRANCH  13  15
ATOM     15  OXT ALA A   1      -1.631  11.895  16.996  0.00  0.00    +0.000 OA
ATOM     16  HXT ALA A   1      -2.517  12.020  16.604  0.00  0.00    +0.000 HD
ENDBRANCH  13  15
ENDBRANCH  11  13
ENDBRANCH   9  11
ENDBRANCH   4   7
BRANCH   1  17
ATOM     17  O   UNK A   0       4.973   4.894  18.073  0.00  0.00    +0.000 OA
BRANCH  17  28
ATOM     18  C   UNK A   0       7.453   6.407  17.892  0.00  0.00    +0.000 C 
ATOM     19  C   UNK A   0       6.859   5.623  16.764  0.00  0.00    +0.000 A 
ATOM     20  N   UNK A   0       7.538   5.685  15.586  0.00  0.00    +0.000 NA
ATOM     21  C   UNK A   0       7.023   5.008  14.543  0.00  0.00    +0.000 A 
ATOM     22  C   UNK A   0       7.653   5.057  13.306  0.00  0.00    +0.000 A 
ATOM     23  C   UNK A   0       7.136   4.376  12.202  0.00  0.00    +0.000 A 
ATOM     24  C   UNK A   0       5.970   3.634  12.337  0.00  0.00    +0.000 A 
ATOM     25  C   UNK A   0       5.331   3.577  13.574  0.00  0.00    +0.000 A 
ATOM     26  C   UNK A   0       5.836   4.253  14.677  0.00  0.00    +0.000 A 
ATOM     27  N   UNK A   0       5.174   4.190  15.838  0.00  0.00    +0.000 NA
ATOM     28  C   UNK A   0       5.669   4.903  16.874  0.00  0.00    +0.000 A 
ENDBRANCH  17  28
ENDBRANCH   1  17
TORSDOF 6
ENDMDL
MODEL 2
REMARK VINA RESULT:      -8.3      1.976      9.068
REMARK  Name = 
REMARK  8 active torsions:
REMARK  status: ('A' for Active; 'I' for Inactive)
REMARK    1  A    between atoms: C_1  and  C_2
REMARK    2  A    between atoms: C_11  and  O_12
REMARK    3  A    between atoms: O_12  and  C_13
REMARK    4  A    between atoms: C_16  and  C_17
REMARK    5  A    between atoms: N_19  and  CA_20
REMARK    6  A    between atoms: CA_20  and  CB_21
REMARK    7  A    between atoms: CA_20  and  C_22
REMARK    8  A    between atoms: C_22  and  OXT_24
REMARK                            x       y       z     vdW  Elec       q    Type
REMARK                         _______ _______ _______ _____ _____    ______ ____
ROOT
ATOM      1  C   UNK A   0       1.619   9.005  19.349  0.00  0.00    +0.000 A 
ATOM      2  C   UNK A   0       2.181   8.957  18.072  0.00  0.00    +0.000 A 
ATOM      3  C   UNK A   0       2.809   7.785  17.623  0.00  0.00    +0.000 A 
ATOM      4  C   UNK A   0       2.878   6.649  18.444  0.00  0.00    +0.000 A 
ATOM      5  C   UNK A   0       2.301   6.696  19.718  0.00  0.00    +0.000 A 
ATOM      6  C   UNK A   0       1.691   7.873  20.171  0.00  0.00    +0.000 A 
ENDROOT
BRANCH   4   7
ATOM      7  C   UNK A   0       3.652   5.466  17.964  0.00  0.00    +0.000 C 
ATOM      8  O   UNK A   0       3.482   4.368  18.484  0.00  0.00    +0.000 OA
ATOM      9  N   ALA A   1       4.544   5.663  16.934  0.00  0.00    +0.000 N 
ATOM     10  H   ALA A   1       4.781   6.598  16.618  0.00  0.00    +0.000 HD
BRANCH   9  11
ATOM     11  CA  ALA A   1       5.321   4.561  16.368  0.00  0.00    +0.000 C 
ATOM     12  CB  ALA A   1       5.565   4.773  14.879  0.00  0.00    +0.000 C 
BRANCH  11  13
ATOM     13  C   ALA A   1       6.662   4.469  17.098  0.00  0.00    +0.000 C 
ATOM     14  O   ALA A   1       7.740   4.730  16.577  0.00  0.00    +0.000 OA
BRANCH  13  15
ATOM     15  OXT ALA A   1       6.565   4.036  18.378  0.00  0.00    +0.000 OA
ATOM     16  HXT ALA A   1       5.656   4.037  18.737  0.00  0.00    +0.000 HD
ENDBRANCH  13  15
ENDBRANCH  11  13
ENDBRANCH   9  11
ENDBRANCH   4   7
BRANCH   1  17
ATOM     17  O   UNK A   0       1.107  10.220  19.771  0.00  0.00    +0.000 OA
BRANCH  17  28
ATOM     18  C   UNK A   0      -0.541  11.982  21.400  0.00  0.00    +0.000 C 
ATOM     19  C   UNK A   0      -0.951  11.439  20.066  0.00  0.00    +0.000 A 
ATOM     20  N   UNK A   0      -2.198  11.787  19.649  0.00  0.00    +0.000 NA
ATOM     21  C   UNK A   0      -2.608  11.301  18.462  0.00  0.00    +0.000 A 
ATOM     22  C   UNK A   0      -3.882  11.596  17.996  0.00  0.00    +0.000 A 
ATOM     23  C   UNK A   0      -4.340  11.096  16.775  0.00  0.00    +0.000 A 
ATOM     24  C   UNK A   0      -3.511  10.288  16.008  0.00  0.00    +0.000 A 
ATOM     25  C   UNK A   0      -2.229   9.988  16.467  0.00  0.00    +0.000 A 
ATOM     26  C   UNK A   0      -1.766  10.478  17.681  0.00  0.00    +0.000 A 
ATOM     27  N   UNK A   0      -0.538  10.142  18.092  0.00  0.00    +0.000 NA
ATOM     28  C   UNK A   0      -0.143  10.596  19.302  0.00  0.00    +0.000 A 
ENDBRANCH  17  28
ENDBRANCH   1  17
TORSDOF 6
ENDMDL
MODEL 3
REMARK VINA RESULT:      -8.3      1.447      1.903
REMARK  Name = 
REMARK  8 active torsions:
REMARK  status: ('A' for Active; 'I' for Inactive)
REMARK    1  A    between atoms: C_1  and  C_2
REMARK    2  A    between atoms: C_11  and  O_12
REMARK    3  A    between atoms: O_12  and  C_13
REMARK    4  A    between atoms: C_16  and  C_17
REMARK    5  A    between atoms: N_19  and  CA_20
REMARK    6  A    between atoms: CA_20  and  CB_21
REMARK    7  A    between atoms: CA_20  and  C_22
REMARK    8  A    between atoms: C_22  and  OXT_24
REMARK                            x       y       z     vdW  Elec       q    Type
REMARK                         _______ _______ _______ _____ _____    ______ ____
ROOT
ATOM      1  C   UNK A   0       4.072   6.062  18.216  0.00  0.00    +0.000 A 
ATOM      2  C   UNK A   0       3.263   5.978  19.351  0.00  0.00    +0.000 A 
ATOM      3  C   UNK A   0       2.300   6.965  19.605  0.00  0.00    +0.000 A 
ATOM      4  C   UNK A   0       2.131   8.045  18.725  0.00  0.00    +0.000 A 
ATOM      5  C   UNK A   0       2.932   8.120  17.580  0.00  0.00    +0.000 A 
ATOM      6  C   UNK A   0       3.907   7.141  17.339  0.00  0.00    +0.000 A 
ENDROOT
BRANCH   4   7
ATOM      7  C   UNK A   0       1.171   9.127  19.095  0.00  0.00    +0.000 C 
ATOM      8  O   UNK A   0       0.520   9.695  18.224  0.00  0.00    +0.000 OA
ATOM      9  N   ALA A   1       1.055   9.447  20.429  0.00  0.00    +0.000 N 
ATOM     10  H   ALA A   1       1.704   9.075  21.115  0.00  0.00    +0.000 HD
BRANCH   9  11
ATOM     11  CA  ALA A   1       0.115  10.464  20.897  0.00  0.00    +0.000 C 
ATOM     12  CB  ALA A   1      -0.186  10.290  22.380  0.00  0.00    +0.000 C 
BRANCH  11  13
ATOM     13  C   ALA A   1       0.718  11.850  20.657  0.00  0.00    +0.000 C 
ATOM     14  O   ALA A   1       1.510  12.388  21.421  0.00  0.00    +0.000 OA
BRANCH  13  15
ATOM     15  OXT ALA A   1       0.274  12.458  19.531  0.00  0.00    +0.000 OA
ATOM     16  HXT ALA A   1       0.914  13.075  19.126  0.00  0.00    +0.000 HD
ENDBRANCH  13  15
ENDBRANCH  11  13
ENDBRANCH   9  11
ENDBRANCH   4   7
BRANCH   1  17
ATOM     17  O   UNK A   0       5.071   5.115  18.077  0.00  0.00    +0.000 OA
BRANCH  17  28
ATOM     18  C   UNK A   0       7.566   6.578  17.754  0.00  0.00    +0.000 C 
ATOM     19  C   UNK A   0       6.935   5.742  16.685  0.00  0.00    +0.000 A 
ATOM     20  N   UNK A   0       7.585   5.727  15.490  0.00  0.00    +0.000 NA
ATOM     21  C   UNK A   0       7.036   5.001  14.499  0.00  0.00    +0.000 A 
ATOM     22  C   UNK A   0       7.636   4.971  13.247  0.00  0.00    +0.000 A 
ATOM     23  C   UNK A   0       7.083   4.238  12.195  0.00  0.00    +0.000 A 
ATOM     24  C   UNK A   0       5.911   3.522  12.399  0.00  0.00    +0.000 A 
ATOM     25  C   UNK A   0       5.301   3.544  13.652  0.00  0.00    +0.000 A 
ATOM     26  C   UNK A   0       5.842   4.273  14.704  0.00  0.00    +0.000 A 
ATOM     27  N   UNK A   0       5.208   4.285  15.881  0.00  0.00    +0.000 NA
ATOM     28  C   UNK A   0       5.738   5.047  16.863  0.00  0.00    +0.000 A 
ENDBRANCH  17  28
ENDBRANCH   1  17
TORSDOF 6
ENDMDL
MODEL 4
REMARK VINA RESULT:      -8.3      5.068      7.664
REMARK  Name = 
REMARK  8 active torsions:
REMARK  status: ('A' for Active; 'I' for Inactive)
REMARK    1  A    between atoms: C_1  and  C_2
REMARK    2  A    between atoms: C_11  and  O_12
REMARK    3  A    between atoms: O_12  and  C_13
REMARK    4  A    between atoms: C_16  and  C_17
REMARK    5  A    between atoms: N_19  and  CA_20
REMARK    6  A    between atoms: CA_20  and  CB_21
REMARK    7  A    between atoms: CA_20  and  C_22
REMARK    8  A    between atoms: C_22  and  OXT_24
REMARK                            x       y       z     vdW  Elec       q    Type
REMARK                         _______ _______ _______ _____ _____    ______ ____
ROOT
ATOM      1  C   UNK A   0       7.326   5.443  18.036  0.00  0.00    +0.000 A 
ATOM      2  C   UNK A   0       7.036   6.332  16.999  0.00  0.00    +0.000 A 
ATOM      3  C   UNK A   0       7.452   7.669  17.080  0.00  0.00    +0.000 A 
ATOM      4  C   UNK A   0       8.165   8.131  18.197  0.00  0.00    +0.000 A 
ATOM      5  C   UNK A   0       8.467   7.235  19.229  0.00  0.00    +0.000 A 
ATOM      6  C   UNK A   0       8.034   5.904  19.153  0.00  0.00    +0.000 A 
ENDROOT
BRANCH   4   7
ATOM      7  C   UNK A   0       8.488   9.586  18.288  0.00  0.00    +0.000 C 
ATOM      8  O   UNK A   0       7.970  10.381  17.512  0.00  0.00    +0.000 OA
ATOM      9  N   ALA A   1       9.375   9.981  19.264  0.00  0.00    +0.000 N 
ATOM     10  H   ALA A   1       9.906   9.299  19.797  0.00  0.00    +0.000 HD
BRANCH   9  11
ATOM     11  CA  ALA A   1       9.727  11.386  19.460  0.00  0.00    +0.000 C 
ATOM     12  CB  ALA A   1       9.991  11.684  20.931  0.00  0.00    +0.000 C 
BRANCH  11  13
ATOM     13  C   ALA A   1      10.979  11.706  18.642  0.00  0.00    +0.000 C 
ATOM     14  O   ALA A   1      10.951  12.109  17.485  0.00  0.00    +0.000 OA
BRANCH  13  15
ATOM     15  OXT ALA A   1      12.142  11.474  19.298  0.00  0.00    +0.000 OA
ATOM     16  HXT ALA A   1      12.624  10.681  18.995  0.00  0.00    +0.000 HD
ENDBRANCH  13  15
ENDBRANCH  11  13
ENDBRANCH   9  11
ENDBRANCH   4   7
BRANCH   1  17
ATOM     17  O   UNK A   0       6.799   4.166  17.943  0.00  0.00    +0.000 OA
BRANCH  17  28
ATOM     18  C   UNK A   0       5.111   3.883  15.589  0.00  0.00    +0.000 C 
ATOM     19  C   UNK A   0       4.602   3.878  16.997  0.00  0.00    +0.000 A 
ATOM     20  N   UNK A   0       3.252   3.771  17.134  0.00  0.00    +0.000 NA
ATOM     21  C   UNK A   0       2.758   3.782  18.385  0.00  0.00    +0.000 A 
ATOM     22  C   UNK A   0       1.386   3.708  18.588  0.00  0.00    +0.000 A 
ATOM     23  C   UNK A   0       0.842   3.730  19.874  0.00  0.00    +0.000 A 
ATOM     24  C   UNK A   0       1.683   3.829  20.974  0.00  0.00    +0.000 A 
ATOM     25  C   UNK A   0       3.061   3.903  20.781  0.00  0.00    +0.000 A 
ATOM     26  C   UNK A   0       3.612   3.884  19.506  0.00  0.00    +0.000 A 
ATOM     27  N   UNK A   0       4.939   3.983  19.369  0.00  0.00    +0.000 NA
ATOM     28  C   UNK A   0       5.432   4.014  18.111  0.00  0.00    +0.000 A 
ENDBRANCH  17  28
ENDBRANCH   1  17
TORSDOF 6
ENDMDL
MODEL 5
REMARK VINA RESULT:      -8.2      5.189      7.690
REMARK  Name = 
REMARK  8 active torsions:
REMARK  status: ('A' for Active; 'I' for Inactive)
REMARK    1  A    between atoms: C_1  and  C_2
REMARK    2  A    between atoms: C_11  and  O_12
REMARK    3  A    between atoms: O_12  and  C_13
REMARK    4  A    between atoms: C_16  and  C_17
REMARK    5  A    between atoms: N_19  and  CA_20
REMARK    6  A    between atoms: CA_20  and  CB_21
REMARK    7  A    between atoms: CA_20  and  C_22
REMARK    8  A    between atoms: C_22  and  OXT_24
REMARK                            x       y       z     vdW  Elec       q    Type
REMARK                         _______ _______ _______ _____ _____    ______ ____
ROOT
ATOM      1  C   UNK A   0       7.158   5.829  18.100  0.00  0.00    +0.000 A 
ATOM      2  C   UNK A   0       8.070   6.209  19.087  0.00  0.00    +0.000 A 
ATOM      3  C   UNK A   0       8.495   7.542  19.178  0.00  0.00    +0.000 A 
ATOM      4  C   UNK A   0       8.011   8.512  18.286  0.00  0.00    +0.000 A 
ATOM      5  C   UNK A   0       7.086   8.132  17.307  0.00  0.00    +0.000 A 
ATOM      6  C   UNK A   0       6.677   6.795  17.207  0.00  0.00    +0.000 A 
ENDROOT
BRANCH   4   7
ATOM      7  C   UNK A   0       8.577   9.892  18.352  0.00  0.00    +0.000 C 
ATOM      8  O   UNK A   0       8.304  10.710  17.481  0.00  0.00    +0.000 OA
ATOM      9  N   ALA A   1       9.398  10.193  19.415  0.00  0.00    +0.000 N 
ATOM     10  H   ALA A   1       9.731   9.467  20.042  0.00  0.00    +0.000 HD
BRANCH   9  11
ATOM     11  CA  ALA A   1       9.970  11.527  19.591  0.00  0.00    +0.000 C 
ATOM     12  CB  ALA A   1       9.917  11.956  21.052  0.00  0.00    +0.000 C 
BRANCH  11  13
ATOM     13  C   ALA A   1      11.424  11.514  19.115  0.00  0.00    +0.000 C 
ATOM     14  O   ALA A   1      11.752  11.510  17.935  0.00  0.00    +0.000 OA
BRANCH  13  15
ATOM     15  OXT ALA A   1      12.333  11.473  20.118  0.00  0.00    +0.000 OA
ATOM     16  HXT ALA A   1      12.243  12.190  20.775  0.00  0.00    +0.000 HD
ENDBRANCH  13  15
ENDBRANCH  11  13
ENDBRANCH   9  11
ENDBRANCH   4   7
BRANCH   1  17
ATOM     17  O   UNK A   0       6.858   4.482  17.998  0.00  0.00    +0.000 OA
BRANCH  17  28
ATOM     18  C   UNK A   0       5.360   3.945  15.561  0.00  0.00    +0.000 C 
ATOM     19  C   UNK A   0       4.789   3.843  16.940  0.00  0.00    +0.000 A 
ATOM     20  N   UNK A   0       3.470   3.513  17.008  0.00  0.00    +0.000 NA
ATOM     21  C   UNK A   0       2.918   3.431  18.233  0.00  0.00    +0.000 A 
ATOM     22  C   UNK A   0       1.569   3.128  18.365  0.00  0.00    +0.000 A 
ATOM     23  C   UNK A   0       0.965   3.049  19.621  0.00  0.00    +0.000 A 
ATOM     24  C   UNK A   0       1.722   3.275  20.764  0.00  0.00    +0.000 A 
ATOM     25  C   UNK A   0       3.077   3.578  20.641  0.00  0.00    +0.000 A 
ATOM     26  C   UNK A   0       3.686   3.662  19.395  0.00  0.00    +0.000 A 
ATOM     27  N   UNK A   0       4.984   3.981  19.327  0.00  0.00    +0.000 NA
ATOM     28  C   UNK A   0       5.527   4.104  18.096  0.00  0.00    +0.000 A 
ENDBRANCH  17  28
ENDBRANCH   1  17
TORSDOF 6
ENDMDL
MODEL 6
REMARK VINA RESULT:      -8.1      1.910      3.376
REMARK  Name = 
REMARK  8 active torsions:
REMARK  status: ('A' for Active; 'I' for Inactive)
REMARK    1  A    between atoms: C_1  and  C_2
REMARK    2  A    between atoms: C_11  and  O_12
REMARK    3  A    between atoms: O_12  and  C_13
REMARK    4  A    between atoms: C_16  and  C_17
REMARK    5  A    between atoms: N_19  and  CA_20
REMARK    6  A    between atoms: CA_20  and  CB_21
REMARK    7  A    between atoms: CA_20  and  C_22
REMARK    8  A    between atoms: C_22  and  OXT_24
REMARK                            x       y       z     vdW  Elec       q    Type
REMARK                         _______ _______ _______ _____ _____    ______ ____
ROOT
ATOM      1  C   UNK A   0       2.325   7.491  19.477  0.00  0.00    +0.000 A 
ATOM      2  C   UNK A   0       2.265   7.961  18.163  0.00  0.00    +0.000 A 
ATOM      3  C   UNK A   0       1.422   9.033  17.836  0.00  0.00    +0.000 A 
ATOM      4  C   UNK A   0       0.633   9.650  18.819  0.00  0.00    +0.000 A 
ATOM      5  C   UNK A   0       0.706   9.187  20.138  0.00  0.00    +0.000 A 
ATOM      6  C   UNK A   0       1.535   8.104  20.458  0.00  0.00    +0.000 A 
ENDROOT
BRANCH   4   7
ATOM      7  C   UNK A   0      -0.329  10.713  18.402  0.00  0.00    +0.000 C 
ATOM      8  O   UNK A   0      -0.199  11.859  18.820  0.00  0.00    +0.000 OA
ATOM      9  N   ALA A   1      -1.344  10.353  17.545  0.00  0.00    +0.000 N 
ATOM     10  H   ALA A   1      -1.525   9.377  17.329  0.00  0.00    +0.000 HD
BRANCH   9  11
ATOM     11  CA  ALA A   1      -2.314  11.327  17.048  0.00  0.00    +0.000 C 
ATOM     12  CB  ALA A   1      -2.816  10.941  15.662  0.00  0.00    +0.000 C 
BRANCH  11  13
ATOM     13  C   ALA A   1      -3.494  11.397  18.018  0.00  0.00    +0.000 C 
ATOM     14  O   ALA A   1      -4.502  10.708  17.914  0.00  0.00    +0.000 OA
BRANCH  13  15
ATOM     15  OXT ALA A   1      -3.348  12.321  18.998  0.00  0.00    +0.000 OA
ATOM     16  HXT ALA A   1      -2.483  12.296  19.451  0.00  0.00    +0.000 HD
ENDBRANCH  13  15
ENDBRANCH  11  13
ENDBRANCH   9  11
ENDBRANCH   4   7
BRANCH   1  17
ATOM     17  O   UNK A   0       3.096   6.366  19.713  0.00  0.00    +0.000 OA
BRANCH  17  28
ATOM     18  C   UNK A   0       1.641   4.150  18.512  0.00  0.00    +0.000 C 
ATOM     19  C   UNK A   0       2.967   4.648  18.029  0.00  0.00    +0.000 A 
ATOM     20  N   UNK A   0       3.507   3.963  16.984  0.00  0.00    +0.000 NA
ATOM     21  C   UNK A   0       4.709   4.371  16.536  0.00  0.00    +0.000 A 
ATOM     22  C   UNK A   0       5.325   3.693  15.492  0.00  0.00    +0.000 A 
ATOM     23  C   UNK A   0       6.577   4.084  15.014  0.00  0.00    +0.000 A 
ATOM     24  C   UNK A   0       7.224   5.170  15.589  0.00  0.00    +0.000 A 
ATOM     25  C   UNK A   0       6.613   5.857  16.637  0.00  0.00    +0.000 A 
ATOM     26  C   UNK A   0       5.369   5.475  17.121  0.00  0.00    +0.000 A 
ATOM     27  N   UNK A   0       4.834   6.149  18.145  0.00  0.00    +0.000 NA
ATOM     28  C   UNK A   0       3.646   5.714  18.621  0.00  0.00    +0.000 A 
ENDBRANCH  17  28
ENDBRANCH   1  17
TORSDOF 6
ENDMDL
MODEL 7
REMARK VINA RESULT:      -8.1      2.064      9.072
REMARK  Name = 
REMARK  8 active torsions:
REMARK  status: ('A' for Active; 'I' for Inactive)
REMARK    1  A    between atoms: C_1  and  C_2
REMARK    2  A    between atoms: C_11  and  O_12
REMARK    3  A    between atoms: O_12  and  C_13
REMARK    4  A    between atoms: C_16  and  C_17
REMARK    5  A    between atoms: N_19  and  CA_20
REMARK    6  A    between atoms: CA_20  and  CB_21
REMARK    7  A    between atoms: CA_20  and  C_22
REMARK    8  A    between atoms: C_22  and  OXT_24
REMARK                            x       y       z     vdW  Elec       q    Type
REMARK                         _______ _______ _______ _____ _____    ______ ____
ROOT
ATOM      1  C   UNK A   0       1.356   9.234  19.552  0.00  0.00    +0.000 A 
ATOM      2  C   UNK A   0       1.561   8.060  20.280  0.00  0.00    +0.000 A 
ATOM      3  C   UNK A   0       2.249   6.983  19.701  0.00  0.00    +0.000 A 
ATOM      4  C   UNK A   0       2.744   7.070  18.391  0.00  0.00    +0.000 A 
ATOM      5  C   UNK A   0       2.551   8.253  17.669  0.00  0.00    +0.000 A 
ATOM      6  C   UNK A   0       1.847   9.320  18.243  0.00  0.00    +0.000 A 
ENDROOT
BRANCH   4   7
ATOM      7  C   UNK A   0       3.372   5.860  17.781  0.00  0.00    +0.000 C 
ATOM      8  O   UNK A   0       2.788   4.783  17.812  0.00  0.00    +0.000 OA
ATOM      9  N   ALA A   1       4.609   6.012  17.195  0.00  0.00    +0.000 N 
ATOM     10  H   ALA A   1       5.140   6.869  17.308  0.00  0.00    +0.000 HD
BRANCH   9  11
ATOM     11  CA  ALA A   1       5.289   4.898  16.536  0.00  0.00    +0.000 C 
ATOM     12  CB  ALA A   1       5.614   5.236  15.086  0.00  0.00    +0.000 C 
BRANCH  11  13
ATOM     13  C   ALA A   1       6.584   4.588  17.291  0.00  0.00    +0.000 C 
ATOM     14  O   ALA A   1       7.701   4.849  16.861  0.00  0.00    +0.000 OA
BRANCH  13  15
ATOM     15  OXT ALA A   1       6.395   3.961  18.476  0.00  0.00    +0.000 OA
ATOM     16  HXT ALA A   1       5.987   3.076  18.405  0.00  0.00    +0.000 HD
ENDBRANCH  13  15
ENDBRANCH  11  13
ENDBRANCH   9  11
ENDBRANCH   4   7
BRANCH   1  17
ATOM     17  O   UNK A   0       0.581  10.218  20.141  0.00  0.00    +0.000 OA
BRANCH  17  28
ATOM     18  C   UNK A   0      -1.155  12.186  21.400  0.00  0.00    +0.000 C 
ATOM     19  C   UNK A   0      -1.414  11.566  20.063  0.00  0.00    +0.000 A 
ATOM     20  N   UNK A   0      -2.570  11.947  19.453  0.00  0.00    +0.000 NA
ATOM     21  C   UNK A   0      -2.846  11.395  18.257  0.00  0.00    +0.000 A 
ATOM     22  C   UNK A   0      -4.024  11.722  17.599  0.00  0.00    +0.000 A 
ATOM     23  C   UNK A   0      -4.345  11.155  16.364  0.00  0.00    +0.000 A 
ATOM     24  C   UNK A   0      -3.473  10.248  15.777  0.00  0.00    +0.000 A 
ATOM     25  C   UNK A   0      -2.287   9.915  16.429  0.00  0.00    +0.000 A 
ATOM     26  C   UNK A   0      -1.961  10.471  17.659  0.00  0.00    +0.000 A 
ATOM     27  N   UNK A   0      -0.823  10.101  18.259  0.00  0.00    +0.000 NA
ATOM     28  C   UNK A   0      -0.567  10.624  19.478  0.00  0.00    +0.000 A 
ENDBRANCH  17  28
ENDBRANCH   1  17
TORSDOF 6
ENDMDL
MODEL 8
REMARK VINA RESULT:      -8.0      1.355      2.029
REMARK  Name = 
REMARK  8 active torsions:
REMARK  status: ('A' for Active; 'I' for Inactive)
REMARK    1  A    between atoms: C_1  and  C_2
REMARK    2  A    between atoms: C_11  and  O_12
REMARK    3  A    between atoms: O_12  and  C_13
REMARK    4  A    between atoms: C_16  and  C_17
REMARK    5  A    between atoms: N_19  and  CA_20
REMARK    6  A    between atoms: CA_20  and  CB_21
REMARK    7  A    between atoms: CA_20  and  C_22
REMARK    8  A    between atoms: C_22  and  OXT_24
REMARK                            x       y       z     vdW  Elec       q    Type
REMARK                         _______ _______ _______ _____ _____    ______ ____
ROOT
ATOM      1  C   UNK A   0       4.153   5.708  18.310  0.00  0.00    +0.000 A 
ATOM      2  C   UNK A   0       4.087   6.763  17.399  0.00  0.00    +0.000 A 
ATOM      3  C   UNK A   0       3.206   7.832  17.620  0.00  0.00    +0.000 A 
ATOM      4  C   UNK A   0       2.383   7.859  18.757  0.00  0.00    +0.000 A 
ATOM      5  C   UNK A   0       2.461   6.807  19.677  0.00  0.00    +0.000 A 
ATOM      6  C   UNK A   0       3.330   5.732  19.444  0.00  0.00    +0.000 A 
ENDROOT
BRANCH   4   7
ATOM      7  C   UNK A   0       1.384   8.960  18.892  0.00  0.00    +0.000 C 
ATOM      8  O   UNK A   0       0.853   9.434  17.893  0.00  0.00    +0.000 OA
ATOM      9  N   ALA A   1       1.095   9.406  20.162  0.00  0.00    +0.000 N 
ATOM     10  H   ALA A   1       1.649   9.109  20.960  0.00  0.00    +0.000 HD
BRANCH   9  11
ATOM     11  CA  ALA A   1       0.103  10.452  20.403  0.00  0.00    +0.000 C 
ATOM     12  CB  ALA A   1      -0.511  10.314  21.791  0.00  0.00    +0.000 C 
BRANCH  11  13
ATOM     13  C   ALA A   1       0.779  11.819  20.277  0.00  0.00    +0.000 C 
ATOM     14  O   ALA A   1       1.326  12.396  21.209  0.00  0.00    +0.000 OA
BRANCH  13  15
ATOM     15  OXT ALA A   1       0.693  12.365  19.040  0.00  0.00    +0.000 OA
ATOM     16  HXT ALA A   1       0.259  11.794  18.376  0.00  0.00    +0.000 HD
ENDBRANCH  13  15
ENDBRANCH  11  13
ENDBRANCH   9  11
ENDBRANCH   4   7
BRANCH   1  17
ATOM     17  O   UNK A   0       4.965   4.636  17.983  0.00  0.00    +0.000 OA
BRANCH  17  28
ATOM     18  C   UNK A   0       7.472   6.114  17.912  0.00  0.00    +0.000 C 
ATOM     19  C   UNK A   0       6.879   5.403  16.736  0.00  0.00    +0.000 A 
ATOM     20  N   UNK A   0       7.572   5.517  15.570  0.00  0.00    +0.000 NA
ATOM     21  C   UNK A   0       7.058   4.906  14.487  0.00  0.00    +0.000 A 
ATOM     22  C   UNK A   0       7.703   5.011  13.261  0.00  0.00    +0.000 A 
ATOM     23  C   UNK A   0       7.187   4.400  12.117  0.00  0.00    +0.000 A 
ATOM     24  C   UNK A   0       6.008   3.672  12.198  0.00  0.00    +0.000 A 
ATOM     25  C   UNK A   0       5.354   3.559  13.424  0.00  0.00    +0.000 A 
ATOM     26  C   UNK A   0       5.857   4.166  14.568  0.00  0.00    +0.000 A 
ATOM     27  N   UNK A   0       5.180   4.051  15.716  0.00  0.00    +0.000 NA
ATOM     28  C   UNK A   0       5.675   4.699  16.794  0.00  0.00    +0.000 A 
ENDBRANCH  17  28
ENDBRANCH   1  17
TORSDOF 6
ENDMDL
MODEL 9
REMARK VINA RESULT:      -8.0      1.432      2.188
REMARK  Name = 
REMARK  8 active torsions:
REMARK  status: ('A' for Active; 'I' for Inactive)
REMARK    1  A    between atoms: C_1  and  C_2
REMARK    2  A    between atoms: C_11  and  O_12
REMARK    3  A    between atoms: O_12  and  C_13
REMARK    4  A    between atoms: C_16  and  C_17
REMARK    5  A    between atoms: N_19  and  CA_20
REMARK    6  A    between atoms: CA_20  and  CB_21
REMARK    7  A    between atoms: CA_20  and  C_22
REMARK    8  A    between atoms: C_22  and  OXT_24
REMARK                            x       y       z     vdW  Elec       q    Type
REMARK                         _______ _______ _______ _____ _____    ______ ____
ROOT
ATOM      1  C   UNK A   0       3.939   5.955  18.186  0.00  0.00    +0.000 A 
ATOM      2  C   UNK A   0       3.210   5.968  19.377  0.00  0.00    +0.000 A 
ATOM      3  C   UNK A   0       2.367   7.048  19.674  0.00  0.00    +0.000 A 
ATOM      4  C   UNK A   0       2.240   8.126  18.784  0.00  0.00    +0.000 A 
ATOM      5  C   UNK A   0       2.961   8.103  17.584  0.00  0.00    +0.000 A 
ATOM      6  C   UNK A   0       3.817   7.031  17.298  0.00  0.00    +0.000 A 
ENDROOT
BRANCH   4   7
ATOM      7  C   UNK A   0       1.417   9.302  19.195  0.00  0.00    +0.000 C 
ATOM      8  O   UNK A   0       1.272  10.248  18.429  0.00  0.00    +0.000 OA
ATOM      9  N   ALA A   1       0.844   9.272  20.446  0.00  0.00    +0.000 N 
ATOM     10  H   ALA A   1       1.095   8.555  21.120  0.00  0.00    +0.000 HD
BRANCH   9  11
ATOM     11  CA  ALA A   1      -0.011  10.356  20.927  0.00  0.00    +0.000 C 
ATOM     12  CB  ALA A   1      -1.266  10.482  20.073  0.00  0.00    +0.000 C 
BRANCH  11  13
ATOM     13  C   ALA A   1      -0.405  10.074  22.378  0.00  0.00    +0.000 C 
ATOM     14  O   ALA A   1      -0.418  10.927  23.257  0.00  0.00    +0.000 OA
BRANCH  13  15
ATOM     15  OXT ALA A   1      -0.712   8.778  22.625  0.00  0.00    +0.000 OA
ATOM     16  HXT ALA A   1      -1.448   8.428  22.086  0.00  0.00    +0.000 HD
ENDBRANCH  13  15
ENDBRANCH  11  13
ENDBRANCH   9  11
ENDBRANCH   4   7
BRANCH   1  17
ATOM     17  O   UNK A   0       4.830   4.912  17.999  0.00  0.00    +0.000 OA
BRANCH  17  28
ATOM     18  C   UNK A   0       7.389   6.299  17.915  0.00  0.00    +0.000 C 
ATOM     19  C   UNK A   0       6.797   5.550  16.762  0.00  0.00    +0.000 A 
ATOM     20  N   UNK A   0       7.520   5.582  15.609  0.00  0.00    +0.000 NA
ATOM     21  C   UNK A   0       7.009   4.935  14.545  0.00  0.00    +0.000 A 
ATOM     22  C   UNK A   0       7.685   4.957  13.332  0.00  0.00    +0.000 A 
ATOM     23  C   UNK A   0       7.174   4.307  12.206  0.00  0.00    +0.000 A 
ATOM     24  C   UNK A   0       5.967   3.625  12.296  0.00  0.00    +0.000 A 
ATOM     25  C   UNK A   0       5.283   3.596  13.509  0.00  0.00    +0.000 A 
ATOM     26  C   UNK A   0       5.781   4.242  14.633  0.00  0.00    +0.000 A 
ATOM     27  N   UNK A   0       5.076   4.208  15.769  0.00  0.00    +0.000 NA
ATOM     28  C   UNK A   0       5.569   4.891  16.826  0.00  0.00    +0.000 A 
ENDBRANCH  17  28
ENDBRANCH   1  17
TORSDOF 6
ENDMDL
