MODEL 1
REMARK VINA RESULT:      -8.4      0.000      0.000
REMARK  Name = 
REMARK  9 active torsions:
REMARK  status: ('A' for Active; 'I' for Inactive)
REMARK    1  A    between atoms: C_1  and  C_2
REMARK    2  A    between atoms: C_2  and  O_3
REMARK    3  A    between atoms: O_3  and  P_4
REMARK    4  A    between atoms: P_4  and  C_6
REMARK    5  A    between atoms: P_4  and  N_14
REMARK    6  A    between atoms: C_9  and  O_10
REMARK    7  A    between atoms: O_10  and  C_11
REMARK    8  A    between atoms: C_23  and  C_24
REMARK    9  A    between atoms: N_26  and  O_27
REMARK                            x       y       z     vdW  Elec       q    Type
REMARK                         _______ _______ _______ _____ _____    ______ ____
ROOT
ATOM      1  N   UNL     1       3.688   4.832  19.226  0.00  0.00    +0.000 NA
ATOM      2  C   UNL     1       4.469   5.939  18.701  0.00  0.00    +0.000 C 
ATOM      3  C   UNL     1       5.522   5.412  17.777  0.00  0.00    +0.000 A 
ATOM      4  C   UNL     1       6.778   4.947  18.120  0.00  0.00    +0.000 A 
ATOM      5  C   UNL     1       7.628   4.509  17.104  0.00  0.00    +0.000 A 
ATOM      6  C   UNL     1       7.249   4.666  15.767  0.00  0.00    +0.000 A 
ATOM      7  C   UNL     1       5.924   4.949  15.465  0.00  0.00    +0.000 A 
ATOM      8  C   UNL     1       5.050   5.032  16.536  0.00  0.00    +0.000 A 
ATOM      9  C   UNL     1       3.756   4.244  16.641  0.00  0.00    +0.000 C 
ATOM     10  C   UNL     1       3.441   3.811  18.144  0.00  0.00    +0.000 C 
ENDROOT
BRANCH  10  11
ATOM     11  C   UNL     1       4.009   2.509  18.734  0.00  0.00    +0.000 C 
ATOM     12  O   UNL     1       3.686   1.404  18.256  0.00  0.00    +0.000 OA
ATOM     13  N   UNL     1       4.874   2.550  19.788  0.00  0.00    +0.000 N 
ATOM     14  H   UNL     1       5.394   3.362  20.105  0.00  0.00    +0.000 HD
BRANCH  13  15
ATOM     15  O   UNL     1       5.380   1.282  20.181  0.00  0.00    +0.000 OA
ATOM     16  H   UNL     1       6.215   1.524  20.615  0.00  0.00    +0.000 HD
ENDBRANCH  13  15
ENDBRANCH  10  11
BRANCH   1  17
ATOM     17  P   UNL     1       2.258   5.163  20.232  0.00  0.00    +0.000 P 
ATOM     18  O   UNL     1       1.013   5.452  21.107  0.00  0.00    +0.000 OA
BRANCH  17  19
ATOM     19  C   UNL     1       2.185   6.961  19.570  0.00  0.00    +0.000 A 
ATOM     20  C   UNL     1       2.282   7.251  18.202  0.00  0.00    +0.000 A 
ATOM     21  C   UNL     1       1.936   8.530  17.741  0.00  0.00    +0.000 A 
ATOM     22  C   UNL     1       1.496   9.523  18.628  0.00  0.00    +0.000 A 
ATOM     23  C   UNL     1       1.457   9.256  19.990  0.00  0.00    +0.000 A 
ATOM     24  C   UNL     1       1.760   7.973  20.462  0.00  0.00    +0.000 A 
BRANCH  22  25
ATOM     25  O   UNL     1       1.146  10.724  18.070  0.00  0.00    +0.000 OA
ATOM     26  C   UNL     1       1.617  11.873  18.769  0.00  0.00    +0.000 C 
ENDBRANCH  22  25
ENDBRANCH  17  19
BRANCH  17  27
ATOM     27  O   UNL     1       1.376   4.079  19.300  0.00  0.00    +0.000 OA
BRANCH  27  29
ATOM     28  C   UNL     1       1.524   2.566  21.252  0.00  0.00    +0.000 C 
ATOM     29  C   UNL     1       0.671   3.128  20.140  0.00  0.00    +0.000 C 
ENDBRANCH  27  29
ENDBRANCH  17  27
ENDBRANCH   1  17
TORSDOF 7
ENDMDL
MODEL 2
REMARK VINA RESULT:      -8.1      3.217      5.938
REMARK  Name = 
REMARK  9 active torsions:
REMARK  status: ('A' for Active; 'I' for Inactive)
REMARK    1  A    between atoms: C_1  and  C_2
REMARK    2  A    between atoms: C_2  and  O_3
REMARK    3  A    between atoms: O_3  and  P_4
REMARK    4  A    between atoms: P_4  and  C_6
REMARK    5  A    between atoms: P_4  and  N_14
REMARK    6  A    between atoms: C_9  and  O_10
REMARK    7  A    between atoms: O_10  and  C_11
REMARK    8  A    between atoms: C_23  and  C_24
REMARK    9  A    between atoms: N_26  and  O_27
REMARK                            x       y       z     vdW  Elec       q    Type
REMARK                         _______ _______ _______ _____ _____    ______ ____
ROOT
ATOM      1  N   UNL     1       4.093   5.003  17.602  0.00  0.00    +0.000 NA
ATOM      2  C   UNL     1       4.214   3.602  17.970  0.00  0.00    +0.000 C 
ATOM      3  C   UNL     1       3.280   3.302  19.101  0.00  0.00    +0.000 A 
ATOM      4  C   UNL     1       3.521   3.474  20.451  0.00  0.00    +0.000 A 
ATOM      5  C   UNL     1       2.523   3.117  21.359  0.00  0.00    +0.000 A 
ATOM      6  C   UNL     1       1.364   2.483  20.900  0.00  0.00    +0.000 A 
ATOM      7  C   UNL     1       1.070   2.504  19.543  0.00  0.00    +0.000 A 
ATOM      8  C   UNL     1       1.955   3.189  18.728  0.00  0.00    +0.000 A 
ATOM      9  C   UNL     1       1.546   4.282  17.758  0.00  0.00    +0.000 C 
ATOM     10  C   UNL     1       2.648   5.430  17.652  0.00  0.00    +0.000 C 
ENDROOT
BRANCH  10  11
ATOM     11  C   UNL     1       2.654   6.621  18.627  0.00  0.00    +0.000 C 
ATOM     12  O   UNL     1       2.976   7.759  18.234  0.00  0.00    +0.000 OA
ATOM     13  N   UNL     1       2.304   6.443  19.934  0.00  0.00    +0.000 N 
ATOM     14  H   UNL     1       1.800   5.649  20.316  0.00  0.00    +0.000 HD
BRANCH  13  15
ATOM     15  O   UNL     1       2.277   7.639  20.702  0.00  0.00    +0.000 OA
ATOM     16  H   UNL     1       2.656   7.344  21.546  0.00  0.00    +0.000 HD
ENDBRANCH  13  15
ENDBRANCH  10  11
BRANCH   1  17
ATOM     17  P   UNL     1       4.968   5.617  16.179  0.00  0.00    +0.000 P 
ATOM     18  O   UNL     1       5.729   6.150  14.941  0.00  0.00    +0.000 OA
BRANCH  17  19
ATOM     19  C   UNL     1       6.145   6.621  17.311  0.00  0.00    +0.000 A 
ATOM     20  C   UNL     1       7.031   5.996  18.200  0.00  0.00    +0.000 A 
ATOM     21  C   UNL     1       8.062   6.744  18.786  0.00  0.00    +0.000 A 
ATOM     22  C   UNL     1       8.219   8.108  18.500  0.00  0.00    +0.000 A 
ATOM     23  C   UNL     1       7.307   8.742  17.667  0.00  0.00    +0.000 A 
ATOM     24  C   UNL     1       6.296   8.002  17.042  0.00  0.00    +0.000 A 
BRANCH  22  25
ATOM     25  O   UNL     1       9.281   8.735  19.095  0.00  0.00    +0.000 OA
ATOM     26  C   UNL     1       9.225  10.159  19.079  0.00  0.00    +0.000 C 
ENDBRANCH  22  25
ENDBRANCH  17  19
BRANCH  17  27
ATOM     27  O   UNL     1       5.518   4.060  15.870  0.00  0.00    +0.000 OA
BRANCH  27  29
ATOM     28  C   UNL     1       6.010   3.564  13.497  0.00  0.00    +0.000 C 
ATOM     29  C   UNL     1       6.525   4.063  14.826  0.00  0.00    +0.000 C 
ENDBRANCH  27  29
ENDBRANCH  17  27
ENDBRANCH   1  17
TORSDOF 7
ENDMDL
MODEL 3
REMARK VINA RESULT:      -8.0      2.682      6.271
REMARK  Name = 
REMARK  9 active torsions:
REMARK  status: ('A' for Active; 'I' for Inactive)
REMARK    1  A    between atoms: C_1  and  C_2
REMARK    2  A    between atoms: C_2  and  O_3
REMARK    3  A    between atoms: O_3  and  P_4
REMARK    4  A    between atoms: P_4  and  C_6
REMARK    5  A    between atoms: P_4  and  N_14
REMARK    6  A    between atoms: C_9  and  O_10
REMARK    7  A    between atoms: O_10  and  C_11
REMARK    8  A    between atoms: C_23  and  C_24
REMARK    9  A    between atoms: N_26  and  O_27
REMARK                            x       y       z     vdW  Elec       q    Type
REMARK                         _______ _______ _______ _____ _____    ______ ____
ROOT
ATOM      1  N   UNL     1       3.995   5.276  17.924  0.00  0.00    +0.000 NA
ATOM      2  C   UNL     1       2.580   5.374  17.607  0.00  0.00    +0.000 C 
ATOM      3  C   UNL     1       1.827   4.326  18.366  0.00  0.00    +0.000 A 
ATOM      4  C   UNL     1       1.618   3.012  17.991  0.00  0.00    +0.000 A 
ATOM      5  C   UNL     1       0.868   2.189  18.831  0.00  0.00    +0.000 A 
ATOM      6  C   UNL     1       0.244   2.733  19.959  0.00  0.00    +0.000 A 
ATOM      7  C   UNL     1       0.629   3.990  20.407  0.00  0.00    +0.000 A 
ATOM      8  C   UNL     1       1.644   4.614  19.703  0.00  0.00    +0.000 A 
ATOM      9  C   UNL     1       2.909   5.162  20.341  0.00  0.00    +0.000 C 
ATOM     10  C   UNL     1       4.180   4.986  19.392  0.00  0.00    +0.000 C 
ENDROOT
BRANCH  10  11
ATOM     11  C   UNL     1       5.012   3.692  19.407  0.00  0.00    +0.000 C 
ATOM     12  O   UNL     1       6.144   3.661  18.887  0.00  0.00    +0.000 OA
ATOM     13  N   UNL     1       4.518   2.562  19.990  0.00  0.00    +0.000 N 
ATOM     14  H   UNL     1       3.742   2.515  20.644  0.00  0.00    +0.000 HD
BRANCH  13  15
ATOM     15  O   UNL     1       5.420   1.464  20.001  0.00  0.00    +0.000 OA
ATOM     16  H   UNL     1       6.281   1.911  19.929  0.00  0.00    +0.000 HD
ENDBRANCH  13  15
ENDBRANCH  10  11
BRANCH   1  17
ATOM     17  P   UNL     1       5.125   6.498  17.293  0.00  0.00    +0.000 P 
ATOM     18  O   UNL     1       6.107   7.562  16.744  0.00  0.00    +0.000 OA
BRANCH  17  19
ATOM     19  C   UNL     1       5.664   5.305  15.893  0.00  0.00    +0.000 A 
ATOM     20  C   UNL     1       4.738   4.529  15.182  0.00  0.00    +0.000 A 
ATOM     21  C   UNL     1       5.132   3.901  13.992  0.00  0.00    +0.000 A 
ATOM     22  C   UNL     1       6.439   4.035  13.503  0.00  0.00    +0.000 A 
ATOM     23  C   UNL     1       7.374   4.754  14.235  0.00  0.00    +0.000 A 
ATOM     24  C   UNL     1       6.987   5.420  15.404  0.00  0.00    +0.000 A 
BRANCH  22  25
ATOM     25  O   UNL     1       6.709   3.413  12.312  0.00  0.00    +0.000 OA
ATOM     26  C   UNL     1       5.665   2.577  11.820  0.00  0.00    +0.000 C 
ENDBRANCH  22  25
ENDBRANCH  17  19
BRANCH  17  27
ATOM     27  O   UNL     1       3.815   7.462  16.871  0.00  0.00    +0.000 OA
BRANCH  27  29
ATOM     28  C   UNL     1       2.058   8.975  17.734  0.00  0.00    +0.000 C 
ATOM     29  C   UNL     1       3.310   8.184  18.025  0.00  0.00    +0.000 C 
ENDBRANCH  27  29
ENDBRANCH  17  27
ENDBRANCH   1  17
TORSDOF 7
ENDMDL
MODEL 4
REMARK VINA RESULT:      -7.6      3.683      8.490
REMARK  Name = 
REMARK  9 active torsions:
REMARK  status: ('A' for Active; 'I' for Inactive)
REMARK    1  A    between atoms: C_1  and  C_2
REMARK    2  A    between atoms: C_2  and  O_3
REMARK    3  A    between atoms: O_3  and  P_4
REMARK    4  A    between atoms: P_4  and  C_6
REMARK    5  A    between atoms: P_4  and  N_14
REMARK    6  A    between atoms: C_9  and  O_10
REMARK    7  A    between atoms: O_10  and  C_11
REMARK    8  A    between atoms: C_23  and  C_24
REMARK    9  A    between atoms: N_26  and  O_27
REMARK                            x       y       z     vdW  Elec       q    Type
REMARK                         _______ _______ _______ _____ _____    ______ ____
ROOT
ATOM      1  N   UNL     1       0.190  10.921  20.110  0.00  0.00    +0.000 NA
ATOM      2  C   UNL     1       1.210  11.840  20.588  0.00  0.00    +0.000 C 
ATOM      3  C   UNL     1       1.128  13.120  19.815  0.00  0.00    +0.000 A 
ATOM      4  C   UNL     1       1.724  13.401  18.599  0.00  0.00    +0.000 A 
ATOM      5  C   UNL     1       1.542  14.667  18.044  0.00  0.00    +0.000 A 
ATOM      6  C   UNL     1       0.876  15.656  18.775  0.00  0.00    +0.000 A 
ATOM      7  C   UNL     1       0.131  15.291  19.888  0.00  0.00    +0.000 A 
ATOM      8  C   UNL     1       0.081  13.940  20.184  0.00  0.00    +0.000 A 
ATOM      9  C   UNL     1      -1.207  13.159  20.378  0.00  0.00    +0.000 C 
ATOM     10  C   UNL     1      -1.089  11.667  19.826  0.00  0.00    +0.000 C 
ENDROOT
BRANCH  10  11
ATOM     11  C   UNL     1      -1.385  11.336  18.353  0.00  0.00    +0.000 C 
ATOM     12  O   UNL     1      -1.449  10.152  17.971  0.00  0.00    +0.000 OA
ATOM     13  N   UNL     1      -1.580  12.338  17.448  0.00  0.00    +0.000 N 
ATOM     14  H   UNL     1      -1.793  13.307  17.664  0.00  0.00    +0.000 HD
BRANCH  13  15
ATOM     15  O   UNL     1      -1.921  11.892  16.143  0.00  0.00    +0.000 OA
ATOM     16  H   UNL     1      -1.099  12.056  15.652  0.00  0.00    +0.000 HD
ENDBRANCH  13  15
ENDBRANCH  10  11
BRANCH   1  17
ATOM     17  P   UNL     1      -0.060   9.372  20.950  0.00  0.00    +0.000 P 
ATOM     18  O   UNL     1      -0.278   8.025  21.681  0.00  0.00    +0.000 OA
BRANCH  17  19
ATOM     19  C   UNL     1       1.356   8.571  19.937  0.00  0.00    +0.000 A 
ATOM     20  C   UNL     1       1.952   7.362  20.323  0.00  0.00    +0.000 A 
ATOM     21  C   UNL     1       2.768   6.674  19.413  0.00  0.00    +0.000 A 
ATOM     22  C   UNL     1       2.999   7.176  18.125  0.00  0.00    +0.000 A 
ATOM     23  C   UNL     1       2.458   8.402  17.762  0.00  0.00    +0.000 A 
ATOM     24  C   UNL     1       1.609   9.084  18.642  0.00  0.00    +0.000 A 
BRANCH  22  25
ATOM     25  O   UNL     1       3.778   6.406  17.303  0.00  0.00    +0.000 OA
ATOM     26  C   UNL     1       4.087   5.110  17.808  0.00  0.00    +0.000 C 
ENDBRANCH  22  25
ENDBRANCH  17  19
BRANCH  17  27
ATOM     27  O   UNL     1       0.468  10.083  22.377  0.00  0.00    +0.000 OA
BRANCH  27  29
ATOM     28  C   UNL     1      -1.550  11.183  23.292  0.00  0.00    +0.000 C 
ATOM     29  C   UNL     1      -0.568  10.041  23.392  0.00  0.00    +0.000 C 
ENDBRANCH  27  29
ENDBRANCH  17  27
ENDBRANCH   1  17
TORSDOF 7
ENDMDL
MODEL 5
REMARK VINA RESULT:      -7.5      1.996      2.487
REMARK  Name = 
REMARK  9 active torsions:
REMARK  status: ('A' for Active; 'I' for Inactive)
REMARK    1  A    between atoms: C_1  and  C_2
REMARK    2  A    between atoms: C_2  and  O_3
REMARK    3  A    between atoms: O_3  and  P_4
REMARK    4  A    between atoms: P_4  and  C_6
REMARK    5  A    between atoms: P_4  and  N_14
REMARK    6  A    between atoms: C_9  and  O_10
REMARK    7  A    between atoms: O_10  and  C_11
REMARK    8  A    between atoms: C_23  and  C_24
REMARK    9  A    between atoms: N_26  and  O_27
REMARK                            x       y       z     vdW  Elec       q    Type
REMARK                         _______ _______ _______ _____ _____    ______ ____
ROOT
ATOM      1  N   UNL     1       4.115   5.348  18.486  0.00  0.00    +0.000 NA
ATOM      2  C   UNL     1       3.583   5.275  17.136  0.00  0.00    +0.000 C 
ATOM      3  C   UNL     1       4.715   5.170  16.160  0.00  0.00    +0.000 A 
ATOM      4  C   UNL     1       5.439   6.210  15.608  0.00  0.00    +0.000 A 
ATOM      5  C   UNL     1       6.452   5.908  14.697  0.00  0.00    +0.000 A 
ATOM      6  C   UNL     1       6.629   4.588  14.270  0.00  0.00    +0.000 A 
ATOM      7  C   UNL     1       6.027   3.558  14.980  0.00  0.00    +0.000 A 
ATOM      8  C   UNL     1       5.299   3.921  16.100  0.00  0.00    +0.000 A 
ATOM      9  C   UNL     1       5.514   3.331  17.483  0.00  0.00    +0.000 C 
ATOM     10  C   UNL     1       5.287   4.411  18.635  0.00  0.00    +0.000 C 
ENDROOT
BRANCH  10  11
ATOM     11  C   UNL     1       6.430   5.328  19.104  0.00  0.00    +0.000 C 
ATOM     12  O   UNL     1       6.870   5.247  20.267  0.00  0.00    +0.000 OA
ATOM     13  N   UNL     1       6.975   6.241  18.250  0.00  0.00    +0.000 N 
ATOM     14  H   UNL     1       6.884   6.244  17.238  0.00  0.00    +0.000 HD
BRANCH  13  15
ATOM     15  O   UNL     1       8.072   6.966  18.788  0.00  0.00    +0.000 OA
ATOM     16  H   UNL     1       7.628   7.591  19.385  0.00  0.00    +0.000 HD
ENDBRANCH  13  15
ENDBRANCH  10  11
BRANCH   1  17
ATOM     17  P   UNL     1       2.999   5.318  19.873  0.00  0.00    +0.000 P 
ATOM     18  O   UNL     1       2.029   5.292  21.079  0.00  0.00    +0.000 OA
BRANCH  17  19
ATOM     19  C   UNL     1       2.493   7.135  19.529  0.00  0.00    +0.000 A 
ATOM     20  C   UNL     1       2.671   7.729  18.272  0.00  0.00    +0.000 A 
ATOM     21  C   UNL     1       2.030   8.943  17.985  0.00  0.00    +0.000 A 
ATOM     22  C   UNL     1       1.216   9.573  18.937  0.00  0.00    +0.000 A 
ATOM     23  C   UNL     1       1.086   9.017  20.202  0.00  0.00    +0.000 A 
ATOM     24  C   UNL     1       1.686   7.786  20.493  0.00  0.00    +0.000 A 
BRANCH  22  25
ATOM     25  O   UNL     1       0.605  10.733  18.541  0.00  0.00    +0.000 OA
ATOM     26  C   UNL     1      -0.819  10.708  18.580  0.00  0.00    +0.000 C 
ENDBRANCH  22  25
ENDBRANCH  17  19
BRANCH  17  27
ATOM     27  O   UNL     1       2.047   4.201  19.057  0.00  0.00    +0.000 OA
BRANCH  27  29
ATOM     28  C   UNL     1       2.589   1.790  18.937  0.00  0.00    +0.000 C 
ATOM     29  C   UNL     1       2.028   2.928  19.755  0.00  0.00    +0.000 C 
ENDBRANCH  27  29
ENDBRANCH  17  27
ENDBRANCH   1  17
TORSDOF 7
ENDMDL
MODEL 6
REMARK VINA RESULT:      -7.3      0.406      1.009
REMARK  Name = 
REMARK  9 active torsions:
REMARK  status: ('A' for Active; 'I' for Inactive)
REMARK    1  A    between atoms: C_1  and  C_2
REMARK    2  A    between atoms: C_2  and  O_3
REMARK    3  A    between atoms: O_3  and  P_4
REMARK    4  A    between atoms: P_4  and  C_6
REMARK    5  A    between atoms: P_4  and  N_14
REMARK    6  A    between atoms: C_9  and  O_10
REMARK    7  A    between atoms: O_10  and  C_11
REMARK    8  A    between atoms: C_23  and  C_24
REMARK    9  A    between atoms: N_26  and  O_27
REMARK                            x       y       z     vdW  Elec       q    Type
REMARK                         _______ _______ _______ _____ _____    ______ ____
ROOT
ATOM      1  N   UNL     1       3.681   4.772  19.298  0.00  0.00    +0.000 NA
ATOM      2  C   UNL     1       4.447   5.895  18.784  0.00  0.00    +0.000 C 
ATOM      3  C   UNL     1       5.507   5.389  17.854  0.00  0.00    +0.000 A 
ATOM      4  C   UNL     1       6.768   4.937  18.193  0.00  0.00    +0.000 A 
ATOM      5  C   UNL     1       7.625   4.521  17.174  0.00  0.00    +0.000 A 
ATOM      6  C   UNL     1       7.244   4.685  15.838  0.00  0.00    +0.000 A 
ATOM      7  C   UNL     1       5.915   4.953  15.539  0.00  0.00    +0.000 A 
ATOM      8  C   UNL     1       5.040   5.015  16.611  0.00  0.00    +0.000 A 
ATOM      9  C   UNL     1       3.756   4.210  16.708  0.00  0.00    +0.000 C 
ATOM     10  C   UNL     1       3.446   3.759  18.206  0.00  0.00    +0.000 C 
ENDROOT
BRANCH  10  11
ATOM     11  C   UNL     1       4.031   2.458  18.784  0.00  0.00    +0.000 C 
ATOM     12  O   UNL     1       3.715   1.354  18.302  0.00  0.00    +0.000 OA
ATOM     13  N   UNL     1       4.904   2.501  19.832  0.00  0.00    +0.000 N 
ATOM     14  H   UNL     1       5.419   3.317  20.149  0.00  0.00    +0.000 HD
BRANCH  13  15
ATOM     15  O   UNL     1       5.425   1.236  20.214  0.00  0.00    +0.000 OA
ATOM     16  H   UNL     1       4.840   0.625  19.736  0.00  0.00    +0.000 HD
ENDBRANCH  13  15
ENDBRANCH  10  11
BRANCH   1  17
ATOM     17  P   UNL     1       2.246   5.076  20.307  0.00  0.00    +0.000 P 
ATOM     18  O   UNL     1       0.998   5.340  21.184  0.00  0.00    +0.000 OA
BRANCH  17  19
ATOM     19  C   UNL     1       1.971   6.764  19.441  0.00  0.00    +0.000 A 
ATOM     20  C   UNL     1       1.803   7.951  20.167  0.00  0.00    +0.000 A 
ATOM     21  C   UNL     1       1.897   9.184  19.505  0.00  0.00    +0.000 A 
ATOM     22  C   UNL     1       2.153   9.248  18.128  0.00  0.00    +0.000 A 
ATOM     23  C   UNL     1       2.260   8.073  17.397  0.00  0.00    +0.000 A 
ATOM     24  C   UNL     1       2.209   6.834  18.047  0.00  0.00    +0.000 A 
BRANCH  22  25
ATOM     25  O   UNL     1       2.264  10.502  17.588  0.00  0.00    +0.000 OA
ATOM     26  C   UNL     1       1.897  11.568  18.460  0.00  0.00    +0.000 C 
ENDBRANCH  22  25
ENDBRANCH  17  19
BRANCH  17  27
ATOM     27  O   UNL     1       1.462   3.804  19.540  0.00  0.00    +0.000 OA
BRANCH  27  29
ATOM     28  C   UNL     1       1.746   2.471  21.604  0.00  0.00    +0.000 C 
ATOM     29  C   UNL     1       0.819   2.933  20.506  0.00  0.00    +0.000 C 
ENDBRANCH  27  29
ENDBRANCH  17  27
ENDBRANCH   1  17
TORSDOF 7
ENDMDL
MODEL 7
REMARK VINA RESULT:      -7.3      3.307      6.476
REMARK  Name = 
REMARK  9 active torsions:
REMARK  status: ('A' for Active; 'I' for Inactive)
REMARK    1  A    between atoms: C_1  and  C_2
REMARK    2  A    between atoms: C_2  and  O_3
REMARK    3  A    between atoms: O_3  and  P_4
REMARK    4  A    between atoms: P_4  and  C_6
REMARK    5  A    between atoms: P_4  and  N_14
REMARK    6  A    between atoms: C_9  and  O_10
REMARK    7  A    between atoms: O_10  and  C_11
REMARK    8  A    between atoms: C_23  and  C_24
REMARK    9  A    between atoms: N_26  and  O_27
REMARK                            x       y       z     vdW  Elec       q    Type
REMARK                         _______ _______ _______ _____ _____    ______ ____
ROOT
ATOM      1  N   UNL     1       5.067   4.280  18.220  0.00  0.00    +0.000 NA
ATOM      2  C   UNL     1       4.012   5.213  17.863  0.00  0.00    +0.000 C 
ATOM      3  C   UNL     1       2.716   4.747  18.450  0.00  0.00    +0.000 A 
ATOM      4  C   UNL     1       1.829   3.841  17.901  0.00  0.00    +0.000 A 
ATOM      5  C   UNL     1       0.657   3.547  18.598  0.00  0.00    +0.000 A 
ATOM      6  C   UNL     1       0.344   4.259  19.760  0.00  0.00    +0.000 A 
ATOM      7  C   UNL     1       1.333   5.010  20.382  0.00  0.00    +0.000 A 
ATOM      8  C   UNL     1       2.591   4.977  19.805  0.00  0.00    +0.000 A 
ATOM      9  C   UNL     1       3.862   4.625  20.557  0.00  0.00    +0.000 C 
ATOM     10  C   UNL     1       4.892   3.817  19.645  0.00  0.00    +0.000 C 
ENDROOT
BRANCH  10  11
ATOM     11  C   UNL     1       4.817   2.285  19.524  0.00  0.00    +0.000 C 
ATOM     12  O   UNL     1       5.262   1.556  20.432  0.00  0.00    +0.000 OA
ATOM     13  N   UNL     1       4.261   1.707  18.420  0.00  0.00    +0.000 N 
ATOM     14  H   UNL     1       3.659   2.166  17.743  0.00  0.00    +0.000 HD
BRANCH  13  15
ATOM     15  O   UNL     1       4.187   0.289  18.475  0.00  0.00    +0.000 OA
ATOM     16  H   UNL     1       3.484   0.100  17.831  0.00  0.00    +0.000 HD
ENDBRANCH  13  15
ENDBRANCH  10  11
BRANCH   1  17
ATOM     17  P   UNL     1       6.755   4.656  17.797  0.00  0.00    +0.000 P 
ATOM     18  O   UNL     1       8.222   4.983  17.429  0.00  0.00    +0.000 OA
BRANCH  17  19
ATOM     19  C   UNL     1       6.335   4.529  15.931  0.00  0.00    +0.000 A 
ATOM     20  C   UNL     1       7.194   5.029  14.942  0.00  0.00    +0.000 A 
ATOM     21  C   UNL     1       6.994   4.662  13.604  0.00  0.00    +0.000 A 
ATOM     22  C   UNL     1       5.947   3.804  13.238  0.00  0.00    +0.000 A 
ATOM     23  C   UNL     1       5.060   3.355  14.208  0.00  0.00    +0.000 A 
ATOM     24  C   UNL     1       5.268   3.679  15.553  0.00  0.00    +0.000 A 
BRANCH  22  25
ATOM     25  O   UNL     1       5.865   3.477  11.911  0.00  0.00    +0.000 OA
ATOM     26  C   UNL     1       4.561   3.121  11.458  0.00  0.00    +0.000 C 
ENDBRANCH  22  25
ENDBRANCH  17  19
BRANCH  17  27
ATOM     27  O   UNL     1       6.544   6.203  18.418  0.00  0.00    +0.000 OA
BRANCH  27  29
ATOM     28  C   UNL     1       7.691   8.234  17.594  0.00  0.00    +0.000 C 
ATOM     29  C   UNL     1       7.788   6.949  18.381  0.00  0.00    +0.000 C 
ENDBRANCH  27  29
ENDBRANCH  17  27
ENDBRANCH   1  17
TORSDOF 7
ENDMDL
MODEL 8
REMARK VINA RESULT:      -7.3      3.023      6.709
REMARK  Name = 
REMARK  9 active torsions:
REMARK  status: ('A' for Active; 'I' for Inactive)
REMARK    1  A    between atoms: C_1  and  C_2
REMARK    2  A    between atoms: C_2  and  O_3
REMARK    3  A    between atoms: O_3  and  P_4
REMARK    4  A    between atoms: P_4  and  C_6
REMARK    5  A    between atoms: P_4  and  N_14
REMARK    6  A    between atoms: C_9  and  O_10
REMARK    7  A    between atoms: O_10  and  C_11
REMARK    8  A    between atoms: C_23  and  C_24
REMARK    9  A    between atoms: N_26  and  O_27
REMARK                            x       y       z     vdW  Elec       q    Type
REMARK                         _______ _______ _______ _____ _____    ______ ____
ROOT
ATOM      1  N   UNL     1       5.055   4.499  18.694  0.00  0.00    +0.000 NA
ATOM      2  C   UNL     1       4.639   3.297  19.396  0.00  0.00    +0.000 C 
ATOM      3  C   UNL     1       3.154   3.321  19.587  0.00  0.00    +0.000 A 
ATOM      4  C   UNL     1       2.453   3.925  20.613  0.00  0.00    +0.000 A 
ATOM      5  C   UNL     1       1.062   3.821  20.625  0.00  0.00    +0.000 A 
ATOM      6  C   UNL     1       0.420   3.011  19.683  0.00  0.00    +0.000 A 
ATOM      7  C   UNL     1       1.123   2.583  18.564  0.00  0.00    +0.000 A 
ATOM      8  C   UNL     1       2.431   3.022  18.449  0.00  0.00    +0.000 A 
ATOM      9  C   UNL     1       2.988   3.725  17.225  0.00  0.00    +0.000 C 
ATOM     10  C   UNL     1       4.061   4.840  17.613  0.00  0.00    +0.000 C 
ENDROOT
BRANCH  10  11
ATOM     11  C   UNL     1       3.630   6.277  17.953  0.00  0.00    +0.000 C 
ATOM     12  O   UNL     1       4.126   7.247  17.349  0.00  0.00    +0.000 OA
ATOM     13  N   UNL     1       2.697   6.504  18.923  0.00  0.00    +0.000 N 
ATOM     14  H   UNL     1       2.054   5.819  19.309  0.00  0.00    +0.000 HD
BRANCH  13  15
ATOM     15  O   UNL     1       2.336   7.869  19.080  0.00  0.00    +0.000 OA
ATOM     16  H   UNL     1       1.698   7.826  19.813  0.00  0.00    +0.000 HD
ENDBRANCH  13  15
ENDBRANCH  10  11
BRANCH   1  17
ATOM     17  P   UNL     1       6.751   4.676  18.183  0.00  0.00    +0.000 P 
ATOM     18  O   UNL     1       8.226   4.829  17.739  0.00  0.00    +0.000 OA
BRANCH  17  19
ATOM     19  C   UNL     1       6.234   4.511  16.345  0.00  0.00    +0.000 A 
ATOM     20  C   UNL     1       6.475   5.531  15.413  0.00  0.00    +0.000 A 
ATOM     21  C   UNL     1       6.350   5.257  14.043  0.00  0.00    +0.000 A 
ATOM     22  C   UNL     1       5.984   3.982  13.591  0.00  0.00    +0.000 A 
ATOM     23  C   UNL     1       5.688   2.987  14.513  0.00  0.00    +0.000 A 
ATOM     24  C   UNL     1       5.847   3.231  15.883  0.00  0.00    +0.000 A 
BRANCH  22  25
ATOM     25  O   UNL     1       5.929   3.811  12.233  0.00  0.00    +0.000 OA
ATOM     26  C   UNL     1       5.767   2.462  11.801  0.00  0.00    +0.000 C 
ENDBRANCH  22  25
ENDBRANCH  17  19
BRANCH  17  27
ATOM     27  O   UNL     1       6.732   6.262  18.736  0.00  0.00    +0.000 OA
BRANCH  27  29
ATOM     28  C   UNL     1       7.803   8.210  17.650  0.00  0.00    +0.000 C 
ATOM     29  C   UNL     1       7.983   6.932  18.433  0.00  0.00    +0.000 C 
ENDBRANCH  27  29
ENDBRANCH  17  27
ENDBRANCH   1  17
TORSDOF 7
ENDMDL
MODEL 9
REMARK VINA RESULT:      -7.3      3.591      8.207
REMARK  Name = 
REMARK  9 active torsions:
REMARK  status: ('A' for Active; 'I' for Inactive)
REMARK    1  A    between atoms: C_1  and  C_2
REMARK    2  A    between atoms: C_2  and  O_3
REMARK    3  A    between atoms: O_3  and  P_4
REMARK    4  A    between atoms: P_4  and  C_6
REMARK    5  A    between atoms: P_4  and  N_14
REMARK    6  A    between atoms: C_9  and  O_10
REMARK    7  A    between atoms: O_10  and  C_11
REMARK    8  A    between atoms: C_23  and  C_24
REMARK    9  A    between atoms: N_26  and  O_27
REMARK                            x       y       z     vdW  Elec       q    Type
REMARK                         _______ _______ _______ _____ _____    ______ ____
ROOT
ATOM      1  N   UNL     1       0.492  10.705  20.035  0.00  0.00    +0.000 NA
ATOM      2  C   UNL     1       1.609  11.521  20.480  0.00  0.00    +0.000 C 
ATOM      3  C   UNL     1       1.606  12.819  19.735  0.00  0.00    +0.000 A 
ATOM      4  C   UNL     1       2.168  13.074  18.498  0.00  0.00    +0.000 A 
ATOM      5  C   UNL     1       2.075  14.363  17.974  0.00  0.00    +0.000 A 
ATOM      6  C   UNL     1       1.533  15.391  18.754  0.00  0.00    +0.000 A 
ATOM      7  C   UNL     1       0.810  15.068  19.894  0.00  0.00    +0.000 A 
ATOM      8  C   UNL     1       0.653  13.720  20.167  0.00  0.00    +0.000 A 
ATOM      9  C   UNL     1      -0.688  13.051  20.408  0.00  0.00    +0.000 C 
ATOM     10  C   UNL     1      -0.728  11.566  19.825  0.00  0.00    +0.000 C 
ENDROOT
BRANCH  10  11
ATOM     11  C   UNL     1      -1.119  11.295  18.361  0.00  0.00    +0.000 C 
ATOM     12  O   UNL     1      -1.080  10.139  17.900  0.00  0.00    +0.000 OA
ATOM     13  N   UNL     1      -1.513  12.321  17.552  0.00  0.00    +0.000 N 
ATOM     14  H   UNL     1      -1.816  13.241  17.856  0.00  0.00    +0.000 HD
BRANCH  13  15
ATOM     15  O   UNL     1      -1.919  11.919  16.251  0.00  0.00    +0.000 OA
ATOM     16  H   UNL     1      -1.311  11.183  16.069  0.00  0.00    +0.000 HD
ENDBRANCH  13  15
ENDBRANCH  10  11
BRANCH   1  17
ATOM     17  P   UNL     1       0.144   9.166  20.858  0.00  0.00    +0.000 P 
ATOM     18  O   UNL     1      -0.159   7.827  21.574  0.00  0.00    +0.000 OA
BRANCH  17  19
ATOM     19  C   UNL     1       1.316   8.238  19.659  0.00  0.00    +0.000 A 
ATOM     20  C   UNL     1       1.774   8.821  18.469  0.00  0.00    +0.000 A 
ATOM     21  C   UNL     1       2.843   8.233  17.779  0.00  0.00    +0.000 A 
ATOM     22  C   UNL     1       3.460   7.068  18.258  0.00  0.00    +0.000 A 
ATOM     23  C   UNL     1       2.970   6.456  19.403  0.00  0.00    +0.000 A 
ATOM     24  C   UNL     1       1.930   7.051  20.127  0.00  0.00    +0.000 A 
BRANCH  22  25
ATOM     25  O   UNL     1       4.520   6.598  17.529  0.00  0.00    +0.000 OA
ATOM     26  C   UNL     1       4.362   5.277  17.019  0.00  0.00    +0.000 C 
ENDBRANCH  22  25
ENDBRANCH  17  19
BRANCH  17  27
ATOM     27  O   UNL     1       0.924   9.746  22.228  0.00  0.00    +0.000 OA
BRANCH  27  29
ATOM     28  C   UNL     1      -1.149  10.635  23.245  0.00  0.00    +0.000 C 
ATOM     29  C   UNL     1       0.040   9.714  23.379  0.00  0.00    +0.000 C 
ENDBRANCH  27  29
ENDBRANCH  17  27
ENDBRANCH   1  17
TORSDOF 7
ENDMDL
