MODEL 1
REMARK VINA RESULT:      -7.4      0.000      0.000
REMARK  Name = 
REMARK  18 active torsions:
REMARK  status: ('A' for Active; 'I' for Inactive)
REMARK    1  A    between atoms: C_1  and  C_2
REMARK    2  A    between atoms: C_2  and  C_3
REMARK    3  A    between atoms: C_10  and  C_11
REMARK    4  A    between atoms: C_11  and  N_12
REMARK    5  A    between atoms: N_12  and  C_13
REMARK    6  A    between atoms: N_12  and  C_22
REMARK    7  A    between atoms: C_13  and  C_14
REMARK    8  A    between atoms: C_17  and  O_18
REMARK    9  A    between atoms: O_18  and  C_19
REMARK   10  A    between atoms: C_22  and  N_24
REMARK   11  A    between atoms: N_24  and  C_25
REMARK   12  A    between atoms: C_25  and  C_26
REMARK   13  A    between atoms: C_26  and  C_27
REMARK   14  A    between atoms: C_27  and  N_28
REMARK   15  A    between atoms: N_28  and  C_29
REMARK   16  A    between atoms: N_28  and  C_31
REMARK   17  A    between atoms: C_29  and  C_30
REMARK   18  A    between atoms: C_31  and  C_32
REMARK                            x       y       z     vdW  Elec       q    Type
REMARK                         _______ _______ _______ _____ _____    ______ ____
ROOT
ATOM      1  N   UNL     1       5.327   5.252  16.406  0.00  0.00    +0.000 N 
ENDROOT
BRANCH   1   2
ATOM      2  C   UNL     1       6.618   4.696  16.371  0.00  0.00    +0.000 C 
ATOM      3  S   UNL     1       7.665   4.603  17.678  0.00  0.00    +0.000 S 
BRANCH   2   4
ATOM      4  N   UNL     1       6.947   4.228  15.118  0.00  0.00    +0.000 N 
ATOM      5  H   UNL     1       6.503   3.353  14.869  0.00  0.00    +0.000 HD
BRANCH   4   6
ATOM      6  C   UNL     1       7.551   4.933  13.998  0.00  0.00    +0.000 C 
BRANCH   6   7
ATOM      7  C   UNL     1       6.760   4.639  12.722  0.00  0.00    +0.000 C 
BRANCH   7   8
ATOM      8  C   UNL     1       5.958   3.328  12.751  0.00  0.00    +0.000 C 
BRANCH   8   9
ATOM      9  N   UNL     1       5.333   2.910  11.478  0.00  0.00    +0.000 NA
BRANCH   9  10
ATOM     10  C   UNL     1       5.571   1.495  11.152  0.00  0.00    +0.000 C 
ATOM     11  C   UNL     1       7.030   1.054  11.074  0.00  0.00    +0.000 C 
ENDBRANCH   9  10
BRANCH   9  12
ATOM     12  C   UNL     1       3.903   3.281  11.492  0.00  0.00    +0.000 C 
ATOM     13  C   UNL     1       3.376   3.854  10.179  0.00  0.00    +0.000 C 
ENDBRANCH   9  12
ENDBRANCH   8   9
ENDBRANCH   7   8
ENDBRANCH   6   7
ENDBRANCH   4   6
ENDBRANCH   2   4
ENDBRANCH   1   2
BRANCH   1  14
ATOM     14  C   UNL     1       5.115   6.644  16.896  0.00  0.00    +0.000 C 
BRANCH  14  22
ATOM     15  C   UNL     1       0.459   9.582  20.196  0.00  0.00    +0.000 A 
ATOM     16  C   UNL     1       0.516   8.648  21.241  0.00  0.00    +0.000 A 
ATOM     17  C   UNL     1       1.278   7.501  21.100  0.00  0.00    +0.000 A 
ATOM     18  C   UNL     1       2.033   7.300  19.940  0.00  0.00    +0.000 A 
ATOM     19  N   UNL     1       2.956   6.268  19.954  0.00  0.00    +0.000 N 
ATOM     20  C   UNL     1       4.050   6.300  19.144  0.00  0.00    +0.000 A 
ATOM     21  O   UNL     1       5.110   5.836  19.533  0.00  0.00    +0.000 OA
ATOM     22  C   UNL     1       3.896   6.954  17.792  0.00  0.00    +0.000 A 
ATOM     23  C   UNL     1       2.915   7.895  17.702  0.00  0.00    +0.000 A 
ATOM     24  C   UNL     1       2.003   8.193  18.852  0.00  0.00    +0.000 A 
ATOM     25  C   UNL     1       1.185   9.340  18.996  0.00  0.00    +0.000 A 
ATOM     26  H   UNL     1       3.104   5.770  20.821  0.00  0.00    +0.000 HD
BRANCH  15  28
ATOM     27  C   UNL     1      -1.066  11.339  19.207  0.00  0.00    +0.000 C 
ATOM     28  C   UNL     1      -0.342  10.851  20.459  0.00  0.00    +0.000 C 
ENDBRANCH  15  28
ENDBRANCH  14  22
ENDBRANCH   1  14
BRANCH   1  29
ATOM     29  C   UNL     1       4.128   4.465  15.998  0.00  0.00    +0.000 C 
BRANCH  29  30
ATOM     30  C   UNL     1       3.308   3.730  17.082  0.00  0.00    +0.000 A 
ATOM     31  C   UNL     1       3.993   2.982  18.059  0.00  0.00    +0.000 A 
ATOM     32  C   UNL     1       3.348   2.513  19.228  0.00  0.00    +0.000 A 
ATOM     33  C   UNL     1       2.001   2.803  19.455  0.00  0.00    +0.000 A 
ATOM     34  C   UNL     1       1.286   3.470  18.469  0.00  0.00    +0.000 A 
ATOM     35  C   UNL     1       1.935   3.936  17.300  0.00  0.00    +0.000 A 
BRANCH  33  36
ATOM     36  O   UNL     1       1.497   2.366  20.655  0.00  0.00    +0.000 OA
ATOM     37  C   UNL     1       2.311   2.603  21.804  0.00  0.00    +0.000 C 
ENDBRANCH  33  36
ENDBRANCH  29  30
ENDBRANCH   1  29
TORSDOF 14
ENDMDL
MODEL 2
REMARK VINA RESULT:      -6.5      4.022      7.116
REMARK  Name = 
REMARK  18 active torsions:
REMARK  status: ('A' for Active; 'I' for Inactive)
REMARK    1  A    between atoms: C_1  and  C_2
REMARK    2  A    between atoms: C_2  and  C_3
REMARK    3  A    between atoms: C_10  and  C_11
REMARK    4  A    between atoms: C_11  and  N_12
REMARK    5  A    between atoms: N_12  and  C_13
REMARK    6  A    between atoms: N_12  and  C_22
REMARK    7  A    between atoms: C_13  and  C_14
REMARK    8  A    between atoms: C_17  and  O_18
REMARK    9  A    between atoms: O_18  and  C_19
REMARK   10  A    between atoms: C_22  and  N_24
REMARK   11  A    between atoms: N_24  and  C_25
REMARK   12  A    between atoms: C_25  and  C_26
REMARK   13  A    between atoms: C_26  and  C_27
REMARK   14  A    between atoms: C_27  and  N_28
REMARK   15  A    between atoms: N_28  and  C_29
REMARK   16  A    between atoms: N_28  and  C_31
REMARK   17  A    between atoms: C_29  and  C_30
REMARK   18  A    between atoms: C_31  and  C_32
REMARK                            x       y       z     vdW  Elec       q    Type
REMARK                         _______ _______ _______ _____ _____    ______ ____
ROOT
ATOM      1  N   UNL     1       7.033   5.550  16.620  0.00  0.00    +0.000 N 
ENDROOT
BRANCH   1   2
ATOM      2  C   UNL     1       7.529   6.415  17.611  0.00  0.00    +0.000 C 
ATOM      3  S   UNL     1       7.815   5.991  19.209  0.00  0.00    +0.000 S 
BRANCH   2   4
ATOM      4  N   UNL     1       7.756   7.684  17.126  0.00  0.00    +0.000 N 
ATOM      5  H   UNL     1       7.942   7.724  16.132  0.00  0.00    +0.000 HD
BRANCH   4   6
ATOM      6  C   UNL     1       7.453   8.973  17.730  0.00  0.00    +0.000 C 
BRANCH   6   7
ATOM      7  C   UNL     1       8.717   9.546  18.372  0.00  0.00    +0.000 C 
BRANCH   7   8
ATOM      8  C   UNL     1       8.901  11.062  18.187  0.00  0.00    +0.000 C 
BRANCH   8   9
ATOM      9  N   UNL     1       9.155  11.848  19.413  0.00  0.00    +0.000 NA
BRANCH   9  10
ATOM     10  C   UNL     1      10.336  11.390  20.162  0.00  0.00    +0.000 C 
ATOM     11  C   UNL     1      11.695  11.821  19.614  0.00  0.00    +0.000 C 
ENDBRANCH   9  10
BRANCH   9  12
ATOM     12  C   UNL     1       9.193  13.286  19.072  0.00  0.00    +0.000 C 
ATOM     13  C   UNL     1       8.797  14.225  20.207  0.00  0.00    +0.000 C 
ENDBRANCH   9  12
ENDBRANCH   8   9
ENDBRANCH   7   8
ENDBRANCH   6   7
ENDBRANCH   4   6
ENDBRANCH   2   4
ENDBRANCH   1   2
BRANCH   1  14
ATOM     14  C   UNL     1       5.945   4.581  16.936  0.00  0.00    +0.000 C 
BRANCH  14  22
ATOM     15  C   UNL     1       1.501   8.177  19.854  0.00  0.00    +0.000 A 
ATOM     16  C   UNL     1       1.216   7.181  20.799  0.00  0.00    +0.000 A 
ATOM     17  C   UNL     1       1.753   5.914  20.649  0.00  0.00    +0.000 A 
ATOM     18  C   UNL     1       2.622   5.643  19.587  0.00  0.00    +0.000 A 
ATOM     19  N   UNL     1       3.313   4.445  19.623  0.00  0.00    +0.000 N 
ATOM     20  C   UNL     1       4.503   4.306  18.975  0.00  0.00    +0.000 A 
ATOM     21  O   UNL     1       5.382   3.608  19.455  0.00  0.00    +0.000 OA
ATOM     22  C   UNL     1       4.687   5.072  17.687  0.00  0.00    +0.000 A 
ATOM     23  C   UNL     1       3.932   6.199  17.559  0.00  0.00    +0.000 A 
ATOM     24  C   UNL     1       2.932   6.597  18.599  0.00  0.00    +0.000 A 
ATOM     25  C   UNL     1       2.340   7.876  18.745  0.00  0.00    +0.000 A 
ATOM     26  H   UNL     1       3.229   3.867  20.447  0.00  0.00    +0.000 HD
BRANCH  15  28
ATOM     27  C   UNL     1       0.632  10.326  18.844  0.00  0.00    +0.000 C 
ATOM     28  C   UNL     1       0.930   9.563  20.132  0.00  0.00    +0.000 C 
ENDBRANCH  15  28
ENDBRANCH  14  22
ENDBRANCH   1  14
BRANCH   1  29
ATOM     29  C   UNL     1       7.598   5.541  15.241  0.00  0.00    +0.000 C 
BRANCH  29  30
ATOM     30  C   UNL     1       6.801   4.857  14.107  0.00  0.00    +0.000 A 
ATOM     31  C   UNL     1       7.468   4.530  12.911  0.00  0.00    +0.000 A 
ATOM     32  C   UNL     1       6.893   3.669  11.946  0.00  0.00    +0.000 A 
ATOM     33  C   UNL     1       5.638   3.097  12.170  0.00  0.00    +0.000 A 
ATOM     34  C   UNL     1       4.929   3.466  13.305  0.00  0.00    +0.000 A 
ATOM     35  C   UNL     1       5.508   4.329  14.266  0.00  0.00    +0.000 A 
BRANCH  33  36
ATOM     36  O   UNL     1       5.210   2.217  11.206  0.00  0.00    +0.000 OA
ATOM     37  C   UNL     1       6.058   1.096  10.954  0.00  0.00    +0.000 C 
ENDBRANCH  33  36
ENDBRANCH  29  30
ENDBRANCH   1  29
TORSDOF 14
ENDMDL
MODEL 3
REMARK VINA RESULT:      -6.4      4.117      7.121
REMARK  Name = 
REMARK  18 active torsions:
REMARK  status: ('A' for Active; 'I' for Inactive)
REMARK    1  A    between atoms: C_1  and  C_2
REMARK    2  A    between atoms: C_2  and  C_3
REMARK    3  A    between atoms: C_10  and  C_11
REMARK    4  A    between atoms: C_11  and  N_12
REMARK    5  A    between atoms: N_12  and  C_13
REMARK    6  A    between atoms: N_12  and  C_22
REMARK    7  A    between atoms: C_13  and  C_14
REMARK    8  A    between atoms: C_17  and  O_18
REMARK    9  A    between atoms: O_18  and  C_19
REMARK   10  A    between atoms: C_22  and  N_24
REMARK   11  A    between atoms: N_24  and  C_25
REMARK   12  A    between atoms: C_25  and  C_26
REMARK   13  A    between atoms: C_26  and  C_27
REMARK   14  A    between atoms: C_27  and  N_28
REMARK   15  A    between atoms: N_28  and  C_29
REMARK   16  A    between atoms: N_28  and  C_31
REMARK   17  A    between atoms: C_29  and  C_30
REMARK   18  A    between atoms: C_31  and  C_32
REMARK                            x       y       z     vdW  Elec       q    Type
REMARK                         _______ _______ _______ _____ _____    ______ ____
ROOT
ATOM      1  N   UNL     1       6.606   6.083  16.802  0.00  0.00    +0.000 N 
ENDROOT
BRANCH   1   2
ATOM      2  C   UNL     1       7.530   6.561  17.746  0.00  0.00    +0.000 C 
ATOM      3  S   UNL     1       7.963   5.770  19.161  0.00  0.00    +0.000 S 
BRANCH   2   4
ATOM      4  N   UNL     1       8.055   7.782  17.386  0.00  0.00    +0.000 N 
ATOM      5  H   UNL     1       8.623   7.762  16.548  0.00  0.00    +0.000 HD
BRANCH   4   6
ATOM      6  C   UNL     1       7.667   9.118  17.813  0.00  0.00    +0.000 C 
BRANCH   6   7
ATOM      7  C   UNL     1       8.910   9.899  18.242  0.00  0.00    +0.000 C 
BRANCH   7   8
ATOM      8  C   UNL     1       8.804  11.423  18.065  0.00  0.00    +0.000 C 
BRANCH   8   9
ATOM      9  N   UNL     1      10.069  12.183  18.133  0.00  0.00    +0.000 NA
BRANCH   9  10
ATOM     10  C   UNL     1       9.905  13.612  17.819  0.00  0.00    +0.000 C 
ATOM     11  C   UNL     1      10.280  14.596  18.925  0.00  0.00    +0.000 C 
ENDBRANCH   9  10
BRANCH   9  12
ATOM     12  C   UNL     1      10.718  11.936  19.438  0.00  0.00    +0.000 C 
ATOM     13  C   UNL     1      12.194  11.556  19.359  0.00  0.00    +0.000 C 
ENDBRANCH   9  12
ENDBRANCH   8   9
ENDBRANCH   7   8
ENDBRANCH   6   7
ENDBRANCH   4   6
ENDBRANCH   2   4
ENDBRANCH   1   2
BRANCH   1  14
ATOM     14  C   UNL     1       5.413   5.301  17.238  0.00  0.00    +0.000 C 
BRANCH  14  22
ATOM     15  C   UNL     1       1.203   9.771  19.106  0.00  0.00    +0.000 A 
ATOM     16  C   UNL     1       0.943   9.116  20.319  0.00  0.00    +0.000 A 
ATOM     17  C   UNL     1       1.442   7.844  20.538  0.00  0.00    +0.000 A 
ATOM     18  C   UNL     1       2.251   7.234  19.575  0.00  0.00    +0.000 A 
ATOM     19  N   UNL     1       2.916   6.078  19.943  0.00  0.00    +0.000 N 
ATOM     20  C   UNL     1       4.069   5.707  19.320  0.00  0.00    +0.000 A 
ATOM     21  O   UNL     1       4.953   5.153  19.953  0.00  0.00    +0.000 OA
ATOM     22  C   UNL     1       4.206   6.041  17.854  0.00  0.00    +0.000 A 
ATOM     23  C   UNL     1       3.472   7.104  17.422  0.00  0.00    +0.000 A 
ATOM     24  C   UNL     1       2.534   7.834  18.332  0.00  0.00    +0.000 A 
ATOM     25  C   UNL     1       1.979   9.118  18.108  0.00  0.00    +0.000 A 
ATOM     26  H   UNL     1       2.859   5.778  20.907  0.00  0.00    +0.000 HD
BRANCH  15  28
ATOM     27  C   UNL     1      -0.839  11.261  19.122  0.00  0.00    +0.000 C 
ATOM     28  C   UNL     1       0.679  11.196  18.975  0.00  0.00    +0.000 C 
ENDBRANCH  15  28
ENDBRANCH  14  22
ENDBRANCH   1  14
BRANCH   1  29
ATOM     29  C   UNL     1       6.801   6.301  15.340  0.00  0.00    +0.000 C 
BRANCH  29  30
ATOM     30  C   UNL     1       6.649   5.104  14.375  0.00  0.00    +0.000 A 
ATOM     31  C   UNL     1       5.470   4.336  14.427  0.00  0.00    +0.000 A 
ATOM     32  C   UNL     1       5.136   3.410  13.410  0.00  0.00    +0.000 A 
ATOM     33  C   UNL     1       5.971   3.247  12.303  0.00  0.00    +0.000 A 
ATOM     34  C   UNL     1       7.177   3.934  12.269  0.00  0.00    +0.000 A 
ATOM     35  C   UNL     1       7.507   4.859  13.289  0.00  0.00    +0.000 A 
BRANCH  33  36
ATOM     36  O   UNL     1       5.513   2.381  11.340  0.00  0.00    +0.000 OA
ATOM     37  C   UNL     1       6.252   1.169  11.180  0.00  0.00    +0.000 C 
ENDBRANCH  33  36
ENDBRANCH  29  30
ENDBRANCH   1  29
TORSDOF 14
ENDMDL
MODEL 4
REMARK VINA RESULT:      -6.4      4.696     10.182
REMARK  Name = 
REMARK  18 active torsions:
REMARK  status: ('A' for Active; 'I' for Inactive)
REMARK    1  A    between atoms: C_1  and  C_2
REMARK    2  A    between atoms: C_2  and  C_3
REMARK    3  A    between atoms: C_10  and  C_11
REMARK    4  A    between atoms: C_11  and  N_12
REMARK    5  A    between atoms: N_12  and  C_13
REMARK    6  A    between atoms: N_12  and  C_22
REMARK    7  A    between atoms: C_13  and  C_14
REMARK    8  A    between atoms: C_17  and  O_18
REMARK    9  A    between atoms: O_18  and  C_19
REMARK   10  A    between atoms: C_22  and  N_24
REMARK   11  A    between atoms: N_24  and  C_25
REMARK   12  A    between atoms: C_25  and  C_26
REMARK   13  A    between atoms: C_26  and  C_27
REMARK   14  A    between atoms: C_27  and  N_28
REMARK   15  A    between atoms: N_28  and  C_29
REMARK   16  A    between atoms: N_28  and  C_31
REMARK   17  A    between atoms: C_29  and  C_30
REMARK   18  A    between atoms: C_31  and  C_32
REMARK                            x       y       z     vdW  Elec       q    Type
REMARK                         _______ _______ _______ _____ _____    ______ ____
ROOT
ATOM      1  N   UNL     1       0.547  10.035  19.004  0.00  0.00    +0.000 N 
ENDROOT
BRANCH   1   2
ATOM      2  C   UNL     1       0.918  11.338  19.378  0.00  0.00    +0.000 C 
ATOM      3  S   UNL     1       0.718  11.998  20.907  0.00  0.00    +0.000 S 
BRANCH   2   4
ATOM      4  N   UNL     1       1.471  12.040  18.330  0.00  0.00    +0.000 N 
ATOM      5  H   UNL     1       0.848  12.176  17.544  0.00  0.00    +0.000 HD
BRANCH   4   6
ATOM      6  C   UNL     1       2.659  12.880  18.305  0.00  0.00    +0.000 C 
BRANCH   6   7
ATOM      7  C   UNL     1       2.259  14.323  17.997  0.00  0.00    +0.000 C 
BRANCH   7   8
ATOM      8  C   UNL     1       1.663  15.094  19.187  0.00  0.00    +0.000 C 
BRANCH   8   9
ATOM      9  N   UNL     1       1.179  16.462  18.909  0.00  0.00    +0.000 NA
BRANCH   9  10
ATOM     10  C   UNL     1       2.081  17.232  18.038  0.00  0.00    +0.000 C 
ATOM     11  C   UNL     1       1.423  18.025  16.912  0.00  0.00    +0.000 C 
ENDBRANCH   9  10
BRANCH   9  12
ATOM     12  C   UNL     1      -0.211  16.397  18.409  0.00  0.00    +0.000 C 
ATOM     13  C   UNL     1      -1.228  17.177  19.237  0.00  0.00    +0.000 C 
ENDBRANCH   9  12
ENDBRANCH   8   9
ENDBRANCH   7   8
ENDBRANCH   6   7
ENDBRANCH   4   6
ENDBRANCH   2   4
ENDBRANCH   1   2
BRANCH   1  14
ATOM     14  C   UNL     1       0.974   8.862  19.820  0.00  0.00    +0.000 C 
BRANCH  14  22
ATOM     15  C   UNL     1       5.065   5.468  16.223  0.00  0.00    +0.000 A 
ATOM     16  C   UNL     1       5.261   4.510  17.227  0.00  0.00    +0.000 A 
ATOM     17  C   UNL     1       4.753   4.727  18.497  0.00  0.00    +0.000 A 
ATOM     18  C   UNL     1       3.999   5.874  18.762  0.00  0.00    +0.000 A 
ATOM     19  N   UNL     1       3.318   5.922  19.966  0.00  0.00    +0.000 N 
ATOM     20  C   UNL     1       2.202   6.690  20.106  0.00  0.00    +0.000 A 
ATOM     21  O   UNL     1       1.286   6.309  20.817  0.00  0.00    +0.000 OA
ATOM     22  C   UNL     1       2.145   7.982  19.328  0.00  0.00    +0.000 A 
ATOM     23  C   UNL     1       2.898   8.020  18.194  0.00  0.00    +0.000 A 
ATOM     24  C   UNL     1       3.784   6.880  17.800  0.00  0.00    +0.000 A 
ATOM     25  C   UNL     1       4.347   6.660  16.519  0.00  0.00    +0.000 A 
ATOM     26  H   UNL     1       3.324   5.099  20.553  0.00  0.00    +0.000 HD
BRANCH  15  28
ATOM     27  C   UNL     1       7.046   4.655  14.878  0.00  0.00    +0.000 C 
ATOM     28  C   UNL     1       5.592   5.119  14.836  0.00  0.00    +0.000 C 
ENDBRANCH  15  28
ENDBRANCH  14  22
ENDBRANCH   1  14
BRANCH   1  29
ATOM     29  C   UNL     1      -0.243   9.774  17.767  0.00  0.00    +0.000 C 
BRANCH  29  30
ATOM     30  C   UNL     1      -1.603  10.484  17.581  0.00  0.00    +0.000 A 
ATOM     31  C   UNL     1      -2.328  10.261  16.394  0.00  0.00    +0.000 A 
ATOM     32  C   UNL     1      -3.683  10.646  16.263  0.00  0.00    +0.000 A 
ATOM     33  C   UNL     1      -4.352  11.247  17.332  0.00  0.00    +0.000 A 
ATOM     34  C   UNL     1      -3.636  11.549  18.483  0.00  0.00    +0.000 A 
ATOM     35  C   UNL     1      -2.280  11.163  18.608  0.00  0.00    +0.000 A 
BRANCH  33  36
ATOM     36  O   UNL     1      -5.684  11.509  17.123  0.00  0.00    +0.000 OA
ATOM     37  C   UNL     1      -6.514  11.515  18.285  0.00  0.00    +0.000 C 
ENDBRANCH  33  36
ENDBRANCH  29  30
ENDBRANCH   1  29
TORSDOF 14
ENDMDL
MODEL 5
REMARK VINA RESULT:      -6.3      3.913      6.775
REMARK  Name = 
REMARK  18 active torsions:
REMARK  status: ('A' for Active; 'I' for Inactive)
REMARK    1  A    between atoms: C_1  and  C_2
REMARK    2  A    between atoms: C_2  and  C_3
REMARK    3  A    between atoms: C_10  and  C_11
REMARK    4  A    between atoms: C_11  and  N_12
REMARK    5  A    between atoms: N_12  and  C_13
REMARK    6  A    between atoms: N_12  and  C_22
REMARK    7  A    between atoms: C_13  and  C_14
REMARK    8  A    between atoms: C_17  and  O_18
REMARK    9  A    between atoms: O_18  and  C_19
REMARK   10  A    between atoms: C_22  and  N_24
REMARK   11  A    between atoms: N_24  and  C_25
REMARK   12  A    between atoms: C_25  and  C_26
REMARK   13  A    between atoms: C_26  and  C_27
REMARK   14  A    between atoms: C_27  and  N_28
REMARK   15  A    between atoms: N_28  and  C_29
REMARK   16  A    between atoms: N_28  and  C_31
REMARK   17  A    between atoms: C_29  and  C_30
REMARK   18  A    between atoms: C_31  and  C_32
REMARK                            x       y       z     vdW  Elec       q    Type
REMARK                         _______ _______ _______ _____ _____    ______ ____
ROOT
ATOM      1  N   UNL     1       6.775   5.986  16.915  0.00  0.00    +0.000 N 
ENDROOT
BRANCH   1   2
ATOM      2  C   UNL     1       7.519   6.535  17.974  0.00  0.00    +0.000 C 
ATOM      3  S   UNL     1       8.092   5.678  19.298  0.00  0.00    +0.000 S 
BRANCH   2   4
ATOM      4  N   UNL     1       7.730   7.886  17.814  0.00  0.00    +0.000 N 
ATOM      5  H   UNL     1       7.025   8.357  17.262  0.00  0.00    +0.000 HD
BRANCH   4   6
ATOM      6  C   UNL     1       8.599   8.781  18.564  0.00  0.00    +0.000 C 
BRANCH   6   7
ATOM      7  C   UNL     1       8.583  10.168  17.920  0.00  0.00    +0.000 C 
BRANCH   7   8
ATOM      8  C   UNL     1       9.443  11.221  18.639  0.00  0.00    +0.000 C 
BRANCH   8   9
ATOM      9  N   UNL     1       9.221  12.629  18.250  0.00  0.00    +0.000 NA
BRANCH   9  10
ATOM     10  C   UNL     1      10.406  13.257  17.644  0.00  0.00    +0.000 C 
ATOM     11  C   UNL     1      11.642  12.373  17.500  0.00  0.00    +0.000 C 
ENDBRANCH   9  10
BRANCH   9  12
ATOM     12  C   UNL     1       8.010  12.719  17.408  0.00  0.00    +0.000 C 
ATOM     13  C   UNL     1       7.185  13.988  17.602  0.00  0.00    +0.000 C 
ENDBRANCH   9  12
ENDBRANCH   8   9
ENDBRANCH   7   8
ENDBRANCH   6   7
ENDBRANCH   4   6
ENDBRANCH   2   4
ENDBRANCH   1   2
BRANCH   1  14
ATOM     14  C   UNL     1       5.529   5.213  17.185  0.00  0.00    +0.000 C 
BRANCH  14  22
ATOM     15  C   UNL     1       1.253   9.606  19.084  0.00  0.00    +0.000 A 
ATOM     16  C   UNL     1       1.006   8.943  20.295  0.00  0.00    +0.000 A 
ATOM     17  C   UNL     1       1.527   7.678  20.507  0.00  0.00    +0.000 A 
ATOM     18  C   UNL     1       2.343   7.085  19.539  0.00  0.00    +0.000 A 
ATOM     19  N   UNL     1       3.027   5.938  19.901  0.00  0.00    +0.000 N 
ATOM     20  C   UNL     1       4.184   5.588  19.273  0.00  0.00    +0.000 A 
ATOM     21  O   UNL     1       5.079   5.046  19.901  0.00  0.00    +0.000 OA
ATOM     22  C   UNL     1       4.312   5.931  17.808  0.00  0.00    +0.000 A 
ATOM     23  C   UNL     1       3.560   6.984  17.383  0.00  0.00    +0.000 A 
ATOM     24  C   UNL     1       2.612   7.695  18.298  0.00  0.00    +0.000 A 
ATOM     25  C   UNL     1       2.036   8.970  18.081  0.00  0.00    +0.000 A 
ATOM     26  H   UNL     1       2.978   5.633  20.863  0.00  0.00    +0.000 HD
BRANCH  15  28
ATOM     27  C   UNL     1      -0.816  11.039  18.839  0.00  0.00    +0.000 C 
ATOM     28  C   UNL     1       0.706  11.023  18.960  0.00  0.00    +0.000 C 
ENDBRANCH  15  28
ENDBRANCH  14  22
ENDBRANCH   1  14
BRANCH   1  29
ATOM     29  C   UNL     1       7.221   6.120  15.499  0.00  0.00    +0.000 C 
BRANCH  29  30
ATOM     30  C   UNL     1       6.847   5.014  14.486  0.00  0.00    +0.000 A 
ATOM     31  C   UNL     1       5.651   4.297  14.676  0.00  0.00    +0.000 A 
ATOM     32  C   UNL     1       5.104   3.472  13.664  0.00  0.00    +0.000 A 
ATOM     33  C   UNL     1       5.738   3.364  12.424  0.00  0.00    +0.000 A 
ATOM     34  C   UNL     1       6.960   4.000  12.241  0.00  0.00    +0.000 A 
ATOM     35  C   UNL     1       7.502   4.822  13.258  0.00  0.00    +0.000 A 
BRANCH  33  36
ATOM     36  O   UNL     1       5.083   2.601  11.489  0.00  0.00    +0.000 OA
ATOM     37  C   UNL     1       3.886   3.160  10.946  0.00  0.00    +0.000 C 
ENDBRANCH  33  36
ENDBRANCH  29  30
ENDBRANCH   1  29
TORSDOF 14
ENDMDL
MODEL 6
REMARK VINA RESULT:      -6.3      4.680      8.417
REMARK  Name = 
REMARK  18 active torsions:
REMARK  status: ('A' for Active; 'I' for Inactive)
REMARK    1  A    between atoms: C_1  and  C_2
REMARK    2  A    between atoms: C_2  and  C_3
REMARK    3  A    between atoms: C_10  and  C_11
REMARK    4  A    between atoms: C_11  and  N_12
REMARK    5  A    between atoms: N_12  and  C_13
REMARK    6  A    between atoms: N_12  and  C_22
REMARK    7  A    between atoms: C_13  and  C_14
REMARK    8  A    between atoms: C_17  and  O_18
REMARK    9  A    between atoms: O_18  and  C_19
REMARK   10  A    between atoms: C_22  and  N_24
REMARK   11  A    between atoms: N_24  and  C_25
REMARK   12  A    between atoms: C_25  and  C_26
REMARK   13  A    between atoms: C_26  and  C_27
REMARK   14  A    between atoms: C_27  and  N_28
REMARK   15  A    between atoms: N_28  and  C_29
REMARK   16  A    between atoms: N_28  and  C_31
REMARK   17  A    between atoms: C_29  and  C_30
REMARK   18  A    between atoms: C_31  and  C_32
REMARK                            x       y       z     vdW  Elec       q    Type
REMARK                         _______ _______ _______ _____ _____    ______ ____
ROOT
ATOM      1  N   UNL     1       0.896  10.503  19.720  0.00  0.00    +0.000 N 
ENDROOT
BRANCH   1   2
ATOM      2  C   UNL     1       1.130   9.150  20.020  0.00  0.00    +0.000 C 
ATOM      3  S   UNL     1       0.694   8.388  21.449  0.00  0.00    +0.000 S 
BRANCH   2   4
ATOM      4  N   UNL     1       1.778   8.496  18.995  0.00  0.00    +0.000 N 
ATOM      5  H   UNL     1       2.175   9.109  18.294  0.00  0.00    +0.000 HD
BRANCH   4   6
ATOM      6  C   UNL     1       2.257   7.123  18.932  0.00  0.00    +0.000 C 
BRANCH   6   7
ATOM      7  C   UNL     1       3.588   7.081  18.179  0.00  0.00    +0.000 C 
BRANCH   7   8
ATOM      8  C   UNL     1       3.841   5.783  17.394  0.00  0.00    +0.000 C 
BRANCH   8   9
ATOM      9  N   UNL     1       4.895   4.890  17.921  0.00  0.00    +0.000 NA
BRANCH   9  10
ATOM     10  C   UNL     1       5.554   5.419  19.126  0.00  0.00    +0.000 C 
ATOM     11  C   UNL     1       7.059   5.655  19.026  0.00  0.00    +0.000 C 
ENDBRANCH   9  10
BRANCH   9  12
ATOM     12  C   UNL     1       4.340   3.532  18.100  0.00  0.00    +0.000 C 
ATOM     13  C   UNL     1       4.235   3.067  19.549  0.00  0.00    +0.000 C 
ENDBRANCH   9  12
ENDBRANCH   8   9
ENDBRANCH   7   8
ENDBRANCH   6   7
ENDBRANCH   4   6
ENDBRANCH   2   4
ENDBRANCH   1   2
BRANCH   1  14
ATOM     14  C   UNL     1       1.273  11.570  20.691  0.00  0.00    +0.000 C 
BRANCH  14  22
ATOM     15  C   UNL     1      -4.195  12.958  23.753  0.00  0.00    +0.000 A 
ATOM     16  C   UNL     1      -4.084  14.328  23.473  0.00  0.00    +0.000 A 
ATOM     17  C   UNL     1      -2.918  14.827  22.918  0.00  0.00    +0.000 A 
ATOM     18  C   UNL     1      -1.873  13.959  22.586  0.00  0.00    +0.000 A 
ATOM     19  N   UNL     1      -0.841  14.471  21.820  0.00  0.00    +0.000 N 
ATOM     20  C   UNL     1      -0.084  13.656  21.035  0.00  0.00    +0.000 A 
ATOM     21  O   UNL     1       0.335  14.059  19.961  0.00  0.00    +0.000 OA
ATOM     22  C   UNL     1       0.171  12.253  21.531  0.00  0.00    +0.000 A 
ATOM     23  C   UNL     1      -0.764  11.753  22.387  0.00  0.00    +0.000 A 
ATOM     24  C   UNL     1      -1.920  12.578  22.859  0.00  0.00    +0.000 A 
ATOM     25  C   UNL     1      -3.103  12.092  23.466  0.00  0.00    +0.000 A 
ATOM     26  H   UNL     1      -0.931  15.412  21.463  0.00  0.00    +0.000 HD
BRANCH  15  28
ATOM     27  C   UNL     1      -6.656  13.478  24.009  0.00  0.00    +0.000 C 
ATOM     28  C   UNL     1      -5.537  12.480  24.294  0.00  0.00    +0.000 C 
ENDBRANCH  15  28
ENDBRANCH  14  22
ENDBRANCH   1  14
BRANCH   1  29
ATOM     29  C   UNL     1       0.232  10.916  18.451  0.00  0.00    +0.000 C 
BRANCH  29  30
ATOM     30  C   UNL     1      -1.295  10.726  18.306  0.00  0.00    +0.000 A 
ATOM     31  C   UNL     1      -2.155  11.676  18.891  0.00  0.00    +0.000 A 
ATOM     32  C   UNL     1      -3.534  11.729  18.578  0.00  0.00    +0.000 A 
ATOM     33  C   UNL     1      -4.081  10.839  17.650  0.00  0.00    +0.000 A 
ATOM     34  C   UNL     1      -3.269   9.844  17.120  0.00  0.00    +0.000 A 
ATOM     35  C   UNL     1      -1.890   9.796  17.439  0.00  0.00    +0.000 A 
BRANCH  33  36
ATOM     36  O   UNL     1      -5.410  11.029  17.362  0.00  0.00    +0.000 OA
ATOM     37  C   UNL     1      -6.299  11.055  18.480  0.00  0.00    +0.000 C 
ENDBRANCH  33  36
ENDBRANCH  29  30
ENDBRANCH   1  29
TORSDOF 14
ENDMDL
MODEL 7
REMARK VINA RESULT:      -6.3      4.649      8.347
REMARK  Name = 
REMARK  18 active torsions:
REMARK  status: ('A' for Active; 'I' for Inactive)
REMARK    1  A    between atoms: C_1  and  C_2
REMARK    2  A    between atoms: C_2  and  C_3
REMARK    3  A    between atoms: C_10  and  C_11
REMARK    4  A    between atoms: C_11  and  N_12
REMARK    5  A    between atoms: N_12  and  C_13
REMARK    6  A    between atoms: N_12  and  C_22
REMARK    7  A    between atoms: C_13  and  C_14
REMARK    8  A    between atoms: C_17  and  O_18
REMARK    9  A    between atoms: O_18  and  C_19
REMARK   10  A    between atoms: C_22  and  N_24
REMARK   11  A    between atoms: N_24  and  C_25
REMARK   12  A    between atoms: C_25  and  C_26
REMARK   13  A    between atoms: C_26  and  C_27
REMARK   14  A    between atoms: C_27  and  N_28
REMARK   15  A    between atoms: N_28  and  C_29
REMARK   16  A    between atoms: N_28  and  C_31
REMARK   17  A    between atoms: C_29  and  C_30
REMARK   18  A    between atoms: C_31  and  C_32
REMARK                            x       y       z     vdW  Elec       q    Type
REMARK                         _______ _______ _______ _____ _____    ______ ____
ROOT
ATOM      1  N   UNL     1       0.831  10.632  19.840  0.00  0.00    +0.000 N 
ENDROOT
BRANCH   1   2
ATOM      2  C   UNL     1       1.180   9.272  19.776  0.00  0.00    +0.000 C 
ATOM      3  S   UNL     1       1.162   8.208  21.073  0.00  0.00    +0.000 S 
BRANCH   2   4
ATOM      4  N   UNL     1       1.554   8.892  18.507  0.00  0.00    +0.000 N 
ATOM      5  H   UNL     1       1.066   9.376  17.764  0.00  0.00    +0.000 HD
BRANCH   4   6
ATOM      6  C   UNL     1       2.738   8.166  18.070  0.00  0.00    +0.000 C 
BRANCH   6   7
ATOM      7  C   UNL     1       2.438   6.667  18.040  0.00  0.00    +0.000 C 
BRANCH   7   8
ATOM      8  C   UNL     1       3.367   5.807  18.913  0.00  0.00    +0.000 C 
BRANCH   8   9
ATOM      9  N   UNL     1       3.713   4.470  18.387  0.00  0.00    +0.000 NA
BRANCH   9  10
ATOM     10  C   UNL     1       2.651   3.881  17.555  0.00  0.00    +0.000 C 
ATOM     11  C   UNL     1       1.867   2.727  18.175  0.00  0.00    +0.000 C 
ENDBRANCH   9  10
BRANCH   9  12
ATOM     12  C   UNL     1       5.025   4.536  17.710  0.00  0.00    +0.000 C 
ATOM     13  C   UNL     1       4.967   4.447  16.188  0.00  0.00    +0.000 C 
ENDBRANCH   9  12
ENDBRANCH   8   9
ENDBRANCH   7   8
ENDBRANCH   6   7
ENDBRANCH   4   6
ENDBRANCH   2   4
ENDBRANCH   1   2
BRANCH   1  14
ATOM     14  C   UNL     1       0.927  11.379  21.127  0.00  0.00    +0.000 C 
BRANCH  14  22
ATOM     15  C   UNL     1      -3.235  15.558  23.658  0.00  0.00    +0.000 A 
ATOM     16  C   UNL     1      -3.877  14.566  24.414  0.00  0.00    +0.000 A 
ATOM     17  C   UNL     1      -3.568  13.233  24.206  0.00  0.00    +0.000 A 
ATOM     18  C   UNL     1      -2.580  12.878  23.283  0.00  0.00    +0.000 A 
ATOM     19  N   UNL     1      -2.145  11.564  23.291  0.00  0.00    +0.000 N 
ATOM     20  C   UNL     1      -0.901  11.238  22.843  0.00  0.00    +0.000 A 
ATOM     21  O   UNL     1      -0.277  10.336  23.377  0.00  0.00    +0.000 OA
ATOM     22  C   UNL     1      -0.336  12.055  21.706  0.00  0.00    +0.000 A 
ATOM     23  C   UNL     1      -0.827  13.320  21.589  0.00  0.00    +0.000 A 
ATOM     24  C   UNL     1      -1.914  13.828  22.483  0.00  0.00    +0.000 A 
ATOM     25  C   UNL     1      -2.273  15.184  22.680  0.00  0.00    +0.000 A 
ATOM     26  H   UNL     1      -2.492  10.949  24.014  0.00  0.00    +0.000 HD
BRANCH  15  28
ATOM     27  C   UNL     1      -4.722  17.096  25.006  0.00  0.00    +0.000 C 
ATOM     28  C   UNL     1      -3.578  17.003  24.000  0.00  0.00    +0.000 C 
ENDBRANCH  15  28
ENDBRANCH  14  22
ENDBRANCH   1  14
BRANCH   1  29
ATOM     29  C   UNL     1       0.318  11.362  18.645  0.00  0.00    +0.000 C 
BRANCH  29  30
ATOM     30  C   UNL     1      -1.181  11.254  18.286  0.00  0.00    +0.000 A 
ATOM     31  C   UNL     1      -1.646  10.082  17.659  0.00  0.00    +0.000 A 
ATOM     32  C   UNL     1      -3.027   9.791  17.548  0.00  0.00    +0.000 A 
ATOM     33  C   UNL     1      -3.976  10.664  18.085  0.00  0.00    +0.000 A 
ATOM     34  C   UNL     1      -3.545  11.863  18.637  0.00  0.00    +0.000 A 
ATOM     35  C   UNL     1      -2.163  12.149  18.744  0.00  0.00    +0.000 A 
BRANCH  33  36
ATOM     36  O   UNL     1      -5.281  10.247  17.990  0.00  0.00    +0.000 OA
ATOM     37  C   UNL     1      -6.279  11.241  18.223  0.00  0.00    +0.000 C 
ENDBRANCH  33  36
ENDBRANCH  29  30
ENDBRANCH   1  29
TORSDOF 14
ENDMDL
MODEL 8
REMARK VINA RESULT:      -6.3      4.845      8.857
REMARK  Name = 
REMARK  18 active torsions:
REMARK  status: ('A' for Active; 'I' for Inactive)
REMARK    1  A    between atoms: C_1  and  C_2
REMARK    2  A    between atoms: C_2  and  C_3
REMARK    3  A    between atoms: C_10  and  C_11
REMARK    4  A    between atoms: C_11  and  N_12
REMARK    5  A    between atoms: N_12  and  C_13
REMARK    6  A    between atoms: N_12  and  C_22
REMARK    7  A    between atoms: C_13  and  C_14
REMARK    8  A    between atoms: C_17  and  O_18
REMARK    9  A    between atoms: O_18  and  C_19
REMARK   10  A    between atoms: C_22  and  N_24
REMARK   11  A    between atoms: N_24  and  C_25
REMARK   12  A    between atoms: C_25  and  C_26
REMARK   13  A    between atoms: C_26  and  C_27
REMARK   14  A    between atoms: C_27  and  N_28
REMARK   15  A    between atoms: N_28  and  C_29
REMARK   16  A    between atoms: N_28  and  C_31
REMARK   17  A    between atoms: C_29  and  C_30
REMARK   18  A    between atoms: C_31  and  C_32
REMARK                            x       y       z     vdW  Elec       q    Type
REMARK                         _______ _______ _______ _____ _____    ______ ____
ROOT
ATOM      1  N   UNL     1       0.723  10.710  20.085  0.00  0.00    +0.000 N 
ENDROOT
BRANCH   1   2
ATOM      2  C   UNL     1       1.203   9.399  19.920  0.00  0.00    +0.000 C 
ATOM      3  S   UNL     1       1.051   8.166  21.047  0.00  0.00    +0.000 S 
BRANCH   2   4
ATOM      4  N   UNL     1       1.835   9.227  18.709  0.00  0.00    +0.000 N 
ATOM      5  H   UNL     1       2.589   9.880  18.535  0.00  0.00    +0.000 HD
BRANCH   4   6
ATOM      6  C   UNL     1       1.813   8.083  17.809  0.00  0.00    +0.000 C 
BRANCH   6   7
ATOM      7  C   UNL     1       2.940   7.118  18.182  0.00  0.00    +0.000 C 
BRANCH   7   8
ATOM      8  C   UNL     1       2.645   5.639  17.883  0.00  0.00    +0.000 C 
BRANCH   8   9
ATOM      9  N   UNL     1       2.769   4.701  19.018  0.00  0.00    +0.000 NA
BRANCH   9  10
ATOM     10  C   UNL     1       1.493   4.064  19.386  0.00  0.00    +0.000 C 
ATOM     11  C   UNL     1       1.306   3.729  20.864  0.00  0.00    +0.000 C 
ENDBRANCH   9  10
BRANCH   9  12
ATOM     12  C   UNL     1       3.851   3.735  18.738  0.00  0.00    +0.000 C 
ATOM     13  C   UNL     1       5.258   4.239  19.049  0.00  0.00    +0.000 C 
ENDBRANCH   9  12
ENDBRANCH   8   9
ENDBRANCH   7   8
ENDBRANCH   6   7
ENDBRANCH   4   6
ENDBRANCH   2   4
ENDBRANCH   1   2
BRANCH   1  14
ATOM     14  C   UNL     1       0.873  11.413  21.391  0.00  0.00    +0.000 C 
BRANCH  14  22
ATOM     15  C   UNL     1      -2.820  15.842  24.210  0.00  0.00    +0.000 A 
ATOM     16  C   UNL     1      -3.689  14.879  24.741  0.00  0.00    +0.000 A 
ATOM     17  C   UNL     1      -3.576  13.556  24.348  0.00  0.00    +0.000 A 
ATOM     18  C   UNL     1      -2.563  13.172  23.464  0.00  0.00    +0.000 A 
ATOM     19  N   UNL     1      -2.347  11.815  23.297  0.00  0.00    +0.000 N 
ATOM     20  C   UNL     1      -1.129  11.346  22.906  0.00  0.00    +0.000 A 
ATOM     21  O   UNL     1      -0.719  10.281  23.338  0.00  0.00    +0.000 OA
ATOM     22  C   UNL     1      -0.321  12.207  21.966  0.00  0.00    +0.000 A 
ATOM     23  C   UNL     1      -0.589  13.542  22.013  0.00  0.00    +0.000 A 
ATOM     24  C   UNL     1      -1.672  14.097  22.885  0.00  0.00    +0.000 A 
ATOM     25  C   UNL     1      -1.829  15.452  23.266  0.00  0.00    +0.000 A 
ATOM     26  H   UNL     1      -2.863  11.172  23.880  0.00  0.00    +0.000 HD
BRANCH  15  28
ATOM     27  C   UNL     1      -1.879  17.594  25.772  0.00  0.00    +0.000 C 
ATOM     28  C   UNL     1      -2.962  17.261  24.749  0.00  0.00    +0.000 C 
ENDBRANCH  15  28
ENDBRANCH  14  22
ENDBRANCH   1  14
BRANCH   1  29
ATOM     29  C   UNL     1       0.015  11.424  18.985  0.00  0.00    +0.000 C 
BRANCH  29  30
ATOM     30  C   UNL     1      -1.471  11.098  18.710  0.00  0.00    +0.000 A 
ATOM     31  C   UNL     1      -2.460  11.963  19.216  0.00  0.00    +0.000 A 
ATOM     32  C   UNL     1      -3.806  11.891  18.785  0.00  0.00    +0.000 A 
ATOM     33  C   UNL     1      -4.189  10.960  17.817  0.00  0.00    +0.000 A 
ATOM     34  C   UNL     1      -3.248  10.045  17.363  0.00  0.00    +0.000 A 
ATOM     35  C   UNL     1      -1.903  10.120  17.798  0.00  0.00    +0.000 A 
BRANCH  33  36
ATOM     36  O   UNL     1      -5.500  11.029  17.416  0.00  0.00    +0.000 OA
ATOM     37  C   UNL     1      -6.044  12.341  17.265  0.00  0.00    +0.000 C 
ENDBRANCH  33  36
ENDBRANCH  29  30
ENDBRANCH   1  29
TORSDOF 14
ENDMDL
MODEL 9
REMARK VINA RESULT:      -6.2      5.110      9.446
REMARK  Name = 
REMARK  18 active torsions:
REMARK  status: ('A' for Active; 'I' for Inactive)
REMARK    1  A    between atoms: C_1  and  C_2
REMARK    2  A    between atoms: C_2  and  C_3
REMARK    3  A    between atoms: C_10  and  C_11
REMARK    4  A    between atoms: C_11  and  N_12
REMARK    5  A    between atoms: N_12  and  C_13
REMARK    6  A    between atoms: N_12  and  C_22
REMARK    7  A    between atoms: C_13  and  C_14
REMARK    8  A    between atoms: C_17  and  O_18
REMARK    9  A    between atoms: O_18  and  C_19
REMARK   10  A    between atoms: C_22  and  N_24
REMARK   11  A    between atoms: N_24  and  C_25
REMARK   12  A    between atoms: C_25  and  C_26
REMARK   13  A    between atoms: C_26  and  C_27
REMARK   14  A    between atoms: C_27  and  N_28
REMARK   15  A    between atoms: N_28  and  C_29
REMARK   16  A    between atoms: N_28  and  C_31
REMARK   17  A    between atoms: C_29  and  C_30
REMARK   18  A    between atoms: C_31  and  C_32
REMARK                            x       y       z     vdW  Elec       q    Type
REMARK                         _______ _______ _______ _____ _____    ______ ____
ROOT
ATOM      1  N   UNL     1       0.005  11.232  20.349  0.00  0.00    +0.000 N 
ENDROOT
BRANCH   1   2
ATOM      2  C   UNL     1       0.332   9.870  20.471  0.00  0.00    +0.000 C 
ATOM      3  S   UNL     1      -0.505   8.756  21.404  0.00  0.00    +0.000 S 
BRANCH   2   4
ATOM      4  N   UNL     1       1.444   9.536  19.731  0.00  0.00    +0.000 N 
ATOM      5  H   UNL     1       2.174   9.076  20.260  0.00  0.00    +0.000 HD
BRANCH   4   6
ATOM      6  C   UNL     1       1.599   9.440  18.287  0.00  0.00    +0.000 C 
BRANCH   6   7
ATOM      7  C   UNL     1       1.798   7.977  17.890  0.00  0.00    +0.000 C 
BRANCH   7   8
ATOM      8  C   UNL     1       3.266   7.549  17.727  0.00  0.00    +0.000 C 
BRANCH   8   9
ATOM      9  N   UNL     1       3.637   6.239  18.302  0.00  0.00    +0.000 NA
BRANCH   9  10
ATOM     10  C   UNL     1       2.670   5.173  17.989  0.00  0.00    +0.000 C 
ATOM     11  C   UNL     1       3.248   3.883  17.412  0.00  0.00    +0.000 C 
ENDBRANCH   9  10
BRANCH   9  12
ATOM     12  C   UNL     1       5.024   5.910  17.915  0.00  0.00    +0.000 C 
ATOM     13  C   UNL     1       5.630   6.828  16.858  0.00  0.00    +0.000 C 
ENDBRANCH   9  12
ENDBRANCH   8   9
ENDBRANCH   7   8
ENDBRANCH   6   7
ENDBRANCH   4   6
ENDBRANCH   2   4
ENDBRANCH   1   2
BRANCH   1  14
ATOM     14  C   UNL     1      -0.617  11.753  19.098  0.00  0.00    +0.000 C 
BRANCH  14  22
ATOM     15  C   UNL     1      -6.846  12.401  20.504  0.00  0.00    +0.000 A 
ATOM     16  C   UNL     1      -7.241  11.560  19.453  0.00  0.00    +0.000 A 
ATOM     17  C   UNL     1      -6.311  11.141  18.518  0.00  0.00    +0.000 A 
ATOM     18  C   UNL     1      -4.969  11.510  18.650  0.00  0.00    +0.000 A 
ATOM     19  N   UNL     1      -4.051  10.871  17.836  0.00  0.00    +0.000 N 
ATOM     20  C   UNL     1      -2.746  10.759  18.209  0.00  0.00    +0.000 A 
ATOM     21  O   UNL     1      -2.111   9.759  17.915  0.00  0.00    +0.000 OA
ATOM     22  C   UNL     1      -2.154  11.889  19.017  0.00  0.00    +0.000 A 
ATOM     23  C   UNL     1      -3.043  12.622  19.743  0.00  0.00    +0.000 A 
ATOM     24  C   UNL     1      -4.516  12.366  19.674  0.00  0.00    +0.000 A 
ATOM     25  C   UNL     1      -5.490  12.819  20.597  0.00  0.00    +0.000 A 
ATOM     26  H   UNL     1      -4.374  10.113  17.252  0.00  0.00    +0.000 HD
BRANCH  15  28
ATOM     27  C   UNL     1      -7.699  12.027  22.854  0.00  0.00    +0.000 C 
ATOM     28  C   UNL     1      -7.915  12.757  21.530  0.00  0.00    +0.000 C 
ENDBRANCH  15  28
ENDBRANCH  14  22
ENDBRANCH   1  14
BRANCH   1  29
ATOM     29  C   UNL     1       0.303  12.206  21.439  0.00  0.00    +0.000 C 
BRANCH  29  30
ATOM     30  C   UNL     1      -0.832  12.630  22.398  0.00  0.00    +0.000 A 
ATOM     31  C   UNL     1      -1.093  14.002  22.574  0.00  0.00    +0.000 A 
ATOM     32  C   UNL     1      -2.271  14.463  23.208  0.00  0.00    +0.000 A 
ATOM     33  C   UNL     1      -3.229  13.554  23.663  0.00  0.00    +0.000 A 
ATOM     34  C   UNL     1      -2.956  12.195  23.572  0.00  0.00    +0.000 A 
ATOM     35  C   UNL     1      -1.775  11.740  22.938  0.00  0.00    +0.000 A 
BRANCH  33  36
ATOM     36  O   UNL     1      -4.368  14.110  24.192  0.00  0.00    +0.000 OA
ATOM     37  C   UNL     1      -4.412  15.537  24.231  0.00  0.00    +0.000 C 
ENDBRANCH  33  36
ENDBRANCH  29  30
ENDBRANCH   1  29
TORSDOF 14
ENDMDL
